#    Name: 5zov_2_ASC
#    Modification time : Fri May 22 19:24:43 2020

@<TRIPOS>MOLECULE
5zov_2_ASC
   12    12     1     0     0
SMALL
NO_CHARGES


@<TRIPOS>ATOM
      1 C1         40.1750   -4.4850   11.1110 C.2       1 ASC501      0.0000 
      2 C2         40.4420   -3.9520    9.7910 C.2       1 ASC501      0.0000 
      3 C3         40.4400   -4.9660    8.9470 C.2       1 ASC501      0.0000 
      4 C4         40.1860   -6.2690    9.6540 C.3       1 ASC501      0.0000 
      5 C5         41.3700   -7.2120    9.4750 C.3       1 ASC501      0.0000 
      6 C6         41.2320   -8.4200   10.3910 C.3       1 ASC501      0.0000 
      7 O1         40.0930   -3.8430   12.1440 O.2       1 ASC501      0.0000 
      8 O2         40.6520   -2.6770    9.4740 O.3       1 ASC501      0.0000 
      9 O3         40.6350   -4.8500    7.6360 O.co2     1 ASC501      0.0000 
     10 O4         40.0150   -5.9290   11.0420 O.3       1 ASC501      0.0000 
     11 O5         42.6010   -6.5350    9.7600 O.3       1 ASC501      0.0000 
     12 O6         42.0690   -9.4710    9.8990 O.3       1 ASC501      0.0000 
@<TRIPOS>BOND
     1    1    2 1    
     2    1    7 2    
     3    1   10 1    
     4    2    3 2    
     5    2    8 1    
     6    3    4 1    
     7    3    9 ar   
     8    4    5 1    
     9    4   10 1    
    10    5    6 1    
    11    5   11 1    
    12    6   12 1    
@<TRIPOS>SUBSTRUCTURE
     1 ASC501      1 GROUP   
@<TRIPOS>SET

