#    Name: 5zov_1_ASC_CAVITY_N1_4
#    Modification time : Fri May 22 19:24:39 2020

@<TRIPOS>MOLECULE
5zov_1_ASC_CAVITY_N1_4
   44     0     6     0     0
SMALL
NO_CHARGES


@<TRIPOS>ATOM
      1 OG         39.4700   -6.9100  -24.4700 O.3       1 SER1        0.0000 
      2 OG         40.4500   -5.8800  -24.9600 O.3       1 SER1        0.0000 
      3 OG         39.8300   -6.5800  -23.0500 O.3       1 SER1        0.0000 
      4 OG         40.8100   -5.5600  -23.5400 O.3       1 SER1        0.0000 
      5 OG         41.8900   -6.6000  -23.5800 O.3       1 SER1        0.0000 
      6 OD1        40.2000   -6.2600  -21.6300 O.co2     2 ASP3        0.0000 
      7 OD1        41.2800   -7.3000  -21.6700 O.co2     2 ASP3        0.0000 
      8 OD1        42.3500   -8.3500  -21.7100 O.co2     2 ASP3        0.0000 
      9 OD1        41.1800   -5.2300  -22.1200 O.co2     2 ASP3        0.0000 
     10 OD1        42.2500   -6.2800  -22.1600 O.co2     2 ASP3        0.0000 
     11 OD1        41.5500   -4.9100  -20.7000 O.co2     2 ASP3        0.0000 
     12 OD1        42.6200   -5.9500  -20.7400 O.co2     2 ASP3        0.0000 
     13 OD1        43.7000   -7.0000  -20.7800 O.co2     2 ASP3        0.0000 
     14 OD1        41.9100   -4.5800  -19.2800 O.co2     2 ASP3        0.0000 
     15 OD1        42.9900   -5.6300  -19.3200 O.co2     2 ASP3        0.0000 
     16 NZ         40.5400   -7.9500  -24.5100 N.4       3 LYS4        0.0000 
     17 NZ         40.9100   -7.6300  -23.0900 N.4       3 LYS4        0.0000 
     18 NZ         41.9800   -8.6700  -23.1300 N.4       3 LYS4        0.0000 
     19 NZ         43.0600   -9.7200  -23.1700 N.4       3 LYS4        0.0000 
     20 CZ         41.4200   -4.8500  -25.4400 C.ar      4 PHE5        0.0000 
     21 CZ         42.5000   -5.9000  -25.4800 C.ar      4 PHE5        0.0000 
     22 CZ         39.9300   -8.6500  -22.6000 C.ar      4 PHE5        0.0000 
     23 CZ         39.7400   -4.5100  -23.5000 C.ar      4 PHE5        0.0000 
     24 CZ         42.9600   -7.6400  -23.6200 C.ar      4 PHE5        0.0000 
     25 CZ         44.0400   -8.6900  -23.6600 C.ar      4 PHE5        0.0000 
     26 CZ         40.1000   -4.1900  -22.0800 C.ar      4 PHE5        0.0000 
     27 CZ         43.3300   -7.3200  -22.2000 C.ar      4 PHE5        0.0000 
     28 CZ         44.4100   -8.3700  -22.2400 C.ar      4 PHE5        0.0000 
     29 CZ         43.2300   -5.2500  -22.6500 C.ar      4 PHE5        0.0000 
     30 CZ         41.4500   -2.8400  -21.1500 C.ar      4 PHE5        0.0000 
     31 CZ         43.6000   -4.9300  -21.2300 C.ar      4 PHE5        0.0000 
     32 CZ         40.8400   -3.5400  -19.2500 C.ar      4 PHE5        0.0000 
     33 CZ         41.8100   -2.5100  -19.7300 C.ar      4 PHE5        0.0000 
     34 CA         39.3700   -4.8400  -24.9200 C.3       5 GLY6        0.0000 
     35 CA         40.3500   -3.8100  -25.4000 C.3       5 GLY6        0.0000 
     36 CA         44.1400  -10.7600  -23.2100 C.3       5 GLY6        0.0000 
     37 CA         40.7200   -3.4800  -23.9900 C.3       5 GLY6        0.0000 
     38 CA         41.7900   -4.5300  -24.0300 C.3       5 GLY6        0.0000 
     39 CA         41.0800   -3.1600  -22.5700 C.3       5 GLY6        0.0000 
     40 CA         42.1600   -4.2000  -22.6100 C.3       5 GLY6        0.0000 
     41 CA         44.7700   -8.0400  -20.8200 C.3       5 GLY6        0.0000 
     42 CA         42.5200   -3.8800  -21.1900 C.3       5 GLY6        0.0000 
     43 DU         42.8900   -3.5600  -19.7700 H         6 CUB7        0.0000 
     44 DU         43.9700   -4.6000  -19.8100 H         6 CUB7        0.0000 
@<TRIPOS>BOND
@<TRIPOS>SUBSTRUCTURE
     1 SER1        1 GROUP   
     2 ASP3        6 GROUP   
     3 LYS4       16 GROUP   
     4 PHE5       20 GROUP   
     5 GLY6       34 GROUP   
     6 CUB7       43 GROUP   
@<TRIPOS>SET

