#    Name: 5zov_1_ASC
#    Modification time : Fri May 22 19:24:38 2020

@<TRIPOS>MOLECULE
5zov_1_ASC
   12    12     1     0     0
SMALL
NO_CHARGES


@<TRIPOS>ATOM
      1 C1         39.8890   -4.6550  -24.9590 C.2       1 ASC501      0.0000 
      2 C2         39.5510   -4.6980  -23.5540 C.2       1 ASC501      0.0000 
      3 C3         40.5810   -5.2200  -22.9140 C.2       1 ASC501      0.0000 
      4 C4         41.6500   -5.6650  -23.8740 C.3       1 ASC501      0.0000 
      5 C5         41.7920   -7.1810  -23.8110 C.3       1 ASC501      0.0000 
      6 C6         42.8680   -7.6640  -24.7720 C.3       1 ASC501      0.0000 
      7 O1         39.1940   -4.1840  -25.8440 O.2       1 ASC501      0.0000 
      8 O2         38.4070   -4.2960  -23.0100 O.3       1 ASC501      0.0000 
      9 O3         40.6740   -5.3330  -21.5920 O.co2     1 ASC501      0.0000 
     10 O4         41.1940   -5.2580  -25.1770 O.3       1 ASC501      0.0000 
     11 O5         40.5490   -7.8090  -24.1460 O.3       1 ASC501      0.0000 
     12 O6         43.3590   -8.9300  -24.3220 O.3       1 ASC501      0.0000 
@<TRIPOS>BOND
     1    1    2 1    
     2    1    7 2    
     3    1   10 1    
     4    2    3 2    
     5    2    8 1    
     6    3    4 1    
     7    3    9 ar   
     8    4    5 1    
     9    4   10 1    
    10    5    6 1    
    11    5   11 1    
    12    6   12 1    
@<TRIPOS>SUBSTRUCTURE
     1 ASC501      1 GROUP   
@<TRIPOS>SET

