#    Name: 5zov_1_ASC_CAVITY_N1_12
#    Modification time : Fri May 22 19:24:39 2020

@<TRIPOS>MOLECULE
5zov_1_ASC_CAVITY_N1_12
   86     0     7     0     0
SMALL
NO_CHARGES


@<TRIPOS>ATOM
      1 OG         39.4700   -6.9100  -24.4700 O.3       1 SER1        0.0000 
      2 OG         40.4500   -5.8800  -24.9600 O.3       1 SER1        0.0000 
      3 OG         39.8300   -6.5800  -23.0500 O.3       1 SER1        0.0000 
      4 OG         40.8100   -5.5600  -23.5400 O.3       1 SER1        0.0000 
      5 OG         41.8900   -6.6000  -23.5800 O.3       1 SER1        0.0000 
      6 OG         43.2600   -3.2300  -18.3500 O.3       1 SER1        0.0000 
      7 OG         43.1600   -1.1600  -18.8000 O.3       1 SER1        0.0000 
      8 OG         46.2900   -2.2200  -19.3700 O.3       1 SER1        0.0000 
      9 N          43.7200   -4.9800  -16.4900 N.am      2 ALA2        0.0000 
     10 OD1        40.2000   -6.2600  -21.6300 O.co2     3 ASP3        0.0000 
     11 OD1        41.2800   -7.3000  -21.6700 O.co2     3 ASP3        0.0000 
     12 OD1        42.3500   -8.3500  -21.7100 O.co2     3 ASP3        0.0000 
     13 OD1        41.1800   -5.2300  -22.1200 O.co2     3 ASP3        0.0000 
     14 OD1        42.2500   -6.2800  -22.1600 O.co2     3 ASP3        0.0000 
     15 OD1        41.5500   -4.9100  -20.7000 O.co2     3 ASP3        0.0000 
     16 OD1        42.6200   -5.9500  -20.7400 O.co2     3 ASP3        0.0000 
     17 OD1        43.7000   -7.0000  -20.7800 O.co2     3 ASP3        0.0000 
     18 OD1        41.9100   -4.5800  -19.2800 O.co2     3 ASP3        0.0000 
     19 OD1        42.9900   -5.6300  -19.3200 O.co2     3 ASP3        0.0000 
     20 OD1        42.3700   -6.3300  -17.4200 O.co2     3 ASP3        0.0000 
     21 OD1        43.3500   -5.3000  -17.9100 O.co2     3 ASP3        0.0000 
     22 NZ         40.5400   -7.9500  -24.5100 N.4       4 LYS4        0.0000 
     23 NZ         40.9100   -7.6300  -23.0900 N.4       4 LYS4        0.0000 
     24 NZ         41.9800   -8.6700  -23.1300 N.4       4 LYS4        0.0000 
     25 NZ         43.0600   -9.7200  -23.1700 N.4       4 LYS4        0.0000 
     26 NZ         50.2300   -6.7300  -20.9400 N.4       4 LYS4        0.0000 
     27 NZ         49.5200   -5.3600  -19.4900 N.4       4 LYS4        0.0000 
     28 CZ         41.4200   -4.8500  -25.4400 C.ar      5 PHE5        0.0000 
     29 CZ         42.5000   -5.9000  -25.4800 C.ar      5 PHE5        0.0000 
     30 CZ         39.9300   -8.6500  -22.6000 C.ar      5 PHE5        0.0000 
     31 CZ         39.7400   -4.5100  -23.5000 C.ar      5 PHE5        0.0000 
     32 CZ         42.9600   -7.6400  -23.6200 C.ar      5 PHE5        0.0000 
     33 CZ         44.0400   -8.6900  -23.6600 C.ar      5 PHE5        0.0000 
     34 CZ         40.1000   -4.1900  -22.0800 C.ar      5 PHE5        0.0000 
     35 CZ         43.3300   -7.3200  -22.2000 C.ar      5 PHE5        0.0000 
     36 CZ         44.4100   -8.3700  -22.2400 C.ar      5 PHE5        0.0000 
     37 CZ         43.2300   -5.2500  -22.6500 C.ar      5 PHE5        0.0000 
     38 CZ         41.4500   -2.8400  -21.1500 C.ar      5 PHE5        0.0000 
     39 CZ         43.6000   -4.9300  -21.2300 C.ar      5 PHE5        0.0000 
     40 CZ         44.6800   -5.9700  -21.2700 C.ar      5 PHE5        0.0000 
     41 CZ         45.7500   -7.0100  -21.3100 C.ar      5 PHE5        0.0000 
     42 CZ         46.8300   -8.0600  -21.3500 C.ar      5 PHE5        0.0000 
     43 CZ         44.5800   -3.9000  -21.7200 C.ar      5 PHE5        0.0000 
     44 CZ         47.8100   -7.0300  -21.8300 C.ar      5 PHE5        0.0000 
     45 CZ         48.7900   -6.0100  -22.3200 C.ar      5 PHE5        0.0000 
     46 CZ         49.8600   -7.0500  -22.3600 C.ar      5 PHE5        0.0000 
     47 CZ         40.8400   -3.5400  -19.2500 C.ar      5 PHE5        0.0000 
     48 CZ         41.8100   -2.5100  -19.7300 C.ar      5 PHE5        0.0000 
     49 CZ         45.0400   -5.6500  -19.8500 C.ar      5 PHE5        0.0000 
     50 CZ         44.9500   -3.5700  -20.3000 C.ar      5 PHE5        0.0000 
     51 CZ         46.0200   -4.6200  -20.3400 C.ar      5 PHE5        0.0000 
     52 CZ         47.1000   -5.6600  -20.3800 C.ar      5 PHE5        0.0000 
     53 CZ         48.1700   -6.7100  -20.4200 C.ar      5 PHE5        0.0000 
     54 CZ         45.9200   -2.5500  -20.7900 C.ar      5 PHE5        0.0000 
     55 CZ         47.0000   -3.5900  -20.8300 C.ar      5 PHE5        0.0000 
     56 CZ         48.0800   -4.6400  -20.8600 C.ar      5 PHE5        0.0000 
     57 CZ         49.1500   -5.6800  -20.9000 C.ar      5 PHE5        0.0000 
     58 CZ         50.1300   -4.6600  -21.3900 C.ar      5 PHE5        0.0000 
     59 CZ         51.2100   -5.7000  -21.4300 C.ar      5 PHE5        0.0000 
     60 CZ         49.4200   -3.2900  -19.9300 C.ar      5 PHE5        0.0000 
     61 CA         39.3700   -4.8400  -24.9200 C.3       6 GLY6        0.0000 
     62 CA         40.3500   -3.8100  -25.4000 C.3       6 GLY6        0.0000 
     63 CA         44.1400  -10.7600  -23.2100 C.3       6 GLY6        0.0000 
     64 CA         40.7200   -3.4800  -23.9900 C.3       6 GLY6        0.0000 
     65 CA         41.7900   -4.5300  -24.0300 C.3       6 GLY6        0.0000 
     66 CA         41.0800   -3.1600  -22.5700 C.3       6 GLY6        0.0000 
     67 CA         42.1600   -4.2000  -22.6100 C.3       6 GLY6        0.0000 
     68 CA         44.7700   -8.0400  -20.8200 C.3       6 GLY6        0.0000 
     69 CA         42.5200   -3.8800  -21.1900 C.3       6 GLY6        0.0000 
     70 CA         44.0600   -6.6700  -19.3600 C.3       6 GLY6        0.0000 
     71 CA         46.1200   -6.6900  -19.8900 C.3       6 GLY6        0.0000 
     72 CA         47.1900   -7.7300  -19.9300 C.3       6 GLY6        0.0000 
     73 CA         43.8700   -2.5300  -20.2600 C.3       6 GLY6        0.0000 
     74 CA         44.8500   -1.5000  -20.7500 C.3       6 GLY6        0.0000 
     75 CA         42.2800   -4.2600  -17.8700 C.3       6 GLY6        0.0000 
     76 CA         42.1800   -2.1900  -18.3200 C.3       6 GLY6        0.0000 
     77 CA         44.3300   -4.2800  -18.3900 C.3       6 GLY6        0.0000 
     78 CA         45.4100   -5.3200  -18.4300 C.3       6 GLY6        0.0000 
     79 CA         45.3100   -3.2500  -18.8800 C.3       6 GLY6        0.0000 
     80 CA         46.3900   -4.2900  -18.9200 C.3       6 GLY6        0.0000 
     81 CA         48.5400   -6.3800  -19.0000 C.3       6 GLY6        0.0000 
     82 CA         47.3700   -3.2700  -19.4100 C.3       6 GLY6        0.0000 
     83 CA         48.4400   -4.3100  -19.4500 C.3       6 GLY6        0.0000 
     84 CA         42.7400   -6.0000  -16.0000 C.3       6 GLY6        0.0000 
     85 DU         42.8900   -3.5600  -19.7700 H         7 CUB7        0.0000 
     86 DU         43.9700   -4.6000  -19.8100 H         7 CUB7        0.0000 
@<TRIPOS>BOND
@<TRIPOS>SUBSTRUCTURE
     1 SER1        1 GROUP   
     2 ALA2        9 GROUP   
     3 ASP3       10 GROUP   
     4 LYS4       22 GROUP   
     5 PHE5       28 GROUP   
     6 GLY6       61 GROUP   
     7 CUB7       85 GROUP   
@<TRIPOS>SET

