#    Name: 5zov_2_ASC_CAVITY_N1_4
#    Modification time : Fri May 22 19:24:44 2020

@<TRIPOS>MOLECULE
5zov_2_ASC_CAVITY_N1_4
   38     0     7     0     0
SMALL
NO_CHARGES


@<TRIPOS>ATOM
      1 OG         39.8500   -5.5300    6.8600 O.3       1 SER1        0.0000 
      2 OG         40.2100   -5.2100    8.2700 O.3       1 SER1        0.0000 
      3 OG         40.6800   -6.9600   10.1400 O.3       1 SER1        0.0000 
      4 OG         40.5800   -4.8800    9.6900 O.3       1 SER1        0.0000 
      5 OG         41.6500   -5.9300    9.6500 O.3       1 SER1        0.0000 
      6 N          39.8700   -3.5200   11.1500 N.am      2 ALA2        0.0000 
      7 OD1        39.5800   -7.9300    5.8900 O.co2     3 ASP3        0.0000 
      8 OD1        39.4800   -5.8600    5.4400 O.co2     3 ASP3        0.0000 
      9 OD1        39.9400   -7.6000    7.3100 O.co2     3 ASP3        0.0000 
     10 OD1        41.0200   -8.6500    7.2700 O.co2     3 ASP3        0.0000 
     11 OD1        40.3100   -7.2800    8.7200 O.co2     3 ASP3        0.0000 
     12 OD1        41.3900   -8.3200    8.6800 O.co2     3 ASP3        0.0000 
     13 OD1        41.2900   -6.2500    8.2400 O.co2     3 ASP3        0.0000 
     14 NZ         42.4600   -9.3700    8.6400 N.4       4 LYS4        0.0000 
     15 NZ         41.7500   -8.0000   10.1000 N.4       4 LYS4        0.0000 
     16 CZ         38.4000   -4.8100    5.4800 C.ar      5 PHE5        0.0000 
     17 CZ         40.1400  -11.7500    8.2000 C.ar      5 PHE5        0.0000 
     18 CZ         37.8900   -7.5900    7.8300 C.ar      5 PHE5        0.0000 
     19 CZ         38.9600   -8.6300    7.7900 C.ar      5 PHE5        0.0000 
     20 CZ         40.0400   -9.6800    7.7500 C.ar      5 PHE5        0.0000 
     21 CZ         41.1200  -10.7200    7.7100 C.ar      5 PHE5        0.0000 
     22 CZ         38.2500   -7.2600    9.2500 C.ar      5 PHE5        0.0000 
     23 CZ         40.4100   -9.3500    9.1700 C.ar      5 PHE5        0.0000 
     24 CZ         41.4800  -10.4000    9.1300 C.ar      5 PHE5        0.0000 
     25 CZ         38.6200   -6.9400   10.6700 C.ar      5 PHE5        0.0000 
     26 CZ         39.7000   -7.9800   10.6300 C.ar      5 PHE5        0.0000 
     27 CZ         40.7700   -9.0300   10.5900 C.ar      5 PHE5        0.0000 
     28 CZ         39.9700   -5.5900   11.6000 C.ar      5 PHE5        0.0000 
     29 CA         37.4200   -5.8400    5.9700 C.3       6 GLY6        0.0000 
     30 CA         36.8100   -6.5400    7.8700 C.3       6 GLY6        0.0000 
     31 CA         37.7900   -5.5100    7.3800 C.3       6 GLY6        0.0000 
     32 CA         39.2300   -6.2400    8.7600 C.3       6 GLY6        0.0000 
     33 CA         39.6000   -5.9100   10.1800 C.3       6 GLY6        0.0000 
     34 CA         39.5000   -3.8400    9.7300 C.3       6 GLY6        0.0000 
     35 CA         38.8900   -4.5400   11.6400 C.3       6 GLY6        0.0000 
     36 CA         40.9500   -4.5600   11.1100 C.3       6 GLY6        0.0000 
     37 DU         38.5000   -6.8800    5.9300 H         7 CUB7        0.0000 
     38 DU         38.8700   -6.5600    7.3400 H         7 CUB7        0.0000 
@<TRIPOS>BOND
@<TRIPOS>SUBSTRUCTURE
     1 SER1        1 GROUP   
     2 ALA2        6 GROUP   
     3 ASP3        7 GROUP   
     4 LYS4       14 GROUP   
     5 PHE5       16 GROUP   
     6 GLY6       29 GROUP   
     7 CUB7       37 GROUP   
@<TRIPOS>SET

