#    Name: 6hlr_1_G2P_CAVITY_N1_4
#    Modification time : Fri May 22 19:28:49 2020

@<TRIPOS>MOLECULE
6hlr_1_G2P_CAVITY_N1_4
   31     0     5     0     0
SMALL
NO_CHARGES


@<TRIPOS>ATOM
      1 N         146.5800  126.7300  145.6700 N.am      1 ALA2        0.0000 
      2 N         147.6500  126.4700  147.4800 N.am      1 ALA2        0.0000 
      3 N         147.3800  127.6300  146.5700 N.am      1 ALA2        0.0000 
      4 N         149.9700  125.8800  148.5000 N.am      1 ALA2        0.0000 
      5 N         148.4500  127.3600  148.3800 N.am      1 ALA2        0.0000 
      6 OD1       145.6200  125.8900  147.3600 O.co2     2 ASP3        0.0000 
      7 OD1       150.0800  124.7800  152.0000 O.co2     2 ASP3        0.0000 
      8 OD1       148.8500  125.1000  152.7900 O.co2     2 ASP3        0.0000 
      9 OD1       148.5700  126.2600  151.8800 O.co2     2 ASP3        0.0000 
     10 OD1       152.1200  125.3500  152.1200 O.co2     2 ASP3        0.0000 
     11 OD1       150.6100  126.8300  151.9900 O.co2     2 ASP3        0.0000 
     12 OD1       149.3700  127.1500  152.7800 O.co2     2 ASP3        0.0000 
     13 NZ        146.8500  125.5700  146.5800 N.4       3 LYS4        0.0000 
     14 NZ        147.9300  125.3100  148.3900 N.4       3 LYS4        0.0000 
     15 NZ        146.4200  126.7900  148.2600 N.4       3 LYS4        0.0000 
     16 NZ        148.7300  126.2000  149.2800 N.4       3 LYS4        0.0000 
     17 NZ        148.0500  124.2000  151.8900 N.4       3 LYS4        0.0000 
     18 NZ        147.4900  126.5200  150.0700 N.4       3 LYS4        0.0000 
     19 NZ        147.2200  127.6800  149.1600 N.4       3 LYS4        0.0000 
     20 NZ        146.5300  125.6800  151.7600 N.4       3 LYS4        0.0000 
     21 NZ        151.3200  124.4600  151.2200 N.4       3 LYS4        0.0000 
     22 CA        150.2500  124.7200  149.4100 C.3       4 GLY6        0.0000 
     23 CA        149.2800  123.8800  151.1000 C.3       4 GLY6        0.0000 
     24 CA        149.0100  125.0400  150.1900 C.3       4 GLY6        0.0000 
     25 CA        151.8500  126.5100  151.2100 C.3       4 GLY6        0.0000 
     26 DU        151.0500  125.6200  150.3100 H         5 CUB7        0.0000 
     27 DU        150.7700  126.7800  149.4000 H         5 CUB7        0.0000 
     28 DU        149.8100  125.9400  151.0900 H         5 CUB7        0.0000 
     29 DU        149.5300  127.1000  150.1800 H         5 CUB7        0.0000 
     30 DU        148.2900  127.4200  150.9700 H         5 CUB7        0.0000 
     31 DU        151.5700  127.6700  150.3000 H         5 CUB7        0.0000 
@<TRIPOS>BOND
@<TRIPOS>SUBSTRUCTURE
     1 ALA2        1 GROUP   
     2 ASP3        6 GROUP   
     3 LYS4       13 GROUP   
     4 GLY6       22 GROUP   
     5 CUB7       26 GROUP   
@<TRIPOS>SET

