#    Name: 6hlr_1_G2P_CAVITY_N1_6
#    Modification time : Fri May 22 19:28:49 2020

@<TRIPOS>MOLECULE
6hlr_1_G2P_CAVITY_N1_6
   46     0     5     0     0
SMALL
NO_CHARGES


@<TRIPOS>ATOM
      1 N         146.5800  126.7300  145.6700 N.am      1 ALA2        0.0000 
      2 O         150.6800  123.5100  147.7300 O.2       1 ALA2        0.0000 
      3 O         149.1700  124.9900  147.6000 O.2       1 ALA2        0.0000 
      4 N         147.6500  126.4700  147.4800 N.am      1 ALA2        0.0000 
      5 N         147.3800  127.6300  146.5700 N.am      1 ALA2        0.0000 
      6 N         151.2100  125.5600  147.7200 N.am      1 ALA2        0.0000 
      7 N         149.9700  125.8800  148.5000 N.am      1 ALA2        0.0000 
      8 N         148.4500  127.3600  148.3800 N.am      1 ALA2        0.0000 
      9 N         152.0100  126.4600  148.6200 N.am      1 ALA2        0.0000 
     10 N         150.3600  123.6200  152.9100 N.am      1 ALA2        0.0000 
     11 O         153.3600  125.0300  151.3300 O.2       1 ALA2        0.0000 
     12 OD1       145.6200  125.8900  147.3600 O.co2     2 ASP3        0.0000 
     13 OD1       150.0800  124.7800  152.0000 O.co2     2 ASP3        0.0000 
     14 OD1       148.8500  125.1000  152.7900 O.co2     2 ASP3        0.0000 
     15 OD1       148.5700  126.2600  151.8800 O.co2     2 ASP3        0.0000 
     16 OD1       152.1200  125.3500  152.1200 O.co2     2 ASP3        0.0000 
     17 OD1       150.6100  126.8300  151.9900 O.co2     2 ASP3        0.0000 
     18 OD1       149.3700  127.1500  152.7800 O.co2     2 ASP3        0.0000 
     19 NZ        146.8500  125.5700  146.5800 N.4       3 LYS4        0.0000 
     20 NZ        147.9300  125.3100  148.3900 N.4       3 LYS4        0.0000 
     21 NZ        146.4200  126.7900  148.2600 N.4       3 LYS4        0.0000 
     22 NZ        151.4800  124.4000  148.6300 N.4       3 LYS4        0.0000 
     23 NZ        148.7300  126.2000  149.2800 N.4       3 LYS4        0.0000 
     24 NZ        148.0500  124.2000  151.8900 N.4       3 LYS4        0.0000 
     25 NZ        147.4900  126.5200  150.0700 N.4       3 LYS4        0.0000 
     26 NZ        147.2200  127.6800  149.1600 N.4       3 LYS4        0.0000 
     27 NZ        146.5300  125.6800  151.7600 N.4       3 LYS4        0.0000 
     28 NZ        152.5600  124.1400  150.4300 N.4       3 LYS4        0.0000 
     29 NZ        152.2800  125.3000  149.5200 N.4       3 LYS4        0.0000 
     30 NZ        151.3200  124.4600  151.2200 N.4       3 LYS4        0.0000 
     31 CA        150.5200  123.5600  150.3200 C.3       4 GLY6        0.0000 
     32 CA        150.2500  124.7200  149.4100 C.3       4 GLY6        0.0000 
     33 CA        149.2800  123.8800  151.1000 C.3       4 GLY6        0.0000 
     34 CA        149.0100  125.0400  150.1900 C.3       4 GLY6        0.0000 
     35 CA        151.8500  126.5100  151.2100 C.3       4 GLY6        0.0000 
     36 CA        153.8900  127.0900  151.3200 C.3       4 GLY6        0.0000 
     37 DU        153.5200  124.9800  148.7400 H         5 CUB7        0.0000 
     38 DU        153.2500  126.1400  147.8300 H         5 CUB7        0.0000 
     39 DU        151.0500  125.6200  150.3100 H         5 CUB7        0.0000 
     40 DU        150.7700  126.7800  149.4000 H         5 CUB7        0.0000 
     41 DU        149.8100  125.9400  151.0900 H         5 CUB7        0.0000 
     42 DU        149.5300  127.1000  150.1800 H         5 CUB7        0.0000 
     43 DU        148.2900  127.4200  150.9700 H         5 CUB7        0.0000 
     44 DU        153.0800  126.1900  150.4200 H         5 CUB7        0.0000 
     45 DU        151.5700  127.6700  150.3000 H         5 CUB7        0.0000 
     46 DU        153.6100  128.2500  150.4100 H         5 CUB7        0.0000 
@<TRIPOS>BOND
@<TRIPOS>SUBSTRUCTURE
     1 ALA2        1 GROUP   
     2 ASP3       12 GROUP   
     3 LYS4       19 GROUP   
     4 GLY6       31 GROUP   
     5 CUB7       37 GROUP   
@<TRIPOS>SET

