#    Name: 6hlr_1_G2P
#    Modification time : Fri May 22 19:28:47 2020

@<TRIPOS>MOLECULE
6hlr_1_G2P
   32    34     1     0     0
SMALL
NO_CHARGES


@<TRIPOS>ATOM
      1 PG        147.6560  127.6720  152.5360 P.3       1 G2P3000     0.0000 
      2 O1G       148.1100  128.6040  153.6340 O.co2     1 G2P3000     0.0000 
      3 O2G       148.7610  127.2220  151.6110 O.co2     1 G2P3000     0.0000 
      4 O3G       146.7410  126.5630  152.9890 O.co2     1 G2P3000     0.0000 
      5 O3B       146.6960  128.5670  151.6030 O.3       1 G2P3000     0.0000 
      6 PB        145.3140  129.1490  152.1880 P.3       1 G2P3000     0.0000 
      7 O1B       145.6000  130.0470  153.3260 O.co2     1 G2P3000     0.0000 
      8 O2B       144.3950  127.9300  152.6960 O.co2     1 G2P3000     0.0000 
      9 C3A       144.4260  130.0860  150.9160 C.3       1 G2P3000     0.0000 
     10 PA        143.2180  129.0490  150.0470 P.3       1 G2P3000     0.0000 
     11 O1A       142.9120  127.8610  150.8750 O.co2     1 G2P3000     0.0000 
     12 O2A       141.8600  129.8840  149.8150 O.co2     1 G2P3000     0.0000 
     13 O5'       143.7900  128.5740  148.6190 O.3       1 G2P3000     0.0000 
     14 C5'       142.8730  128.3510  147.5510 C.3       1 G2P3000     0.0000 
     15 C4'       143.5460  127.7090  146.3430 C.3       1 G2P3000     0.0000 
     16 O4'       142.5340  127.4210  145.3780 O.3       1 G2P3000     0.0000 
     17 C3'       144.5530  128.6130  145.6570 C.3       1 G2P3000     0.0000 
     18 O3'       145.7670  127.8910  145.4400 O.3       1 G2P3000     0.0000 
     19 C2'       143.9570  128.9760  144.3150 C.3       1 G2P3000     0.0000 
     20 O2'       144.9140  128.6830  143.2970 O.3       1 G2P3000     0.0000 
     21 C1'       142.7430  128.0850  144.1310 C.3       1 G2P3000     0.0000 
     22 N9        141.5190  128.8730  143.8480 N.pl3     1 G2P3000     0.0000 
     23 C8        140.5470  129.0880  144.7510 C.2       1 G2P3000     0.0000 
     24 N7        139.5470  129.8340  144.2290 N.2       1 G2P3000     0.0000 
     25 C5        139.8740  130.1020  142.9550 C.2       1 G2P3000     0.0000 
     26 C6        139.2480  130.8480  141.8410 C.2       1 G2P3000     0.0000 
     27 O6        138.1440  131.4140  141.9880 O.2       1 G2P3000     0.0000 
     28 N1        139.8970  130.9000  140.6770 N.am      1 G2P3000     0.0000 
     29 C2        141.0840  130.3000  140.5000 C.2       1 G2P3000     0.0000 
     30 N2        141.6660  130.4110  139.2850 N.pl3     1 G2P3000     0.0000 
     31 N3        141.7190  129.6000  141.4750 N.2       1 G2P3000     0.0000 
     32 C4        141.1730  129.4650  142.7030 C.2       1 G2P3000     0.0000 
@<TRIPOS>BOND
     1    1    2 ar   
     2    1    3 ar   
     3    1    4 ar   
     4    1    5 1    
     5    5    6 1    
     6    6    7 ar   
     7    6    8 ar   
     8    6    9 1    
     9    9   10 1    
    10   10   11 ar   
    11   10   12 ar   
    12   10   13 1    
    13   13   14 1    
    14   14   15 1    
    15   15   16 1    
    16   15   17 1    
    17   16   21 1    
    18   17   18 1    
    19   17   19 1    
    20   19   20 1    
    21   19   21 1    
    22   21   22 1    
    23   22   23 1    
    24   22   32 1    
    25   23   24 2    
    26   24   25 1    
    27   25   26 1    
    28   25   32 2    
    29   26   27 2    
    30   26   28 am   
    31   28   29 1    
    32   29   30 1    
    33   29   31 2    
    34   31   32 1    
@<TRIPOS>SUBSTRUCTURE
     1 G2P3000     1 GROUP   
@<TRIPOS>SET

