#    Name: 6hlr_1_G2P_CAVITY_N1_ALL
#    Modification time : Fri May 22 19:28:49 2020

@<TRIPOS>MOLECULE
6hlr_1_G2P_CAVITY_N1_ALL
   70     0     5     0     0
SMALL
NO_CHARGES


@<TRIPOS>ATOM
      1 N         146.5800  126.7300  145.6700 N.am      1 ALA2        0.0000 
      2 O         150.6800  123.5100  147.7300 O.2       1 ALA2        0.0000 
      3 O         149.1700  124.9900  147.6000 O.2       1 ALA2        0.0000 
      4 N         147.6500  126.4700  147.4800 N.am      1 ALA2        0.0000 
      5 N         147.3800  127.6300  146.5700 N.am      1 ALA2        0.0000 
      6 N         153.9600  123.7700  147.0600 N.am      1 ALA2        0.0000 
      7 N         152.7200  124.0800  147.8400 N.am      1 ALA2        0.0000 
      8 N         152.4500  125.2500  146.9300 N.am      1 ALA2        0.0000 
      9 N         151.2100  125.5600  147.7200 N.am      1 ALA2        0.0000 
     10 N         149.9700  125.8800  148.5000 N.am      1 ALA2        0.0000 
     11 N         148.4500  127.3600  148.3800 N.am      1 ALA2        0.0000 
     12 N         152.9700  127.3000  146.9200 N.am      1 ALA2        0.0000 
     13 N         152.0100  126.4600  148.6200 N.am      1 ALA2        0.0000 
     14 N         150.3600  123.6200  152.9100 N.am      1 ALA2        0.0000 
     15 O         154.6000  124.7100  150.5500 O.2       1 ALA2        0.0000 
     16 O         153.3600  125.0300  151.3300 O.2       1 ALA2        0.0000 
     17 O         155.4000  125.6100  151.4500 O.2       1 ALA2        0.0000 
     18 N         157.4400  126.1900  151.5600 N.am      1 ALA2        0.0000 
     19 N         156.2000  126.5000  152.3500 N.am      1 ALA2        0.0000 
     20 OD1       145.6200  125.8900  147.3600 O.co2     2 ASP3        0.0000 
     21 OD1       150.0800  124.7800  152.0000 O.co2     2 ASP3        0.0000 
     22 OD1       148.8500  125.1000  152.7900 O.co2     2 ASP3        0.0000 
     23 OD1       148.5700  126.2600  151.8800 O.co2     2 ASP3        0.0000 
     24 OD1       152.1200  125.3500  152.1200 O.co2     2 ASP3        0.0000 
     25 OD1       150.6100  126.8300  151.9900 O.co2     2 ASP3        0.0000 
     26 OD1       149.3700  127.1500  152.7800 O.co2     2 ASP3        0.0000 
     27 OD1       157.1600  127.3500  150.6500 O.co2     2 ASP3        0.0000 
     28 OD1       156.7200  128.5600  152.3400 O.co2     2 ASP3        0.0000 
     29 NZ        146.8500  125.5700  146.5800 N.4       3 LYS4        0.0000 
     30 NZ        147.9300  125.3100  148.3900 N.4       3 LYS4        0.0000 
     31 NZ        146.4200  126.7900  148.2600 N.4       3 LYS4        0.0000 
     32 NZ        153.0000  122.9200  148.7500 N.4       3 LYS4        0.0000 
     33 NZ        151.4800  124.4000  148.6300 N.4       3 LYS4        0.0000 
     34 NZ        148.7300  126.2000  149.2800 N.4       3 LYS4        0.0000 
     35 NZ        148.0500  124.2000  151.8900 N.4       3 LYS4        0.0000 
     36 NZ        147.4900  126.5200  150.0700 N.4       3 LYS4        0.0000 
     37 NZ        147.2200  127.6800  149.1600 N.4       3 LYS4        0.0000 
     38 NZ        146.5300  125.6800  151.7600 N.4       3 LYS4        0.0000 
     39 NZ        153.8000  123.8200  149.6500 N.4       3 LYS4        0.0000 
     40 NZ        152.5600  124.1400  150.4300 N.4       3 LYS4        0.0000 
     41 NZ        152.2800  125.3000  149.5200 N.4       3 LYS4        0.0000 
     42 NZ        151.3200  124.4600  151.2200 N.4       3 LYS4        0.0000 
     43 CA        150.5200  123.5600  150.3200 C.3       4 GLY6        0.0000 
     44 CA        150.2500  124.7200  149.4100 C.3       4 GLY6        0.0000 
     45 CA        149.2800  123.8800  151.1000 C.3       4 GLY6        0.0000 
     46 CA        149.0100  125.0400  150.1900 C.3       4 GLY6        0.0000 
     47 CA        155.0400  123.5000  148.8700 C.3       4 GLY6        0.0000 
     48 CA        154.7600  124.6600  147.9600 C.3       4 GLY6        0.0000 
     49 CA        154.4800  125.8200  147.0500 C.3       4 GLY6        0.0000 
     50 CA        155.8400  124.4000  149.7600 C.3       4 GLY6        0.0000 
     51 CA        155.5600  125.5600  148.8600 C.3       4 GLY6        0.0000 
     52 CA        151.8500  126.5100  151.2100 C.3       4 GLY6        0.0000 
     53 CA        156.6400  125.2900  150.6600 C.3       4 GLY6        0.0000 
     54 CA        153.8900  127.0900  151.3200 C.3       4 GLY6        0.0000 
     55 CA        154.6900  127.9800  152.2200 C.3       4 GLY6        0.0000 
     56 DU        153.5200  124.9800  148.7400 H         5 CUB7        0.0000 
     57 DU        153.2500  126.1400  147.8300 H         5 CUB7        0.0000 
     58 DU        151.0500  125.6200  150.3100 H         5 CUB7        0.0000 
     59 DU        150.7700  126.7800  149.4000 H         5 CUB7        0.0000 
     60 DU        149.8100  125.9400  151.0900 H         5 CUB7        0.0000 
     61 DU        149.5300  127.1000  150.1800 H         5 CUB7        0.0000 
     62 DU        148.2900  127.4200  150.9700 H         5 CUB7        0.0000 
     63 DU        155.2800  126.7200  147.9500 H         5 CUB7        0.0000 
     64 DU        154.3200  125.8800  149.6400 H         5 CUB7        0.0000 
     65 DU        153.0800  126.1900  150.4200 H         5 CUB7        0.0000 
     66 DU        151.5700  127.6700  150.3000 H         5 CUB7        0.0000 
     67 DU        156.3600  126.4500  149.7500 H         5 CUB7        0.0000 
     68 DU        155.1200  126.7700  150.5400 H         5 CUB7        0.0000 
     69 DU        153.6100  128.2500  150.4100 H         5 CUB7        0.0000 
     70 DU        155.9200  127.6700  151.4400 H         5 CUB7        0.0000 
@<TRIPOS>BOND
@<TRIPOS>SUBSTRUCTURE
     1 ALA2        1 GROUP   
     2 ASP3       20 GROUP   
     3 LYS4       29 GROUP   
     4 GLY6       43 GROUP   
     5 CUB7       56 GROUP   
@<TRIPOS>SET

