#    Name: 6dhk_9_ADP_CAVITY_N1_4
#    Modification time : Fri May 22 19:28:43 2020

@<TRIPOS>MOLECULE
6dhk_9_ADP_CAVITY_N1_4
  111     0     6     0     0
SMALL
NO_CHARGES


@<TRIPOS>ATOM
      1 OG        -14.0100   61.7100   69.9800 O.3       1 SER1        0.0000 
      2 OG        -11.6000   61.6200   70.9400 O.3       1 SER1        0.0000 
      3 OG        -12.4900   62.8300   70.9400 O.3       1 SER1        0.0000 
      4 OG        -11.8500   65.1600   71.9000 O.3       1 SER1        0.0000 
      5 OG        -11.5900   67.2100   71.4400 O.3       1 SER1        0.0000 
      6 OG        -10.3300   66.2800   72.8700 O.3       1 SER1        0.0000 
      7 OG         -9.9600   66.5500   74.2900 O.3       1 SER1        0.0000 
      8 OG        -17.0100   63.2400   79.9200 O.3       1 SER1        0.0000 
      9 OG        -15.8600   64.0900   79.4600 O.3       1 SER1        0.0000 
     10 N         -10.3400   60.6900   72.3700 N.am      2 ALA2        0.0000 
     11 N         -13.5300   60.2100   73.2900 N.am      2 ALA2        0.0000 
     12 N         -12.3800   61.0500   72.8300 N.am      2 ALA2        0.0000 
     13 N         -11.2300   61.9000   72.3700 N.am      2 ALA2        0.0000 
     14 N          -9.9700   60.9600   73.8000 N.am      2 ALA2        0.0000 
     15 N         -12.0100   61.3300   74.2600 N.am      2 ALA2        0.0000 
     16 N         -10.8600   62.1700   73.8000 N.am      2 ALA2        0.0000 
     17 N         -17.4900   59.1500   76.1100 N.am      2 ALA2        0.0000 
     18 O          -9.4500   65.0700   72.8700 O.2       2 ALA2        0.0000 
     19 N         -13.5200   65.8000   73.7900 N.am      2 ALA2        0.0000 
     20 O          -9.0700   65.3500   74.3000 O.2       2 ALA2        0.0000 
     21 N         -12.2600   64.8600   75.2200 N.am      2 ALA2        0.0000 
     22 N         -11.1100   65.7100   74.7600 N.am      2 ALA2        0.0000 
     23 N         -14.3000   65.2300   75.6800 N.am      2 ALA2        0.0000 
     24 N         -16.4900   61.7600   78.4900 N.am      2 ALA2        0.0000 
     25 N         -13.9300   65.5000   77.1100 N.am      2 ALA2        0.0000 
     26 N         -14.7100   64.9300   78.9900 N.am      2 ALA2        0.0000 
     27 N         -15.6000   66.1400   78.9900 N.am      2 ALA2        0.0000 
     28 OD1       -16.2000   58.2400   72.7900 O.co2     3 ASP3        0.0000 
     29 OD1       -17.0900   59.4500   72.7900 O.co2     3 ASP3        0.0000 
     30 OD1       -17.9800   60.6600   72.7900 O.co2     3 ASP3        0.0000 
     31 OD1       -14.5300   63.1900   71.4000 O.co2     3 ASP3        0.0000 
     32 OD1       -13.3800   64.0400   70.9400 O.co2     3 ASP3        0.0000 
     33 OD1       -15.4100   64.4000   71.4000 O.co2     3 ASP3        0.0000 
     34 OD1       -10.0800   62.7400   71.9100 O.co2     3 ASP3        0.0000 
     35 OD1       -17.8700   58.8800   74.6800 O.co2     3 ASP3        0.0000 
     36 OD1       -16.7200   59.7200   74.2200 O.co2     3 ASP3        0.0000 
     37 OD1       -17.6000   60.9300   74.2100 O.co2     3 ASP3        0.0000 
     38 OD1       -13.8900   65.5200   72.3600 O.co2     3 ASP3        0.0000 
     39 OD1       -12.7400   66.3700   71.9000 O.co2     3 ASP3        0.0000 
     40 OD1       -13.1600   60.4800   74.7200 O.co2     3 ASP3        0.0000 
     41 OD1       -15.1900   60.8400   75.1800 O.co2     3 ASP3        0.0000 
     42 OD1       -14.0400   61.6900   74.7200 O.co2     3 ASP3        0.0000 
     43 OD1       -12.8900   62.5300   74.2600 O.co2     3 ASP3        0.0000 
     44 OD1       -14.9300   62.9000   74.7200 O.co2     3 ASP3        0.0000 
     45 OD1       -12.3700   66.6400   73.3300 O.co2     3 ASP3        0.0000 
     46 OD1       -10.4900   62.4500   75.2200 O.co2     3 ASP3        0.0000 
     47 OD1       -14.8200   61.1200   76.6100 O.co2     3 ASP3        0.0000 
     48 OD1       -11.3700   63.6600   75.2200 O.co2     3 ASP3        0.0000 
     49 OD1       -15.7100   62.3300   76.6100 O.co2     3 ASP3        0.0000 
     50 OD1       -14.5600   63.1700   76.1400 O.co2     3 ASP3        0.0000 
     51 OD1       -13.4100   64.0200   75.6800 O.co2     3 ASP3        0.0000 
     52 OD1       -15.3400   62.6000   78.0300 O.co2     3 ASP3        0.0000 
     53 OD1       -14.1900   63.4500   77.5700 O.co2     3 ASP3        0.0000 
     54 OD1       -13.0400   64.2900   77.1100 O.co2     3 ASP3        0.0000 
     55 OD1       -14.9700   62.8800   79.4600 O.co2     3 ASP3        0.0000 
     56 NZ        -16.5600   63.5500   71.8600 N.4       4 LYS4        0.0000 
     57 NZ        -17.3400   62.9900   73.7500 N.4       4 LYS4        0.0000 
     58 NZ        -16.1900   63.8300   73.2900 N.4       4 LYS4        0.0000 
     59 NZ        -15.0400   64.6800   72.8200 N.4       4 LYS4        0.0000 
     60 NZ        -16.9700   63.2600   75.1800 N.4       4 LYS4        0.0000 
     61 NZ        -15.8200   64.1100   74.7100 N.4       4 LYS4        0.0000 
     62 NZ        -14.6700   64.9500   74.2500 N.4       4 LYS4        0.0000 
     63 NZ        -15.4500   64.3800   76.1400 N.4       4 LYS4        0.0000 
     64 CA        -15.0500   59.0800   72.3300 C.3       5 GLY6        0.0000 
     65 CA        -14.7900   61.1400   71.8600 C.3       5 GLY6        0.0000 
     66 CA        -13.6400   61.9800   71.4000 C.3       5 GLY6        0.0000 
     67 CA        -11.3400   63.6700   70.4800 C.3       5 GLY6        0.0000 
     68 CA        -18.8600   61.8600   72.7800 C.3       5 GLY6        0.0000 
     69 CA        -15.8300   58.5200   74.2200 C.3       5 GLY6        0.0000 
     70 CA        -14.6800   59.3600   73.7600 C.3       5 GLY6        0.0000 
     71 CA        -10.9700   63.9500   71.9000 C.3       5 GLY6        0.0000 
     72 CA        -18.4900   62.1400   74.2100 C.3       5 GLY6        0.0000 
     73 CA         -8.8200   61.8100   73.3400 C.3       5 GLY6        0.0000 
     74 CA        -15.4600   58.7900   75.6500 C.3       5 GLY6        0.0000 
     75 CA        -14.3100   59.6400   75.1800 C.3       5 GLY6        0.0000 
     76 CA         -9.7100   63.0200   73.3300 C.3       5 GLY6        0.0000 
     77 CA         -8.5600   63.8600   72.8700 C.3       5 GLY6        0.0000 
     78 CA        -17.2300   61.2100   75.6400 C.3       5 GLY6        0.0000 
     79 CA         -9.6000   61.2400   75.2300 C.3       5 GLY6        0.0000 
     80 CA        -15.9700   60.2800   77.0700 C.3       5 GLY6        0.0000 
     81 CA        -16.8600   61.4800   77.0700 C.3       5 GLY6        0.0000 
     82 CA        -16.6000   63.5400   76.6000 C.3       5 GLY6        0.0000 
     83 CA        -17.4900   64.7500   76.6000 C.3       5 GLY6        0.0000 
     84 CA        -11.0000   63.9300   76.6500 C.3       5 GLY6        0.0000 
     85 CA        -11.8900   65.1400   76.6500 C.3       5 GLY6        0.0000 
     86 CA        -10.7400   65.9800   76.1800 C.3       5 GLY6        0.0000 
     87 CA        -17.3800   62.9700   78.4900 C.3       5 GLY6        0.0000 
     88 CA        -16.2300   63.8100   78.0300 C.3       5 GLY6        0.0000 
     89 CA        -15.0800   64.6600   77.5700 C.3       5 GLY6        0.0000 
     90 CA        -17.1200   65.0200   78.0300 C.3       5 GLY6        0.0000 
     91 CA        -15.9700   65.8700   77.5700 C.3       5 GLY6        0.0000 
     92 DU        -15.9400   60.2900   72.3300 H         6 CUB7        0.0000 
     93 DU        -16.8300   61.5000   72.3200 H         6 CUB7        0.0000 
     94 DU        -15.6800   62.3500   71.8600 H         6 CUB7        0.0000 
     95 DU        -15.5700   60.5700   73.7500 H         6 CUB7        0.0000 
     96 DU        -14.4200   61.4100   73.2900 H         6 CUB7        0.0000 
     97 DU        -13.2700   62.2600   72.8300 H         6 CUB7        0.0000 
     98 DU        -12.1200   63.1000   72.3700 H         6 CUB7        0.0000 
     99 DU        -16.4500   61.7800   73.7500 H         6 CUB7        0.0000 
    100 DU        -15.3000   62.6200   73.2900 H         6 CUB7        0.0000 
    101 DU        -14.1500   63.4700   72.8300 H         6 CUB7        0.0000 
    102 DU        -13.0000   64.3100   72.3600 H         6 CUB7        0.0000 
    103 DU        -16.3400   60.0000   75.6400 H         6 CUB7        0.0000 
    104 DU        -11.7400   63.3800   73.7900 H         6 CUB7        0.0000 
    105 DU        -10.5900   64.2200   73.3300 H         6 CUB7        0.0000 
    106 DU        -16.0800   62.0500   75.1800 H         6 CUB7        0.0000 
    107 DU        -13.7800   63.7400   74.2500 H         6 CUB7        0.0000 
    108 DU        -12.6300   64.5900   73.7900 H         6 CUB7        0.0000 
    109 DU        -11.4800   65.4300   73.3300 H         6 CUB7        0.0000 
    110 DU         -9.3400   63.2900   74.7600 H         6 CUB7        0.0000 
    111 DU        -10.2200   64.5000   74.7600 H         6 CUB7        0.0000 
@<TRIPOS>BOND
@<TRIPOS>SUBSTRUCTURE
     1 SER1        1 GROUP   
     2 ALA2       10 GROUP   
     3 ASP3       28 GROUP   
     4 LYS4       56 GROUP   
     5 GLY6       64 GROUP   
     6 CUB7       92 GROUP   
@<TRIPOS>SET

