#    Name: 6dhk_3_ADP
#    Modification time : Fri May 22 19:26:39 2020

@<TRIPOS>MOLECULE
6dhk_3_ADP
   27    29     1     0     1
SMALL
NO_CHARGES


@<TRIPOS>ATOM
      1 PB         35.4670  101.6630  213.3870 P.3       1 ADP601      0.0000 
      2 O1B        34.6120  100.7030  212.5940 O.co2     1 ADP601      0.0000 
      3 O2B        34.9150  103.0680  213.4540 O.co2     1 ADP601      0.0000 
      4 O3B        35.9560  101.1240  214.7110 O.co2     1 ADP601      0.0000 
      5 PA         36.9390  102.8830  211.3230 P.3       1 ADP601      0.0000 
      6 O1A        38.0790  102.4630  210.4270 O.co2     1 ADP601      0.0000 
      7 O2A        36.9550  104.2610  211.9420 O.co2     1 ADP601      0.0000 
      8 O3A        36.8090  101.7960  212.5050 O.3       1 ADP601      0.0000 
      9 O5'        35.5590  102.7010  210.5130 O.3       1 ADP601      0.0000 
     10 C5'        35.4220  103.2570  209.2080 C.3       1 ADP601      0.0000 
     11 C4'        33.9470  103.3430  208.8380 C.3       1 ADP601      0.0000 
     12 O4'        33.4720  102.0920  208.3380 O.3       1 ADP601      0.0000 
     13 C3'        33.0880  103.7030  210.0420 C.3       1 ADP601      0.0000 
     14 O3'        32.5100  104.9970  209.8490 O.3       1 ADP601      0.0000 
     15 C2'        31.9990  102.6500  210.0960 C.3       1 ADP601      0.0000 
     16 O2'        30.7130  103.2630  210.2210 O.3       1 ADP601      0.0000 
     17 C1'        32.1250  101.9060  208.7740 C.3       1 ADP601      0.0000 
     18 N9         31.7910  100.4630  208.8990 N.pl3     1 ADP601      0.0000 
     19 C8         32.2050   99.6140  209.8590 C.2       1 ADP601      0.0000 
     20 N7         31.6990   98.3680  209.6590 N.2       1 ADP601      0.0000 
     21 C5         30.9370   98.4110  208.5480 C.ar      1 ADP601      0.0000 
     22 C6         30.1120   97.4550  207.7680 C.ar      1 ADP601      0.0000 
     23 N6         29.9920   96.1580  208.1440 N.pl3     1 ADP601      0.0000 
     24 N1         29.4820   97.9180  206.6660 N.ar      1 ADP601      0.0000 
     25 C2         29.5890   99.2010  206.2770 C.ar      1 ADP601      0.0000 
     26 N3         30.3170  100.1210  206.9340 N.ar      1 ADP601      0.0000 
     27 C4         31.0000   99.7960  208.0570 C.ar      1 ADP601      0.0000 
@<TRIPOS>BOND
     1    1    2 ar   
     2    1    3 ar   
     3    1    4 ar   
     4    1    8 1    
     5    5    6 ar   
     6    5    7 ar   
     7    5    8 1    
     8    5    9 1    
     9    9   10 1    
    10   10   11 1    
    11   11   12 1    
    12   11   13 1    
    13   12   17 1    
    14   13   14 1    
    15   13   15 1    
    16   15   16 1    
    17   15   17 1    
    18   17   18 1    
    19   18   19 1    
    20   18   27 1    
    21   19   20 2    
    22   20   21 1    
    23   21   22 ar   
    24   21   27 ar   
    25   22   23 1    
    26   22   24 ar   
    27   24   25 ar   
    28   25   26 ar   
    29   26   27 ar   
@<TRIPOS>SUBSTRUCTURE
     1 ADP601      1 GROUP   
@<TRIPOS>SET
ATOM$ORANGE STATIC     ATOMS   COLORGROUP SYSTEM 
20 10 10 11 11 13 13 15 15 17 17 19 19 21 21 22 22 25 \
25 27 27 

