#    Name: 6dhk_7_ADP
#    Modification time : Fri May 22 19:28:00 2020

@<TRIPOS>MOLECULE
6dhk_7_ADP
   27    29     1     0     1
SMALL
NO_CHARGES


@<TRIPOS>ATOM
      1 PB         33.5710   53.4600  113.2490 P.3       1 ADP601      0.0000 
      2 O1B        34.0220   54.6600  112.4510 O.co2     1 ADP601      0.0000 
      3 O2B        34.6780   52.4910  113.5860 O.co2     1 ADP601      0.0000 
      4 O3B        32.6730   53.7940  114.4170 O.co2     1 ADP601      0.0000 
      5 PA         33.0960   51.7340  111.0260 P.3       1 ADP601      0.0000 
      6 O1A        31.8980   51.0000  110.4740 O.co2     1 ADP601      0.0000 
      7 O2A        34.2890   50.9250  111.4780 O.co2     1 ADP601      0.0000 
      8 O3A        32.5910   52.6800  112.2320 O.3       1 ADP601      0.0000 
      9 O5'        33.6060   52.7940  109.9280 O.3       1 ADP601      0.0000 
     10 C5'        34.1310   52.3330  108.6870 C.3       1 ADP601      0.0000 
     11 C4'        35.5010   52.9620  108.4770 C.3       1 ADP601      0.0000 
     12 O4'        35.3930   54.2190  107.8070 O.3       1 ADP601      0.0000 
     13 C3'        36.1930   53.2200  109.8090 C.3       1 ADP601      0.0000 
     14 O3'        37.2870   52.3140  109.9870 O.3       1 ADP601      0.0000 
     15 C2'        36.6890   54.6520  109.7450 C.3       1 ADP601      0.0000 
     16 O2'        38.0950   54.7080  110.0010 O.3       1 ADP601      0.0000 
     17 C1'        36.3710   55.1200  108.3310 C.3       1 ADP601      0.0000 
     18 N9         35.8550   56.5120  108.3320 N.pl3     1 ADP601      0.0000 
     19 C8         34.9880   57.0360  109.2180 C.2       1 ADP601      0.0000 
     20 N7         34.7280   58.3390  108.9370 N.2       1 ADP601      0.0000 
     21 C5         35.4450   58.6700  107.8470 C.ar      1 ADP601      0.0000 
     22 C6         35.6350   59.8870  107.0200 C.ar      1 ADP601      0.0000 
     23 N6         34.9910   61.0450  107.3080 N.pl3     1 ADP601      0.0000 
     24 N1         36.4750   59.8060  105.9650 N.ar      1 ADP601      0.0000 
     25 C2         37.1200   58.6660  105.6680 C.ar      1 ADP601      0.0000 
     26 N3         36.9970   57.5250  106.3700 N.ar      1 ADP601      0.0000 
     27 C4         36.1900   57.4640  107.4560 C.ar      1 ADP601      0.0000 
@<TRIPOS>BOND
     1    1    2 ar   
     2    1    3 ar   
     3    1    4 ar   
     4    1    8 1    
     5    5    6 ar   
     6    5    7 ar   
     7    5    8 1    
     8    5    9 1    
     9    9   10 1    
    10   10   11 1    
    11   11   12 1    
    12   11   13 1    
    13   12   17 1    
    14   13   14 1    
    15   13   15 1    
    16   15   16 1    
    17   15   17 1    
    18   17   18 1    
    19   18   19 1    
    20   18   27 1    
    21   19   20 2    
    22   20   21 1    
    23   21   22 ar   
    24   21   27 ar   
    25   22   23 1    
    26   22   24 ar   
    27   24   25 ar   
    28   25   26 ar   
    29   26   27 ar   
@<TRIPOS>SUBSTRUCTURE
     1 ADP601      1 GROUP   
@<TRIPOS>SET
ATOM$ORANGE STATIC     ATOMS   COLORGROUP SYSTEM 
20 10 10 11 11 13 13 15 15 17 17 19 19 21 21 22 22 25 \
25 27 27 

