#    Name: 6dhk_2_ADP
#    Modification time : Fri May 22 19:26:19 2020

@<TRIPOS>MOLECULE
6dhk_2_ADP
   27    29     1     0     1
SMALL
NO_CHARGES


@<TRIPOS>ATOM
      1 PB         48.3490   78.6580  162.8710 P.3       1 ADP601      0.0000 
      2 O1B        48.7230   78.7770  161.4130 O.co2     1 ADP601      0.0000 
      3 O2B        48.5750   79.9220  163.6680 O.co2     1 ADP601      0.0000 
      4 O3B        48.8660   77.4090  163.5440 O.co2     1 ADP601      0.0000 
      5 PA         45.8100   78.7800  164.1180 P.3       1 ADP601      0.0000 
      6 O1A        44.5860   77.8990  164.0480 O.co2     1 ADP601      0.0000 
      7 O2A        46.6730   78.8060  165.3570 O.co2     1 ADP601      0.0000 
      8 O3A        46.7430   78.4920  162.8330 O.3       1 ADP601      0.0000 
      9 O5'        45.3690   80.2980  163.8140 O.3       1 ADP601      0.0000 
     10 C5'        45.3700   81.2710  164.8570 C.3       1 ADP601      0.0000 
     11 C4'        45.3960   82.6710  164.2540 C.3       1 ADP601      0.0000 
     12 O4'        46.1750   83.5390  165.0810 O.3       1 ADP601      0.0000 
     13 C3'        46.0270   82.6970  162.8680 C.3       1 ADP601      0.0000 
     14 O3'        45.0440   83.0820  161.9020 O.3       1 ADP601      0.0000 
     15 C2'        47.1200   83.7460  162.9230 C.3       1 ADP601      0.0000 
     16 O2'        46.9810   84.6760  161.8450 O.3       1 ADP601      0.0000 
     17 C1'        46.9160   84.4420  164.2580 C.3       1 ADP601      0.0000 
     18 N9         48.2080   84.8130  164.8880 N.pl3     1 ADP601      0.0000 
     19 C8         49.2700   84.0120  165.0990 C.2       1 ADP601      0.0000 
     20 N7         50.2850   84.6930  165.6960 N.2       1 ADP601      0.0000 
     21 C5         49.8710   85.9630  165.8720 C.ar      1 ADP601      0.0000 
     22 C6         50.4370   87.2110  166.4400 C.ar      1 ADP601      0.0000 
     23 N6         51.6900   87.2450  166.9580 N.pl3     1 ADP601      0.0000 
     24 N1         49.6600   88.3180  166.4240 N.ar      1 ADP601      0.0000 
     25 C2         48.4140   88.3040  165.9130 C.ar      1 ADP601      0.0000 
     26 N3         47.8380   87.2120  165.3840 N.ar      1 ADP601      0.0000 
     27 C4         48.5050   86.0340  165.3330 C.ar      1 ADP601      0.0000 
@<TRIPOS>BOND
     1    1    2 ar   
     2    1    3 ar   
     3    1    4 ar   
     4    1    8 1    
     5    5    6 ar   
     6    5    7 ar   
     7    5    8 1    
     8    5    9 1    
     9    9   10 1    
    10   10   11 1    
    11   11   12 1    
    12   11   13 1    
    13   12   17 1    
    14   13   14 1    
    15   13   15 1    
    16   15   16 1    
    17   15   17 1    
    18   17   18 1    
    19   18   19 1    
    20   18   27 1    
    21   19   20 2    
    22   20   21 1    
    23   21   22 ar   
    24   21   27 ar   
    25   22   23 1    
    26   22   24 ar   
    27   24   25 ar   
    28   25   26 ar   
    29   26   27 ar   
@<TRIPOS>SUBSTRUCTURE
     1 ADP601      1 GROUP   
@<TRIPOS>SET
ATOM$ORANGE STATIC     ATOMS   COLORGROUP SYSTEM 
20 10 10 11 11 13 13 15 15 17 17 19 19 21 21 22 22 25 \
25 27 27 

