#    Name: 6dhk_5_ADP
#    Modification time : Fri May 22 19:27:19 2020

@<TRIPOS>MOLECULE
6dhk_5_ADP
   27    29     1     0     1
SMALL
NO_CHARGES


@<TRIPOS>ATOM
      1 PB         61.7170  101.3610  215.5190 P.3       1 ADP601      0.0000 
      2 O1B        62.3530  101.6200  214.1730 O.co2     1 ADP601      0.0000 
      3 O2B        62.6900  101.3680  216.6760 O.co2     1 ADP601      0.0000 
      4 O3B        60.4490  102.1450  215.7620 O.co2     1 ADP601      0.0000 
      5 PA         62.2580   98.6030  215.5050 P.3       1 ADP601      0.0000 
      6 O1A        61.6080   97.4020  214.8590 O.co2     1 ADP601      0.0000 
      7 O2A        62.7780   98.5000  216.9190 O.co2     1 ADP601      0.0000 
      8 O3A        61.2160   99.8300  215.4330 O.3       1 ADP601      0.0000 
      9 O5'        63.4510   99.1170  214.5550 O.3       1 ADP601      0.0000 
     10 C5'        64.4090   98.2050  214.0280 C.3       1 ADP601      0.0000 
     11 C4'        65.4630   98.9710  213.2370 C.3       1 ADP601      0.0000 
     12 O4'        65.0080   99.2470  211.9090 O.3       1 ADP601      0.0000 
     13 C3'        65.8080  100.3120  213.8750 C.3       1 ADP601      0.0000 
     14 O3'        67.1740  100.3030  214.2990 O.3       1 ADP601      0.0000 
     15 C2'        65.6290  101.3430  212.7770 C.3       1 ADP601      0.0000 
     16 O2'        66.7400  102.2410  212.7340 O.3       1 ADP601      0.0000 
     17 C1'        65.5550  100.5050  211.5110 C.3       1 ADP601      0.0000 
     18 N9         64.7740  101.1560  210.4260 N.pl3     1 ADP601      0.0000 
     19 C8         63.5130  101.6270  210.4840 C.2       1 ADP601      0.0000 
     20 N7         63.1400  102.1610  209.2890 N.2       1 ADP601      0.0000 
     21 C5         64.1810  102.0350  208.4430 C.ar      1 ADP601      0.0000 
     22 C6         64.4740  102.3830  207.0300 C.ar      1 ADP601      0.0000 
     23 N6         63.5530  102.9940  206.2460 N.pl3     1 ADP601      0.0000 
     24 N1         65.6960  102.0700  206.5450 N.ar      1 ADP601      0.0000 
     25 C2         66.6260  101.4640  207.3040 C.ar      1 ADP601      0.0000 
     26 N3         66.4300  101.1190  208.5880 N.ar      1 ADP601      0.0000 
     27 C4         65.2520  101.3770  209.2020 C.ar      1 ADP601      0.0000 
@<TRIPOS>BOND
     1    1    2 ar   
     2    1    3 ar   
     3    1    4 ar   
     4    1    8 1    
     5    5    6 ar   
     6    5    7 ar   
     7    5    8 1    
     8    5    9 1    
     9    9   10 1    
    10   10   11 1    
    11   11   12 1    
    12   11   13 1    
    13   12   17 1    
    14   13   14 1    
    15   13   15 1    
    16   15   16 1    
    17   15   17 1    
    18   17   18 1    
    19   18   19 1    
    20   18   27 1    
    21   19   20 2    
    22   20   21 1    
    23   21   22 ar   
    24   21   27 ar   
    25   22   23 1    
    26   22   24 ar   
    27   24   25 ar   
    28   25   26 ar   
    29   26   27 ar   
@<TRIPOS>SUBSTRUCTURE
     1 ADP601      1 GROUP   
@<TRIPOS>SET
ATOM$ORANGE STATIC     ATOMS   COLORGROUP SYSTEM 
20 10 10 11 11 13 13 15 15 17 17 19 19 21 21 22 22 25 \
25 27 27 

