#    Name: 6dhk_11_ADP
#    Modification time : Fri May 22 19:29:24 2020

@<TRIPOS>MOLECULE
6dhk_11_ADP
   27    29     1     0     1
SMALL
NO_CHARGES


@<TRIPOS>ATOM
      1 PB          4.3690   85.7610   73.4030 P.3       1 ADP601      0.0000 
      2 O1B         4.2800   86.5870   72.1470 O.co2     1 ADP601      0.0000 
      3 O2B         5.2660   86.3480   74.4670 O.co2     1 ADP601      0.0000 
      4 O3B         4.5710   84.2830   73.1660 O.co2     1 ADP601      0.0000 
      5 PA          2.5270   85.2770   75.4600 P.3       1 ADP601      0.0000 
      6 O1A         1.0760   84.8560   75.4590 O.co2     1 ADP601      0.0000 
      7 O2A         3.6180   84.3080   75.8510 O.co2     1 ADP601      0.0000 
      8 O3A         2.8890   85.9040   74.0240 O.3       1 ADP601      0.0000 
      9 O5'         2.6920   86.5700   76.4010 O.3       1 ADP601      0.0000 
     10 C5'         2.9750   86.4100   77.7880 C.3       1 ADP601      0.0000 
     11 C4'         3.7940   87.5970   78.2780 C.3       1 ADP601      0.0000 
     12 O4'         5.0360   87.1450   78.8200 O.3       1 ADP601      0.0000 
     13 C3'         4.1320   88.5740   77.1590 C.3       1 ADP601      0.0000 
     14 O3'         3.4000   89.7910   77.3340 O.3       1 ADP601      0.0000 
     15 C2'         5.6190   88.8470   77.2830 C.3       1 ADP601      0.0000 
     16 O2'         5.8610   90.2520   77.4000 O.3       1 ADP601      0.0000 
     17 C1'         6.0420   88.1230   78.5530 C.3       1 ADP601      0.0000 
     18 N9          7.3900   87.5100   78.4170 N.pl3     1 ADP601      0.0000 
     19 C8          7.8130   86.6920   77.4340 C.2       1 ADP601      0.0000 
     20 N7          9.1090   86.3280   77.6260 N.2       1 ADP601      0.0000 
     21 C5          9.5360   86.9240   78.7560 C.ar      1 ADP601      0.0000 
     22 C6         10.7960   86.9710   79.5400 C.ar      1 ADP601      0.0000 
     23 N6         11.8990   86.2870   79.1490 N.pl3     1 ADP601      0.0000 
     24 N1         10.8100   87.7210   80.6640 N.ar      1 ADP601      0.0000 
     25 C2          9.7260   88.4080   81.0690 C.ar      1 ADP601      0.0000 
     26 N3          8.5540   88.4120   80.4110 N.ar      1 ADP601      0.0000 
     27 C4          8.3990   87.7050   79.2670 C.ar      1 ADP601      0.0000 
@<TRIPOS>BOND
     1    1    2 ar   
     2    1    3 ar   
     3    1    4 ar   
     4    1    8 1    
     5    5    6 ar   
     6    5    7 ar   
     7    5    8 1    
     8    5    9 1    
     9    9   10 1    
    10   10   11 1    
    11   11   12 1    
    12   11   13 1    
    13   12   17 1    
    14   13   14 1    
    15   13   15 1    
    16   15   16 1    
    17   15   17 1    
    18   17   18 1    
    19   18   19 1    
    20   18   27 1    
    21   19   20 2    
    22   20   21 1    
    23   21   22 ar   
    24   21   27 ar   
    25   22   23 1    
    26   22   24 ar   
    27   24   25 ar   
    28   25   26 ar   
    29   26   27 ar   
@<TRIPOS>SUBSTRUCTURE
     1 ADP601      1 GROUP   
@<TRIPOS>SET
ATOM$ORANGE STATIC     ATOMS   COLORGROUP SYSTEM 
20 10 10 11 11 13 13 15 15 17 17 19 19 21 21 22 22 25 \
25 27 27 

