#    Name: 6dhk_9_ADP
#    Modification time : Fri May 22 19:28:41 2020

@<TRIPOS>MOLECULE
6dhk_9_ADP
   27    29     1     0     1
SMALL
NO_CHARGES


@<TRIPOS>ATOM
      1 PB        -12.6200   66.0500   71.3080 P.3       1 ADP601      0.0000 
      2 O1B       -13.2130   65.8440   69.9350 O.co2     1 ADP601      0.0000 
      3 O2B       -13.5230   65.6430   72.4480 O.co2     1 ADP601      0.0000 
      4 O3B       -11.9530   67.3930   71.4930 O.co2     1 ADP601      0.0000 
      5 PA        -11.6010   63.4190   71.1700 P.3       1 ADP601      0.0000 
      6 O1A       -12.7010   63.2030   70.1570 O.co2     1 ADP601      0.0000 
      7 O2A       -10.2430   62.8110   70.9130 O.co2     1 ADP601      0.0000 
      8 O3A       -11.4000   65.0010   71.4080 O.3       1 ADP601      0.0000 
      9 O5'       -12.1500   62.9260   72.6020 O.3       1 ADP601      0.0000 
     10 C5'       -12.2200   61.5350   72.9000 C.3       1 ADP601      0.0000 
     11 C4'       -13.5880   61.1910   73.4810 C.3       1 ADP601      0.0000 
     12 O4'       -13.6540   61.4980   74.8740 O.3       1 ADP601      0.0000 
     13 C3'       -14.7110   61.9600   72.7990 C.3       1 ADP601      0.0000 
     14 O3'       -15.4810   61.0750   71.9810 O.3       1 ADP601      0.0000 
     15 C2'       -15.5710   62.5170   73.9180 C.3       1 ADP601      0.0000 
     16 O2'       -16.9250   62.0810   73.7680 O.3       1 ADP601      0.0000 
     17 C1'       -14.9670   61.9600   75.1990 C.3       1 ADP601      0.0000 
     18 N9        -14.8920   62.9900   76.2660 N.pl3     1 ADP601      0.0000 
     19 C8        -14.3020   64.1960   76.1700 C.2       1 ADP601      0.0000 
     20 N7        -14.4140   64.8900   77.3330 N.2       1 ADP601      0.0000 
     21 C5        -15.0930   64.1170   78.2010 C.ar      1 ADP601      0.0000 
     22 C6        -15.5590   64.2350   79.6050 C.ar      1 ADP601      0.0000 
     23 N6        -15.3180   65.3500   80.3360 N.pl3     1 ADP601      0.0000 
     24 N1        -16.2360   63.1910   80.1330 N.ar      1 ADP601      0.0000 
     25 C2        -16.4860   62.0780   79.4200 C.ar      1 ADP601      0.0000 
     26 N3        -16.0930   61.9000   78.1460 N.ar      1 ADP601      0.0000 
     27 C4        -15.4070   62.8670   77.4910 C.ar      1 ADP601      0.0000 
@<TRIPOS>BOND
     1    1    2 ar   
     2    1    3 ar   
     3    1    4 ar   
     4    1    8 1    
     5    5    6 ar   
     6    5    7 ar   
     7    5    8 1    
     8    5    9 1    
     9    9   10 1    
    10   10   11 1    
    11   11   12 1    
    12   11   13 1    
    13   12   17 1    
    14   13   14 1    
    15   13   15 1    
    16   15   16 1    
    17   15   17 1    
    18   17   18 1    
    19   18   19 1    
    20   18   27 1    
    21   19   20 2    
    22   20   21 1    
    23   21   22 ar   
    24   21   27 ar   
    25   22   23 1    
    26   22   24 ar   
    27   24   25 ar   
    28   25   26 ar   
    29   26   27 ar   
@<TRIPOS>SUBSTRUCTURE
     1 ADP601      1 GROUP   
@<TRIPOS>SET
ATOM$ORANGE STATIC     ATOMS   COLORGROUP SYSTEM 
20 10 10 11 11 13 13 15 15 17 17 19 19 21 21 22 22 25 \
25 27 27 

