#    Name: 6dhk_6_ADP
#    Modification time : Fri May 22 19:27:38 2020

@<TRIPOS>MOLECULE
6dhk_6_ADP
   27    29     1     0     1
SMALL
NO_CHARGES


@<TRIPOS>ATOM
      1 PB         39.2020   57.2650  175.3120 P.3       1 ADP601      0.0000 
      2 O1B        40.1260   58.1030  174.4610 O.co2     1 ADP601      0.0000 
      3 O2B        38.6250   57.9890  176.5070 O.co2     1 ADP601      0.0000 
      4 O3B        38.1750   56.4780  174.5350 O.co2     1 ADP601      0.0000 
      5 PA         41.1500   56.3550  177.1770 P.3       1 ADP601      0.0000 
      6 O1A        42.4780   55.7060  176.8680 O.co2     1 ADP601      0.0000 
      7 O2A        41.0830   57.8010  177.6080 O.co2     1 ADP601      0.0000 
      8 O3A        40.1460   56.1140  175.9360 O.3       1 ADP601      0.0000 
      9 O5'        40.3840   55.4800  178.2900 O.3       1 ADP601      0.0000 
     10 C5'        39.9200   56.0820  179.4960 C.3       1 ADP601      0.0000 
     11 C4'        38.5670   55.4780  179.8490 C.3       1 ADP601      0.0000 
     12 O4'        37.7460   56.4660  180.4780 O.3       1 ADP601      0.0000 
     13 C3'        37.8300   55.0090  178.6010 C.3       1 ADP601      0.0000 
     14 O3'        37.5370   53.6130  178.7060 O.3       1 ADP601      0.0000 
     15 C2'        36.5370   55.7980  178.5590 C.3       1 ADP601      0.0000 
     16 O2'        35.4220   54.9500  178.2720 O.3       1 ADP601      0.0000 
     17 C1'        36.4200   56.4080  179.9460 C.3       1 ADP601      0.0000 
     18 N9         35.7860   57.7490  179.8650 N.pl3     1 ADP601      0.0000 
     19 C8         36.0410   58.6960  178.9430 C.2       1 ADP601      0.0000 
     20 N7         35.2750   59.8000  179.1510 N.2       1 ADP601      0.0000 
     21 C5         34.5010   59.5590  180.2270 C.ar      1 ADP601      0.0000 
     22 C6         33.4640   60.2980  180.9890 C.ar      1 ADP601      0.0000 
     23 N6         33.0890   61.5510  180.6350 N.pl3     1 ADP601      0.0000 
     24 N1         32.9040   59.6800  182.0520 N.ar      1 ADP601      0.0000 
     25 C2         33.2650   58.4360  182.4160 C.ar      1 ADP601      0.0000 
     26 N3         34.1960   57.7080  181.7720 N.ar      1 ADP601      0.0000 
     27 C4         34.8370   58.2030  180.6870 C.ar      1 ADP601      0.0000 
@<TRIPOS>BOND
     1    1    2 ar   
     2    1    3 ar   
     3    1    4 ar   
     4    1    8 1    
     5    5    6 ar   
     6    5    7 ar   
     7    5    8 1    
     8    5    9 1    
     9    9   10 1    
    10   10   11 1    
    11   11   12 1    
    12   11   13 1    
    13   12   17 1    
    14   13   14 1    
    15   13   15 1    
    16   15   16 1    
    17   15   17 1    
    18   17   18 1    
    19   18   19 1    
    20   18   27 1    
    21   19   20 2    
    22   20   21 1    
    23   21   22 ar   
    24   21   27 ar   
    25   22   23 1    
    26   22   24 ar   
    27   24   25 ar   
    28   25   26 ar   
    29   26   27 ar   
@<TRIPOS>SUBSTRUCTURE
     1 ADP601      1 GROUP   
@<TRIPOS>SET
ATOM$ORANGE STATIC     ATOMS   COLORGROUP SYSTEM 
20 10 10 11 11 13 13 15 15 17 17 19 19 21 21 22 22 25 \
25 27 27 

