#    Name: 6dhk_8_ADP
#    Modification time : Fri May 22 19:28:20 2020

@<TRIPOS>MOLECULE
6dhk_8_ADP
   27    29     1     0     1
SMALL
NO_CHARGES


@<TRIPOS>ATOM
      1 PB         12.7540   37.8400  114.0400 P.3       1 ADP601      0.0000 
      2 O1B        13.3420   39.1000  113.4480 O.co2     1 ADP601      0.0000 
      3 O2B        12.4920   37.8830  115.5270 O.co2     1 ADP601      0.0000 
      4 O3B        13.4340   36.5710  113.5870 O.co2     1 ADP601      0.0000 
      5 PA         10.1370   38.8550  113.6080 P.3       1 ADP601      0.0000 
      6 O1A        10.4020   39.9860  112.6420 O.co2     1 ADP601      0.0000 
      7 O2A         9.9660   39.1280  115.0850 O.co2     1 ADP601      0.0000 
      8 O3A        11.2810   37.7380  113.3980 O.3       1 ADP601      0.0000 
      9 O5'         8.8680   38.0130  113.0920 O.3       1 ADP601      0.0000 
     10 C5'         8.4350   38.1140  111.7390 C.3       1 ADP601      0.0000 
     11 C4'         8.0880   36.7130  111.2550 C.3       1 ADP601      0.0000 
     12 O4'         8.4200   36.5840  109.8700 O.3       1 ADP601      0.0000 
     13 C3'         8.8980   35.6700  112.0110 C.3       1 ADP601      0.0000 
     14 O3'         8.0160   34.6920  112.5700 O.3       1 ADP601      0.0000 
     15 C2'         9.7950   35.0180  110.9780 C.3       1 ADP601      0.0000 
     16 O2'         9.8620   33.6030  111.1770 O.3       1 ADP601      0.0000 
     17 C1'         9.1330   35.3640  109.6540 C.3       1 ADP601      0.0000 
     18 N9         10.1250   35.4990  108.5560 N.pl3     1 ADP601      0.0000 
     19 C8         11.3470   36.0610  108.6350 C.2       1 ADP601      0.0000 
     20 N7         11.9900   36.0040  107.4380 N.2       1 ADP601      0.0000 
     21 C5         11.1690   35.3870  106.5660 C.ar      1 ADP601      0.0000 
     22 C6         11.2160   34.9980  105.1340 C.ar      1 ADP601      0.0000 
     23 N6         12.3020   35.2620  104.3680 N.pl3     1 ADP601      0.0000 
     24 N1         10.1380   34.3680  104.6170 N.ar      1 ADP601      0.0000 
     25 C2          9.0510   34.0960  105.3620 C.ar      1 ADP601      0.0000 
     26 N3          8.9390   34.4200  106.6630 N.ar      1 ADP601      0.0000 
     27 C4          9.9460   35.0520  107.3110 C.ar      1 ADP601      0.0000 
@<TRIPOS>BOND
     1    1    2 ar   
     2    1    3 ar   
     3    1    4 ar   
     4    1    8 1    
     5    5    6 ar   
     6    5    7 ar   
     7    5    8 1    
     8    5    9 1    
     9    9   10 1    
    10   10   11 1    
    11   11   12 1    
    12   11   13 1    
    13   12   17 1    
    14   13   14 1    
    15   13   15 1    
    16   15   16 1    
    17   15   17 1    
    18   17   18 1    
    19   18   19 1    
    20   18   27 1    
    21   19   20 2    
    22   20   21 1    
    23   21   22 ar   
    24   21   27 ar   
    25   22   23 1    
    26   22   24 ar   
    27   24   25 ar   
    28   25   26 ar   
    29   26   27 ar   
@<TRIPOS>SUBSTRUCTURE
     1 ADP601      1 GROUP   
@<TRIPOS>SET
ATOM$ORANGE STATIC     ATOMS   COLORGROUP SYSTEM 
20 10 10 11 11 13 13 15 15 17 17 19 19 21 21 22 22 25 \
25 27 27 

