#    Name: 6dhk_4_ADP
#    Modification time : Fri May 22 19:26:58 2020

@<TRIPOS>MOLECULE
6dhk_4_ADP
   27    29     1     0     1
SMALL
NO_CHARGES


@<TRIPOS>ATOM
      1 PB         47.5860   82.1940  225.9700 P.3       1 ADP602      0.0000 
      2 O1B        48.5120   83.2440  225.4080 O.co2     1 ADP602      0.0000 
      3 O2B        46.9830   82.5620  227.3050 O.co2     1 ADP602      0.0000 
      4 O3B        48.1180   80.7830  225.8870 O.co2     1 ADP602      0.0000 
      5 PA         44.9590   81.4690  225.1630 P.3       1 ADP602      0.0000 
      6 O1A        44.0130   81.9050  224.0680 O.co2     1 ADP602      0.0000 
      7 O2A        44.5420   81.6410  226.6050 O.co2     1 ADP602      0.0000 
      8 O3A        46.3700   82.2030  224.9140 O.3       1 ADP602      0.0000 
      9 O5'        45.3840   79.9360  224.9330 O.3       1 ADP602      0.0000 
     10 C5'        44.3970   78.9400  224.7010 C.3       1 ADP602      0.0000 
     11 C4'        44.7570   77.6890  225.4890 C.3       1 ADP602      0.0000 
     12 O4'        45.5910   76.8320  224.7100 O.3       1 ADP602      0.0000 
     13 C3'        45.5240   78.0250  226.7590 C.3       1 ADP602      0.0000 
     14 O3'        44.6630   77.9870  227.9010 O.3       1 ADP602      0.0000 
     15 C2'        46.6050   76.9670  226.8640 C.3       1 ADP602      0.0000 
     16 O2'        46.3080   76.0780  227.9450 O.3       1 ADP602      0.0000 
     17 C1'        46.5750   76.2140  225.5410 C.3       1 ADP602      0.0000 
     18 N9         47.9060   76.3070  224.8900 N.pl3     1 ADP602      0.0000 
     19 C8         48.6340   77.4320  224.7630 C.2       1 ADP602      0.0000 
     20 N7         49.8070   77.1890  224.1250 N.2       1 ADP602      0.0000 
     21 C5         49.8420   75.8750  223.8350 C.ar      1 ADP602      0.0000 
     22 C6         50.7950   74.9560  223.1680 C.ar      1 ADP602      0.0000 
     23 N6         51.9730   75.4080  222.6730 N.pl3     1 ADP602      0.0000 
     24 N1         50.4470   73.6530  223.0710 N.ar      1 ADP602      0.0000 
     25 C2         49.2800   73.1940  223.5600 C.ar      1 ADP602      0.0000 
     26 N3         48.3690   73.9700  224.1770 N.ar      1 ADP602      0.0000 
     27 C4         48.5890   75.2960  224.3460 C.ar      1 ADP602      0.0000 
@<TRIPOS>BOND
     1    1    2 ar   
     2    1    3 ar   
     3    1    4 ar   
     4    1    8 1    
     5    5    6 ar   
     6    5    7 ar   
     7    5    8 1    
     8    5    9 1    
     9    9   10 1    
    10   10   11 1    
    11   11   12 1    
    12   11   13 1    
    13   12   17 1    
    14   13   14 1    
    15   13   15 1    
    16   15   16 1    
    17   15   17 1    
    18   17   18 1    
    19   18   19 1    
    20   18   27 1    
    21   19   20 2    
    22   20   21 1    
    23   21   22 ar   
    24   21   27 ar   
    25   22   23 1    
    26   22   24 ar   
    27   24   25 ar   
    28   25   26 ar   
    29   26   27 ar   
@<TRIPOS>SUBSTRUCTURE
     1 ADP602      1 GROUP   
@<TRIPOS>SET
ATOM$ORANGE STATIC     ATOMS   COLORGROUP SYSTEM 
20 10 10 11 11 13 13 15 15 17 17 19 19 21 21 22 22 25 \
25 27 27 

