#    Name: 6dhk_10_ADP
#    Modification time : Fri May 22 19:29:01 2020

@<TRIPOS>MOLECULE
6dhk_10_ADP
   27    29     1     0     1
SMALL
NO_CHARGES


@<TRIPOS>ATOM
      1 PB         10.8790   63.1730   62.5020 P.3       1 ADP601      0.0000 
      2 O1B        10.7440   63.2270   60.9980 O.co2     1 ADP601      0.0000 
      3 O2B        11.5930   61.9430   63.0130 O.co2     1 ADP601      0.0000 
      4 O3B         9.6040   63.5010   63.2430 O.co2     1 ADP601      0.0000 
      5 PA         13.1830   64.7770   62.0490 P.3       1 ADP601      0.0000 
      6 O1A        12.8200   64.8700   60.5860 O.co2     1 ADP601      0.0000 
      7 O2A        13.8200   65.9810   62.7030 O.co2     1 ADP601      0.0000 
      8 O3A        11.8710   64.3820   62.9030 O.3       1 ADP601      0.0000 
      9 O5'        14.1510   63.5040   62.2420 O.3       1 ADP601      0.0000 
     10 C5'        15.0190   63.0850   61.1900 C.3       1 ADP601      0.0000 
     11 C4'        16.0780   62.1460   61.7530 C.3       1 ADP601      0.0000 
     12 O4'        15.5640   61.4050   62.8620 O.3       1 ADP601      0.0000 
     13 C3'        16.5550   61.1240   60.7320 C.3       1 ADP601      0.0000 
     14 O3'        17.8050   61.5210   60.1600 O.3       1 ADP601      0.0000 
     15 C2'        16.7160   59.8320   61.5100 C.3       1 ADP601      0.0000 
     16 O2'        18.0980   59.4680   61.5760 O.3       1 ADP601      0.0000 
     17 C1'        16.1920   60.1210   62.9090 C.3       1 ADP601      0.0000 
     18 N9         15.2320   59.0650   63.3220 N.pl3     1 ADP601      0.0000 
     19 C8         13.8880   59.1370   63.2630 C.2       1 ADP601      0.0000 
     20 N7         13.3160   57.9920   63.7210 N.2       1 ADP601      0.0000 
     21 C5         14.3100   57.1600   64.0850 C.ar      1 ADP601      0.0000 
     22 C6         14.4130   55.7910   64.6500 C.ar      1 ADP601      0.0000 
     23 N6         13.3070   55.0590   64.9280 N.pl3     1 ADP601      0.0000 
     24 N1         15.6500   55.2970   64.8810 N.ar      1 ADP601      0.0000 
     25 C2         16.7590   56.0120   64.6120 C.ar      1 ADP601      0.0000 
     26 N3         16.7410   57.2560   64.1000 N.ar      1 ADP601      0.0000 
     27 C4         15.5690   57.8740   63.8210 C.ar      1 ADP601      0.0000 
@<TRIPOS>BOND
     1    1    2 ar   
     2    1    3 ar   
     3    1    4 ar   
     4    1    8 1    
     5    5    6 ar   
     6    5    7 ar   
     7    5    8 1    
     8    5    9 1    
     9    9   10 1    
    10   10   11 1    
    11   11   12 1    
    12   11   13 1    
    13   12   17 1    
    14   13   14 1    
    15   13   15 1    
    16   15   16 1    
    17   15   17 1    
    18   17   18 1    
    19   18   19 1    
    20   18   27 1    
    21   19   20 2    
    22   20   21 1    
    23   21   22 ar   
    24   21   27 ar   
    25   22   23 1    
    26   22   24 ar   
    27   24   25 ar   
    28   25   26 ar   
    29   26   27 ar   
@<TRIPOS>SUBSTRUCTURE
     1 ADP601      1 GROUP   
@<TRIPOS>SET
ATOM$ORANGE STATIC     ATOMS   COLORGROUP SYSTEM 
20 10 10 11 11 13 13 15 15 17 17 19 19 21 21 22 22 25 \
25 27 27 

