#    Name: 6dhk_12_ADP
#    Modification time : Fri May 22 19:29:42 2020

@<TRIPOS>MOLECULE
6dhk_12_ADP
   27    29     1     0     1
SMALL
NO_CHARGES


@<TRIPOS>ATOM
      1 PB         11.2900   61.2460  124.3480 P.3       1 ADP601      0.0000 
      2 O1B        11.9300   60.2120  123.4540 O.co2     1 ADP601      0.0000 
      3 O2B        10.2280   62.0760  123.6660 O.co2     1 ADP601      0.0000 
      4 O3B        10.8890   60.7230  125.7060 O.co2     1 ADP601      0.0000 
      5 PA         13.1970   63.1730  123.5390 P.3       1 ADP601      0.0000 
      6 O1A        12.7350   62.6760  122.1890 O.co2     1 ADP601      0.0000 
      7 O2A        14.6680   63.2730  123.8720 O.co2     1 ADP601      0.0000 
      8 O3A        12.4590   62.3090  124.6840 O.3       1 ADP601      0.0000 
      9 O5'        12.5130   64.6110  123.7730 O.3       1 ADP601      0.0000 
     10 C5'        11.8940   65.3060  122.6930 C.3       1 ADP601      0.0000 
     11 C4'        10.7710   66.1670  123.2600 C.3       1 ADP601      0.0000 
     12 O4'         9.6100   66.0970  122.4270 O.3       1 ADP601      0.0000 
     13 C3'        10.3520   65.6790  124.6390 C.3       1 ADP601      0.0000 
     14 O3'        10.7250   66.6460  125.6240 O.3       1 ADP601      0.0000 
     15 C2'         8.8440   65.5300  124.5920 C.3       1 ADP601      0.0000 
     16 O2'         8.2370   66.2660  125.6570 O.3       1 ADP601      0.0000 
     17 C1'         8.4350   66.0990  123.2420 C.3       1 ADP601      0.0000 
     18 N9          7.3350   65.3080  122.6250 N.pl3     1 ADP601      0.0000 
     19 C8          7.3160   63.9760  122.4240 C.2       1 ADP601      0.0000 
     20 N7          6.1510   63.5840  121.8410 N.2       1 ADP601      0.0000 
     21 C5          5.3950   64.6850  121.6630 C.ar      1 ADP601      0.0000 
     22 C6          4.0540   64.9890  121.1040 C.ar      1 ADP601      0.0000 
     23 N6          3.2570   64.0140  120.6020 N.pl3     1 ADP601      0.0000 
     24 N1          3.6490   66.2780  121.1130 N.ar      1 ADP601      0.0000 
     25 C2          4.4240   67.2600  121.6090 C.ar      1 ADP601      0.0000 
     26 N3          5.6470   67.0580  122.1280 N.ar      1 ADP601      0.0000 
     27 C4          6.1790   65.8150  122.1870 C.ar      1 ADP601      0.0000 
@<TRIPOS>BOND
     1    1    2 ar   
     2    1    3 ar   
     3    1    4 ar   
     4    1    8 1    
     5    5    6 ar   
     6    5    7 ar   
     7    5    8 1    
     8    5    9 1    
     9    9   10 1    
    10   10   11 1    
    11   11   12 1    
    12   11   13 1    
    13   12   17 1    
    14   13   14 1    
    15   13   15 1    
    16   15   16 1    
    17   15   17 1    
    18   17   18 1    
    19   18   19 1    
    20   18   27 1    
    21   19   20 2    
    22   20   21 1    
    23   21   22 ar   
    24   21   27 ar   
    25   22   23 1    
    26   22   24 ar   
    27   24   25 ar   
    28   25   26 ar   
    29   26   27 ar   
@<TRIPOS>SUBSTRUCTURE
     1 ADP601      1 GROUP   
@<TRIPOS>SET
ATOM$ORANGE STATIC     ATOMS   COLORGROUP SYSTEM 
20 10 10 11 11 13 13 15 15 17 17 19 19 21 21 22 22 25 \
25 27 27 

