#    Name: 6dhk_1_ADP
#    Modification time : Fri May 22 19:25:59 2020

@<TRIPOS>MOLECULE
6dhk_1_ADP
   27    29     1     0     1
SMALL
NO_CHARGES


@<TRIPOS>ATOM
      1 PB         64.5950   62.3410  174.3660 P.3       1 ADP601      0.0000 
      2 O1B        65.1680   61.6630  173.1450 O.co2     1 ADP601      0.0000 
      3 O2B        65.3890   62.1160  175.6320 O.co2     1 ADP601      0.0000 
      4 O3B        63.1050   62.1510  174.5260 O.co2     1 ADP601      0.0000 
      5 PA         66.1150   64.6180  173.6110 P.3       1 ADP601      0.0000 
      6 O1A        66.7610   63.7650  172.5450 O.co2     1 ADP601      0.0000 
      7 O2A        65.8230   66.0670  173.2970 O.co2     1 ADP601      0.0000 
      8 O3A        64.7420   63.9260  174.0970 O.3       1 ADP601      0.0000 
      9 O5'        67.0290   64.5400  174.9340 O.3       1 ADP601      0.0000 
     10 C5'        68.4510   64.4500  174.8560 C.3       1 ADP601      0.0000 
     11 C4'        69.0090   64.7330  176.2440 C.3       1 ADP601      0.0000 
     12 O4'        68.1760   64.1600  177.2530 O.3       1 ADP601      0.0000 
     13 C3'        70.4060   64.1660  176.4690 C.3       1 ADP601      0.0000 
     14 O3'        71.3570   65.2350  176.4750 O.3       1 ADP601      0.0000 
     15 C2'        70.3630   63.5130  177.8390 C.3       1 ADP601      0.0000 
     16 O2'        71.4020   64.0360  178.6700 O.3       1 ADP601      0.0000 
     17 C1'        69.0100   63.9320  178.3890 C.3       1 ADP601      0.0000 
     18 N9         68.3990   62.9910  179.3670 N.pl3     1 ADP601      0.0000 
     19 C8         67.3450   62.1760  179.1710 C.2       1 ADP601      0.0000 
     20 N7         67.0510   61.4810  180.3030 N.2       1 ADP601      0.0000 
     21 C5         67.9250   61.8620  181.2550 C.ar      1 ADP601      0.0000 
     22 C6         68.1860   61.5310  182.6780 C.ar      1 ADP601      0.0000 
     23 N6         67.4290   60.6250  183.3430 N.pl3     1 ADP601      0.0000 
     24 N1         69.2050   62.1680  183.2970 N.ar      1 ADP601      0.0000 
     25 C2         69.9660   63.0730  182.6560 C.ar      1 ADP601      0.0000 
     26 N3         69.7880   63.4230  181.3710 N.ar      1 ADP601      0.0000 
     27 C4         68.8020   62.8640  180.6320 C.ar      1 ADP601      0.0000 
@<TRIPOS>BOND
     1    1    2 ar   
     2    1    3 ar   
     3    1    4 ar   
     4    1    8 1    
     5    5    6 ar   
     6    5    7 ar   
     7    5    8 1    
     8    5    9 1    
     9    9   10 1    
    10   10   11 1    
    11   11   12 1    
    12   11   13 1    
    13   12   17 1    
    14   13   14 1    
    15   13   15 1    
    16   15   16 1    
    17   15   17 1    
    18   17   18 1    
    19   18   19 1    
    20   18   27 1    
    21   19   20 2    
    22   20   21 1    
    23   21   22 ar   
    24   21   27 ar   
    25   22   23 1    
    26   22   24 ar   
    27   24   25 ar   
    28   25   26 ar   
    29   26   27 ar   
@<TRIPOS>SUBSTRUCTURE
     1 ADP601      1 GROUP   
@<TRIPOS>SET
ATOM$ORANGE STATIC     ATOMS   COLORGROUP SYSTEM 
20 10 10 11 11 13 13 15 15 17 17 19 19 21 21 22 22 25 \
25 27 27 

