#    Name: 6dhk_4_ADP_CAVITY_N1_4
#    Modification time : Fri May 22 19:27:00 2020

@<TRIPOS>MOLECULE
6dhk_4_ADP_CAVITY_N1_4
  148     0     7     0     0
SMALL
NO_CHARGES


@<TRIPOS>ATOM
      1 OG         49.0700   73.0500  223.2500 O.3       1 SER1        0.0000 
      2 OG         50.2200   73.8900  222.7900 O.3       1 SER1        0.0000 
      3 OG         48.0800   81.6200  221.8500 O.3       1 SER1        0.0000 
      4 OG         47.6700   81.3300  225.1700 O.3       1 SER1        0.0000 
      5 OG         43.3300   80.0000  226.5500 O.3       1 SER1        0.0000 
      6 OG         44.4800   80.8500  226.0900 O.3       1 SER1        0.0000 
      7 OG         46.7800   82.5400  225.1600 O.3       1 SER1        0.0000 
      8 OG         43.7000   80.2800  227.9800 O.3       1 SER1        0.0000 
      9 OG         44.8500   81.1200  227.5200 O.3       1 SER1        0.0000 
     10 OG         46.0000   81.9700  227.0500 O.3       1 SER1        0.0000 
     11 OG         47.1500   82.8100  226.5900 O.3       1 SER1        0.0000 
     12 OG         44.2200   84.3900  227.0500 O.3       1 SER1        0.0000 
     13 OG         47.5200   83.0900  228.0200 O.3       1 SER1        0.0000 
     14 OG         43.1800   81.7600  229.4000 O.3       1 SER1        0.0000 
     15 OG         44.3300   82.6100  228.9400 O.3       1 SER1        0.0000 
     16 OG         46.6300   84.3000  228.0200 O.3       1 SER1        0.0000 
     17 OG         47.7800   85.1400  227.5500 O.3       1 SER1        0.0000 
     18 OG         42.2900   82.9700  229.4000 O.3       1 SER1        0.0000 
     19 OG         43.4400   83.8200  228.9400 O.3       1 SER1        0.0000 
     20 OG         44.5900   84.6600  228.4800 O.3       1 SER1        0.0000 
     21 OG         45.7400   85.5100  228.0100 O.3       1 SER1        0.0000 
     22 OG         46.8900   86.3500  227.5500 O.3       1 SER1        0.0000 
     23 OG         47.0000   84.5700  229.4400 O.3       1 SER1        0.0000 
     24 OG         48.1500   85.4200  228.9800 O.3       1 SER1        0.0000 
     25 OG         46.1200   85.7800  229.4400 O.3       1 SER1        0.0000 
     26 OG         48.2600   83.6400  230.8700 O.3       1 SER1        0.0000 
     27 N          44.2600   78.8100  221.8100 N.am      2 ALA2        0.0000 
     28 N          43.3700   80.0200  221.8100 N.am      2 ALA2        0.0000 
     29 N          44.3700   77.0300  223.7000 N.am      2 ALA2        0.0000 
     30 N          44.6300   79.0900  223.2400 N.am      2 ALA2        0.0000 
     31 N          43.7400   80.3000  223.2400 N.am      2 ALA2        0.0000 
     32 O          46.0400   81.9900  222.3100 O.2       2 ALA2        0.0000 
     33 O          47.1900   82.8300  221.8500 O.2       2 ALA2        0.0000 
     34 N          47.4000   73.6900  225.1400 N.am      2 ALA2        0.0000 
     35 N          50.8500   76.2200  223.7500 N.am      2 ALA2        0.0000 
     36 N          45.3600   74.0500  225.6000 N.am      2 ALA2        0.0000 
     37 N          49.9600   77.4300  223.7500 N.am      2 ALA2        0.0000 
     38 N          49.0800   78.6400  223.7500 N.am      2 ALA2        0.0000 
     39 O          42.4400   75.6200  226.0500 O.2       2 ALA2        0.0000 
     40 N          44.7400   77.3100  225.1300 N.am      2 ALA2        0.0000 
     41 N          48.1900   79.8500  223.7400 N.am      2 ALA2        0.0000 
     42 N          50.0700   75.6500  225.6400 N.am      2 ALA2        0.0000 
     43 N          49.4500   78.9100  225.1700 N.am      2 ALA2        0.0000 
     44 N          48.5600   80.1200  225.1700 N.am      2 ALA2        0.0000 
     45 O          45.9600   76.3600  231.3000 O.2       2 ALA2        0.0000 
     46 O          47.1100   77.2100  230.8400 O.2       2 ALA2        0.0000 
     47 OD1        45.4100   79.6600  221.3500 O.co2     3 ASP3        0.0000 
     48 OD1        49.3300   75.1000  222.7900 O.co2     3 ASP3        0.0000 
     49 OD1        50.4800   75.9400  222.3200 O.co2     3 ASP3        0.0000 
     50 OD1        46.1400   74.6200  223.7100 O.co2     3 ASP3        0.0000 
     51 OD1        49.5900   77.1500  222.3200 O.co2     3 ASP3        0.0000 
     52 OD1        45.2500   75.8300  223.7100 O.co2     3 ASP3        0.0000 
     53 OD1        48.7000   78.3600  222.3200 O.co2     3 ASP3        0.0000 
     54 OD1        47.8200   79.5700  222.3200 O.co2     3 ASP3        0.0000 
     55 OD1        45.7800   79.9300  222.7800 O.co2     3 ASP3        0.0000 
     56 OD1        44.8900   81.1400  222.7700 O.co2     3 ASP3        0.0000 
     57 OD1        47.6600   75.7400  224.6700 O.co2     3 ASP3        0.0000 
     58 OD1        48.8100   76.5800  224.2100 O.co2     3 ASP3        0.0000 
     59 OD1        45.6300   76.1000  225.1300 O.co2     3 ASP3        0.0000 
     60 OD1        46.7800   76.9500  224.6700 O.co2     3 ASP3        0.0000 
     61 OD1        47.9300   77.7900  224.2100 O.co2     3 ASP3        0.0000 
     62 OD1        45.8900   78.1600  224.6700 O.co2     3 ASP3        0.0000 
     63 OD1        47.0400   79.0000  224.2100 O.co2     3 ASP3        0.0000 
     64 OD1        48.4500   81.9000  223.2800 O.co2     3 ASP3        0.0000 
     65 OD1        43.2200   81.7800  224.6600 O.co2     3 ASP3        0.0000 
     66 OD1        44.3700   82.6300  224.2000 O.co2     3 ASP3        0.0000 
     67 OD1        45.7400   74.3200  227.0200 O.co2     3 ASP3        0.0000 
     68 OD1        43.7000   74.6900  227.4800 O.co2     3 ASP3        0.0000 
     69 OD1        48.8200   82.1700  224.7000 O.co2     3 ASP3        0.0000 
     70 OD1        45.2200   75.8100  228.4500 O.co2     3 ASP3        0.0000 
     71 OD1        44.4400   75.2400  230.3400 O.co2     3 ASP3        0.0000 
     72 OD1        45.5900   76.0800  229.8800 O.co2     3 ASP3        0.0000 
     73 OD1        45.8500   78.1400  229.4100 O.co2     3 ASP3        0.0000 
     74 OD1        46.1100   80.1900  228.9500 O.co2     3 ASP3        0.0000 
     75 OD1        49.5600   82.7300  227.5600 O.co2     3 ASP3        0.0000 
     76 OD1        45.2200   81.4000  228.9400 O.co2     3 ASP3        0.0000 
     77 OD1        46.2200   78.4100  230.8400 O.co2     3 ASP3        0.0000 
     78 OD1        47.6300   81.3100  229.9100 O.co2     3 ASP3        0.0000 
     79 OD1        46.7400   82.5200  229.9100 O.co2     3 ASP3        0.0000 
     80 OD1        44.7000   82.8800  230.3700 O.co2     3 ASP3        0.0000 
     81 NZ         48.0400   76.0100  226.1000 N.4       4 LYS4        0.0000 
     82 NZ         49.1800   76.8600  225.6400 N.4       4 LYS4        0.0000 
     83 NZ         47.1500   77.2200  226.1000 N.4       4 LYS4        0.0000 
     84 NZ         48.3000   78.0700  225.6300 N.4       4 LYS4        0.0000 
     85 NZ         47.4100   79.2800  225.6300 N.4       4 LYS4        0.0000 
     86 NZ         46.3700   76.6500  227.9900 N.4       4 LYS4        0.0000 
     87 NZ         46.6300   78.7100  227.5200 N.4       4 LYS4        0.0000 
     88 NZ         47.7800   79.5500  227.0600 N.4       4 LYS4        0.0000 
     89 NZ         46.7400   76.9300  229.4100 N.4       4 LYS4        0.0000 
     90 NZ         47.0000   78.9800  228.9500 N.4       4 LYS4        0.0000 
     91 NZ         47.2600   81.0400  228.4800 N.4       4 LYS4        0.0000 
     92 NZ         48.4100   81.8800  228.0200 N.4       4 LYS4        0.0000 
     93 NZ         48.7800   82.1600  229.4500 N.4       4 LYS4        0.0000 
     94 NZ         49.9300   83.0000  228.9900 N.4       4 LYS4        0.0000 
     95 CZ         49.0400   84.2100  228.9800 C.ar      5 PHE5        0.0000 
     96 CZ         50.1900   85.0600  228.5200 C.ar      5 PHE5        0.0000 
     97 CA         44.5200   80.8700  221.3500 C.3       6 GLY6        0.0000 
     98 CA         45.6700   81.7100  220.8800 C.3       6 GLY6        0.0000 
     99 CA         47.0300   73.4100  223.7100 C.3       6 GLY6        0.0000 
    100 CA         48.1800   74.2500  223.2500 C.3       6 GLY6        0.0000 
    101 CA         44.9900   73.7700  224.1700 C.3       6 GLY6        0.0000 
    102 CA         45.1500   83.1900  222.3100 C.3       6 GLY6        0.0000 
    103 CA         49.4400   73.3200  224.6800 C.3       6 GLY6        0.0000 
    104 CA         50.5900   74.1700  224.2200 C.3       6 GLY6        0.0000 
    105 CA         51.7400   75.0100  223.7500 C.3       6 GLY6        0.0000 
    106 CA         48.5500   74.5300  224.6800 C.3       6 GLY6        0.0000 
    107 CA         44.4800   75.2600  225.5900 C.3       6 GLY6        0.0000 
    108 CA         43.5900   76.4700  225.5900 C.3       6 GLY6        0.0000 
    109 CA         43.8500   78.5200  225.1300 C.3       6 GLY6        0.0000 
    110 CA         44.1100   80.5700  224.6600 C.3       6 GLY6        0.0000 
    111 CA         45.2600   81.4200  224.2000 C.3       6 GLY6        0.0000 
    112 CA         46.4100   82.2600  223.7400 C.3       6 GLY6        0.0000 
    113 CA         50.9600   74.4400  225.6400 C.3       6 GLY6        0.0000 
    114 CA         48.9200   74.8100  226.1000 C.3       6 GLY6        0.0000 
    115 CA         51.2200   76.5000  225.1800 C.3       6 GLY6        0.0000 
    116 CA         46.8900   75.1700  226.5600 C.3       6 GLY6        0.0000 
    117 CA         44.2200   78.7900  226.5500 C.3       6 GLY6        0.0000 
    118 CA         45.6300   81.6900  225.6300 C.3       6 GLY6        0.0000 
    119 CA         44.7400   82.9000  225.6200 C.3       6 GLY6        0.0000 
    120 CA         48.0400   81.6100  226.5900 C.3       6 GLY6        0.0000 
    121 CA         45.1100   83.1800  227.0500 C.3       6 GLY6        0.0000 
    122 CA         46.4800   74.8800  229.8800 C.3       6 GLY6        0.0000 
    123 CA         48.6700   83.9300  227.5600 C.3       6 GLY6        0.0000 
    124 DU         46.9300   80.7800  222.3100 H         7 CUB7        0.0000 
    125 DU         49.7000   75.3800  224.2100 H         7 CUB7        0.0000 
    126 DU         46.5100   74.8900  225.1300 H         7 CUB7        0.0000 
    127 DU         45.0000   79.3600  224.6700 H         7 CUB7        0.0000 
    128 DU         46.1500   80.2100  224.2000 H         7 CUB7        0.0000 
    129 DU         47.3000   81.0500  223.7400 H         7 CUB7        0.0000 
    130 DU         44.8500   75.5300  227.0200 H         7 CUB7        0.0000 
    131 DU         46.0000   76.3800  226.5600 H         7 CUB7        0.0000 
    132 DU         42.8100   75.9000  227.4800 H         7 CUB7        0.0000 
    133 DU         43.9600   76.7400  227.0200 H         7 CUB7        0.0000 
    134 DU         45.1100   77.5900  226.5600 H         7 CUB7        0.0000 
    135 DU         46.2600   78.4300  226.0900 H         7 CUB7        0.0000 
    136 DU         45.3700   79.6400  226.0900 H         7 CUB7        0.0000 
    137 DU         46.5200   80.4800  225.6300 H         7 CUB7        0.0000 
    138 DU         44.3300   77.0200  228.4500 H         7 CUB7        0.0000 
    139 DU         45.4800   77.8600  227.9800 H         7 CUB7        0.0000 
    140 DU         43.4400   78.2300  228.4400 H         7 CUB7        0.0000 
    141 DU         44.5900   79.0700  227.9800 H         7 CUB7        0.0000 
    142 DU         45.7400   79.9200  227.5200 H         7 CUB7        0.0000 
    143 DU         46.8900   80.7600  227.0600 H         7 CUB7        0.0000 
    144 DU         44.7000   77.2900  229.8700 H         7 CUB7        0.0000 
    145 DU         46.3700   82.2400  228.4800 H         7 CUB7        0.0000 
    146 DU         45.4800   83.4500  228.4800 H         7 CUB7        0.0000 
    147 DU         47.8900   83.3700  229.4500 H         7 CUB7        0.0000 
    148 DU         45.8500   83.7300  229.9100 H         7 CUB7        0.0000 
@<TRIPOS>BOND
@<TRIPOS>SUBSTRUCTURE
     1 SER1        1 GROUP   
     2 ALA2       27 GROUP   
     3 ASP3       47 GROUP   
     4 LYS4       81 GROUP   
     5 PHE5       95 GROUP   
     6 GLY6       97 GROUP   
     7 CUB7      124 GROUP   
@<TRIPOS>SET

