#    Name: 6bza_2_13X
#    Modification time : Fri May 22 19:26:51 2020

@<TRIPOS>MOLECULE
6bza_2_13X
    9     9     1     0     0
SMALL
NO_CHARGES


@<TRIPOS>ATOM
      1 O9          9.0980  -43.9000 -117.5690 O.3       1 13X602      0.0000 
      2 C4         10.1420  -44.0630 -116.7060 C.ar      1 13X602      0.0000 
      3 C3         10.9250  -45.2180 -116.7530 C.ar      1 13X602      0.0000 
      4 C2         11.9920  -45.3730 -115.8640 C.ar      1 13X602      0.0000 
      5 O8         12.7610  -46.4990 -115.9090 O.3       1 13X602      0.0000 
      6 C5         10.4270  -43.0700 -115.7670 C.ar      1 13X602      0.0000 
      7 C6         11.4920  -43.2120 -114.8740 C.ar      1 13X602      0.0000 
      8 O7         11.7870  -42.2460 -113.9500 O.3       1 13X602      0.0000 
      9 C1         12.2690  -44.3700 -114.9300 C.ar      1 13X602      0.0000 
@<TRIPOS>BOND
     1    1    2 1    
     2    2    3 ar   
     3    2    6 ar   
     4    3    4 ar   
     5    4    5 1    
     6    4    9 ar   
     7    6    7 ar   
     8    7    8 1    
     9    7    9 ar   
@<TRIPOS>SUBSTRUCTURE
     1 13X602      1 GROUP   
@<TRIPOS>SET

