#    Name: 6bza_4_FAD
#    Modification time : Fri May 22 19:26:59 2020

@<TRIPOS>MOLECULE
6bza_4_FAD
   31    33     1     0     1
SMALL
NO_CHARGES


@<TRIPOS>ATOM
      1 N1         13.8060  -73.1200  -60.9440 N.2       1 FAD602      0.0000 
      2 C2         12.5150  -73.3130  -61.2860 C.2       1 FAD602      0.0000 
      3 O2         11.9210  -74.2660  -60.7610 O.2       1 FAD602      0.0000 
      4 N3         11.8590  -72.5150  -62.1530 N.am      1 FAD602      0.0000 
      5 C4         12.4540  -71.4570  -62.7380 C.2       1 FAD602      0.0000 
      6 O4         11.8310  -70.7290  -63.5430 O.2       1 FAD602      0.0000 
      7 C4X        13.8750  -71.1730  -62.4100 C.2       1 FAD602      0.0000 
      8 N5         14.5490  -70.1340  -62.9520 N.2       1 FAD602      0.0000 
      9 C5X        15.8470  -69.9050  -62.6250 C.ar      1 FAD602      0.0000 
     10 C6         16.5100  -68.8220  -63.2050 C.ar      1 FAD602      0.0000 
     11 C7         17.8480  -68.5630  -62.8960 C.ar      1 FAD602      0.0000 
     12 C7M        18.5510  -67.3930  -63.5320 C.3       1 FAD602      0.0000 
     13 C8         18.5700  -69.4450  -61.9370 C.ar      1 FAD602      0.0000 
     14 C8M        20.0090  -69.2130  -61.5650 C.3       1 FAD602      0.0000 
     15 C9         17.9180  -70.5220  -61.3570 C.ar      1 FAD602      0.0000 
     16 C9A        16.5790  -70.8020  -61.6550 C.ar      1 FAD602      0.0000 
     17 N10        15.8870  -71.8990  -61.0730 N.pl3     1 FAD602      0.0000 
     18 C10        14.5350  -72.0980  -61.4470 C.2       1 FAD602      0.0000 
     19 C1'        16.5110  -72.8430  -60.1220 C.3       1 FAD602      0.0000 
     20 C2'        15.8930  -72.7400  -58.7300 C.3       1 FAD602      0.0000 
     21 O2'        16.2200  -71.4790  -58.1330 O.3       1 FAD602      0.0000 
     22 C3'        16.4060  -73.8700  -57.8560 C.3       1 FAD602      0.0000 
     23 O3'        15.7170  -75.0860  -58.1740 O.3       1 FAD602      0.0000 
     24 C4'        16.1950  -73.5190  -56.3920 C.3       1 FAD602      0.0000 
     25 O4'        17.2370  -74.1130  -55.6100 O.3       1 FAD602      0.0000 
     26 C5'        14.8410  -74.0150  -55.8970 C.3       1 FAD602      0.0000 
     27 O5'        14.9390  -75.3900  -55.5260 O.3       1 FAD602      0.0000 
     28 P          15.2960  -75.7900  -54.0060 P.3       1 FAD602      0.0000 
     29 O1P        16.7000  -75.3080  -53.7180 O.co2     1 FAD602      0.0000 
     30 O2P        14.1350  -75.3610  -53.1370 O.co2     1 FAD602      0.0000 
     31 O3P        15.3510  -77.3980  -54.0480 O.3       1 FAD602      0.0000 
@<TRIPOS>BOND
     1    1    2 1    
     2    1   18 2    
     3    2    3 2    
     4    2    4 am   
     5    4    5 am   
     6    5    6 2    
     7    5    7 1    
     8    7    8 2    
     9    7   18 1    
    10    8    9 1    
    11    9   10 ar   
    12    9   16 ar   
    13   10   11 ar   
    14   11   12 1    
    15   11   13 ar   
    16   13   14 1    
    17   13   15 ar   
    18   15   16 ar   
    19   16   17 1    
    20   17   18 1    
    21   17   19 1    
    22   19   20 1    
    23   20   21 1    
    24   20   22 1    
    25   22   23 1    
    26   22   24 1    
    27   24   25 1    
    28   24   26 1    
    29   26   27 1    
    30   27   28 1    
    31   28   29 ar   
    32   28   30 ar   
    33   28   31 1    
@<TRIPOS>SUBSTRUCTURE
     1 FAD602      1 GROUP   
@<TRIPOS>SET
ATOM$ORANGE STATIC     ATOMS   COLORGROUP SYSTEM 
34 2 2 5 5 7 7 9 9 10 10 11 11 12 12 13 13 14 \
14 15 15 16 16 18 18 19 19 20 20 22 22 24 24 26 26 

