#    Name: 6bza_2_13X_CAVITY_N1_4
#    Modification time : Fri May 22 19:26:52 2020

@<TRIPOS>MOLECULE
6bza_2_13X_CAVITY_N1_4
   27     0     4     0     0
SMALL
NO_CHARGES


@<TRIPOS>ATOM
      1 OG          7.0800  -41.6300 -114.6100 O.3       1 SER1        0.0000 
      2 N          10.9000  -42.9000 -116.6200 N.am      2 ALA2        0.0000 
      3 N           9.1400  -41.9800 -114.9400 N.am      2 ALA2        0.0000 
      4 N          11.2100  -42.3200 -115.2700 N.am      2 ALA2        0.0000 
      5 N           8.5100  -40.2600 -113.8600 N.am      2 ALA2        0.0000 
      6 N           9.4600  -41.3900 -113.5900 N.am      2 ALA2        0.0000 
      7 N          11.3500  -43.6600 -113.0500 N.am      2 ALA2        0.0000 
      8 N          11.5200  -41.7300 -113.9200 N.am      2 ALA2        0.0000 
      9 N          12.4700  -42.8700 -113.6500 N.am      2 ALA2        0.0000 
     10 N           8.6500  -41.6000 -111.6400 N.am      2 ALA2        0.0000 
     11 O           9.5900  -42.7400 -111.3700 O.2       2 ALA2        0.0000 
     12 N          10.7100  -41.9500 -111.9700 N.am      2 ALA2        0.0000 
     13 CZ         11.3600  -46.5400 -116.8200 C.ar      3 PHE5        0.0000 
     14 CZ         11.5300  -44.6100 -117.6900 C.ar      3 PHE5        0.0000 
     15 CZ         12.7900  -45.1600 -116.0800 C.ar      3 PHE5        0.0000 
     16 CA         10.4100  -45.4000 -117.0900 C.3       4 GLY6        0.0000 
     17 CA          9.7800  -43.6900 -116.0200 C.3       4 GLY6        0.0000 
     18 CA         10.7200  -44.8200 -115.7500 C.3       4 GLY6        0.0000 
     19 CA         11.6700  -45.9600 -115.4800 C.3       4 GLY6        0.0000 
     20 CA         11.8400  -44.0300 -116.3500 C.3       4 GLY6        0.0000 
     21 CA          8.0200  -42.7700 -114.3400 C.3       4 GLY6        0.0000 
     22 CA         10.0900  -43.1100 -114.6700 C.3       4 GLY6        0.0000 
     23 CA         11.9800  -45.3700 -114.1300 C.3       4 GLY6        0.0000 
     24 CA         12.1600  -43.4500 -115.0000 C.3       4 GLY6        0.0000 
     25 CA          8.3300  -42.1900 -112.9900 C.3       4 GLY6        0.0000 
     26 CA          9.2800  -43.3200 -112.7200 C.3       4 GLY6        0.0000 
     27 CA         10.4000  -42.5300 -113.3200 C.3       4 GLY6        0.0000 
@<TRIPOS>BOND
@<TRIPOS>SUBSTRUCTURE
     1 SER1        1 GROUP   
     2 ALA2        2 GROUP   
     3 PHE5       13 GROUP   
     4 GLY6       16 GROUP   
@<TRIPOS>SET

