#    Name: 6bza_2_13X_CAVITY_N1_6
#    Modification time : Fri May 22 19:26:52 2020

@<TRIPOS>MOLECULE
6bza_2_13X_CAVITY_N1_6
   48     0     5     0     0
SMALL
NO_CHARGES


@<TRIPOS>ATOM
      1 OG          7.0800  -41.6300 -114.6100 O.3       1 SER1        0.0000 
      2 N          10.9000  -42.9000 -116.6200 N.am      2 ALA2        0.0000 
      3 N           9.1400  -41.9800 -114.9400 N.am      2 ALA2        0.0000 
      4 N          11.2100  -42.3200 -115.2700 N.am      2 ALA2        0.0000 
      5 N           7.5700  -39.1300 -114.1300 N.am      2 ALA2        0.0000 
      6 N           8.5100  -40.2600 -113.8600 N.am      2 ALA2        0.0000 
      7 N           9.4600  -41.3900 -113.5900 N.am      2 ALA2        0.0000 
      8 N          11.3500  -43.6600 -113.0500 N.am      2 ALA2        0.0000 
      9 N          11.5200  -41.7300 -113.9200 N.am      2 ALA2        0.0000 
     10 N          12.4700  -42.8700 -113.6500 N.am      2 ALA2        0.0000 
     11 O           7.5200  -42.4000 -111.0400 O.2       2 ALA2        0.0000 
     12 N           7.7000  -40.4700 -111.9100 N.am      2 ALA2        0.0000 
     13 N           8.6500  -41.6000 -111.6400 N.am      2 ALA2        0.0000 
     14 O           9.5900  -42.7400 -111.3700 O.2       2 ALA2        0.0000 
     15 N           7.8800  -38.5500 -112.7900 N.am      2 ALA2        0.0000 
     16 N           8.8200  -39.6800 -112.5200 N.am      2 ALA2        0.0000 
     17 N          10.7100  -41.9500 -111.9700 N.am      2 ALA2        0.0000 
     18 N           8.0100  -39.8900 -110.5700 N.am      2 ALA2        0.0000 
     19 CZ         11.3600  -46.5400 -116.8200 C.ar      3 PHE5        0.0000 
     20 CZ         11.5300  -44.6100 -117.6900 C.ar      3 PHE5        0.0000 
     21 CZ         12.7900  -45.1600 -116.0800 C.ar      3 PHE5        0.0000 
     22 CA         10.4100  -45.4000 -117.0900 C.3       4 GLY6        0.0000 
     23 CA          9.7800  -43.6900 -116.0200 C.3       4 GLY6        0.0000 
     24 CA         10.7200  -44.8200 -115.7500 C.3       4 GLY6        0.0000 
     25 CA         11.6700  -45.9600 -115.4800 C.3       4 GLY6        0.0000 
     26 CA         11.8400  -44.0300 -116.3500 C.3       4 GLY6        0.0000 
     27 CA          5.0100  -41.2900 -114.2800 C.3       4 GLY6        0.0000 
     28 CA          5.9500  -42.4300 -114.0100 C.3       4 GLY6        0.0000 
     29 CA          6.9000  -43.5600 -113.7400 C.3       4 GLY6        0.0000 
     30 CA          6.1300  -40.5000 -114.8800 C.3       4 GLY6        0.0000 
     31 CA          8.0200  -42.7700 -114.3400 C.3       4 GLY6        0.0000 
     32 CA          7.2500  -39.7100 -115.4800 C.3       4 GLY6        0.0000 
     33 CA         10.0900  -43.1100 -114.6700 C.3       4 GLY6        0.0000 
     34 CA         11.9800  -45.3700 -114.1300 C.3       4 GLY6        0.0000 
     35 CA         12.1600  -43.4500 -115.0000 C.3       4 GLY6        0.0000 
     36 CA          6.0900  -43.7700 -111.7900 C.3       4 GLY6        0.0000 
     37 CA          7.0300  -44.9000 -111.5200 C.3       4 GLY6        0.0000 
     38 CA          7.2100  -42.9800 -112.3900 C.3       4 GLY6        0.0000 
     39 CA          8.1600  -44.1100 -112.1200 C.3       4 GLY6        0.0000 
     40 CA          8.3300  -42.1900 -112.9900 C.3       4 GLY6        0.0000 
     41 CA          9.2800  -43.3200 -112.7200 C.3       4 GLY6        0.0000 
     42 CA         10.4000  -42.5300 -113.3200 C.3       4 GLY6        0.0000 
     43 CA          9.0000  -37.7500 -113.3900 C.3       4 GLY6        0.0000 
     44 CA          9.3100  -37.1700 -112.0400 C.3       4 GLY6        0.0000 
     45 DU          6.2700  -41.8500 -112.6600 H         5 CUB7        0.0000 
     46 DU          6.4400  -39.9200 -113.5300 H         5 CUB7        0.0000 
     47 DU          7.3900  -41.0500 -113.2600 H         5 CUB7        0.0000 
     48 DU          6.5800  -41.2600 -111.3100 H         5 CUB7        0.0000 
@<TRIPOS>BOND
@<TRIPOS>SUBSTRUCTURE
     1 SER1        1 GROUP   
     2 ALA2        2 GROUP   
     3 PHE5       19 GROUP   
     4 GLY6       22 GROUP   
     5 CUB7       45 GROUP   
@<TRIPOS>SET

