#    Name: 6bza_5_FAD
#    Modification time : Fri May 22 19:27:06 2020

@<TRIPOS>MOLECULE
6bza_5_FAD
   19    21     1     0     1
SMALL
NO_CHARGES


@<TRIPOS>ATOM
      1 N1          6.4700  -59.9160 -132.9860 N.2       1 FAD601      0.0000 
      2 C2          5.1970  -59.4780 -133.1410 C.2       1 FAD601      0.0000 
      3 O2          4.6560  -59.6840 -134.2400 O.2       1 FAD601      0.0000 
      4 N3          4.4980  -58.8480 -132.1670 N.am      1 FAD601      0.0000 
      5 C4          5.0220  -58.6070 -130.9500 C.2       1 FAD601      0.0000 
      6 O4          4.3420  -58.0250 -130.0710 O.2       1 FAD601      0.0000 
      7 C4X         6.4220  -59.0560 -130.6920 C.2       1 FAD601      0.0000 
      8 N5          7.0430  -58.8610 -129.5020 N.2       1 FAD601      0.0000 
      9 C5X         8.3180  -59.2860 -129.3050 C.ar      1 FAD601      0.0000 
     10 C6          8.9060  -59.0510 -128.0630 C.ar      1 FAD601      0.0000 
     11 C7         10.2130  -59.4610 -127.8150 C.ar      1 FAD601      0.0000 
     12 C7M        10.8020  -59.1910 -126.4540 C.3       1 FAD601      0.0000 
     13 C8         10.9870  -60.1550 -128.8940 C.ar      1 FAD601      0.0000 
     14 C8M        12.3990  -60.6190 -128.6750 C.3       1 FAD601      0.0000 
     15 C9         10.4050  -60.3870 -130.1390 C.ar      1 FAD601      0.0000 
     16 C9A         9.0930  -59.9790 -130.4000 C.ar      1 FAD601      0.0000 
     17 N10         8.4600  -60.1980 -131.6590 N.pl3     1 FAD601      0.0000 
     18 C10         7.1310  -59.7410 -131.8190 C.2       1 FAD601      0.0000 
     19 C1'         9.1130  -60.8670 -132.7990 C.3       1 FAD601      0.0000 
@<TRIPOS>BOND
     1    1    2 1    
     2    1   18 2    
     3    2    3 2    
     4    2    4 am   
     5    4    5 am   
     6    5    6 2    
     7    5    7 1    
     8    7    8 2    
     9    7   18 1    
    10    8    9 1    
    11    9   10 ar   
    12    9   16 ar   
    13   10   11 ar   
    14   11   12 1    
    15   11   13 ar   
    16   13   14 1    
    17   13   15 ar   
    18   15   16 ar   
    19   16   17 1    
    20   17   18 1    
    21   17   19 1    
@<TRIPOS>SUBSTRUCTURE
     1 FAD601      1 GROUP   
@<TRIPOS>SET
ATOM$ORANGE STATIC     ATOMS   COLORGROUP SYSTEM 
26 2 2 5 5 7 7 9 9 10 10 11 11 12 12 13 13 14 \
14 15 15 16 16 18 18 19 19 

