#    Name: 5zk3_1_QNB_CAVITY_N1_4
#    Modification time : Fri May 22 19:27:38 2020

@<TRIPOS>MOLECULE
5zk3_1_QNB_CAVITY_N1_4
   72     0     6     0     0
SMALL
NO_CHARGES


@<TRIPOS>ATOM
      1 OG        182.5000   27.8700  520.7800 O.3       1 SER1        0.0000 
      2 OG        182.5000   26.8200  522.6200 O.3       1 SER1        0.0000 
      3 OG        181.5200   27.6500  524.3100 O.3       1 SER1        0.0000 
      4 OG        182.9000   27.1600  524.0300 O.3       1 SER1        0.0000 
      5 OG        180.5300   28.4900  526.0000 O.3       1 SER1        0.0000 
      6 OG        179.5500   29.3200  527.6900 O.3       1 SER1        0.0000 
      7 OG        180.9400   28.8200  527.4000 O.3       1 SER1        0.0000 
      8 OG        181.3500   29.1500  528.8100 O.3       1 SER1        0.0000 
      9 N         183.4800   23.9100  524.6300 N.am      2 ALA2        0.0000 
     10 N         185.2700   24.7900  523.9100 N.am      2 ALA2        0.0000 
     11 N         178.7500   27.6100  526.7200 N.am      2 ALA2        0.0000 
     12 N         182.5000   24.7400  526.3200 N.am      2 ALA2        0.0000 
     13 N         184.2900   25.6200  525.6000 N.am      2 ALA2        0.0000 
     14 N         182.9100   25.0700  527.7300 N.am      2 ALA2        0.0000 
     15 N         184.3000   24.5800  527.4400 N.am      2 ALA2        0.0000 
     16 N         183.3100   25.4100  529.1300 N.am      2 ALA2        0.0000 
     17 N         185.1100   25.2500  530.2500 N.am      2 ALA2        0.0000 
     18 NZ        177.7600   29.4800  526.5600 N.4       3 LYS4        0.0000 
     19 NZ        179.5500   30.3600  525.8400 N.4       3 LYS4        0.0000 
     20 NZ        179.1500   28.9800  526.2800 N.4       3 LYS4        0.0000 
     21 NZ        178.1700   29.8100  527.9700 N.4       3 LYS4        0.0000 
     22 CZ        183.8800   27.3700  520.4900 C.ar      4 PHE5        0.0000 
     23 CZ        176.9500   27.7700  525.6000 C.ar      4 PHE5        0.0000 
     24 CZ        178.7400   28.6500  524.8700 C.ar      4 PHE5        0.0000 
     25 CZ        178.3400   27.2700  525.3200 C.ar      4 PHE5        0.0000 
     26 CZ        180.1300   28.1500  524.5900 C.ar      4 PHE5        0.0000 
     27 CZ        182.5000   25.7800  524.4700 C.ar      4 PHE5        0.0000 
     28 CZ        182.1000   24.4100  524.9100 C.ar      4 PHE5        0.0000 
     29 CZ        184.2900   26.6600  523.7500 C.ar      4 PHE5        0.0000 
     30 CZ        183.8900   25.2900  524.1900 C.ar      4 PHE5        0.0000 
     31 CZ        185.6800   26.1600  523.4600 C.ar      4 PHE5        0.0000 
     32 CZ        180.9400   29.8600  525.5600 C.ar      4 PHE5        0.0000 
     33 CZ        180.1300   27.1100  526.4400 C.ar      4 PHE5        0.0000 
     34 CZ        179.7300   25.7300  526.8800 C.ar      4 PHE5        0.0000 
     35 CZ        181.9200   27.9900  525.7200 C.ar      4 PHE5        0.0000 
     36 CZ        181.5200   26.6100  526.1600 C.ar      4 PHE5        0.0000 
     37 CZ        181.1200   25.2400  526.6000 C.ar      4 PHE5        0.0000 
     38 CZ        183.3100   27.4900  525.4300 C.ar      4 PHE5        0.0000 
     39 CZ        182.9100   26.1200  525.8800 C.ar      4 PHE5        0.0000 
     40 CZ        184.7000   26.9900  525.1500 C.ar      4 PHE5        0.0000 
     41 CZ        179.1500   27.9400  528.1300 C.ar      4 PHE5        0.0000 
     42 CZ        181.3400   30.1900  526.9600 C.ar      4 PHE5        0.0000 
     43 CZ        180.5400   27.4400  527.8500 C.ar      4 PHE5        0.0000 
     44 CZ        180.1300   26.0700  528.2900 C.ar      4 PHE5        0.0000 
     45 CZ        182.3300   28.3200  527.1200 C.ar      4 PHE5        0.0000 
     46 CZ        181.9200   26.9500  527.5600 C.ar      4 PHE5        0.0000 
     47 CZ        181.5200   25.5700  528.0100 C.ar      4 PHE5        0.0000 
     48 CZ        183.7100   27.8300  526.8400 C.ar      4 PHE5        0.0000 
     49 CZ        185.1000   27.3300  526.5600 C.ar      4 PHE5        0.0000 
     50 CZ        186.4900   26.8300  526.2800 C.ar      4 PHE5        0.0000 
     51 CZ        183.1300   30.0300  528.0800 C.ar      4 PHE5        0.0000 
     52 CZ        182.3300   27.2800  528.9700 C.ar      4 PHE5        0.0000 
     53 CZ        184.1200   28.1600  528.2400 C.ar      4 PHE5        0.0000 
     54 CZ        185.5100   27.6600  527.9600 C.ar      4 PHE5        0.0000 
     55 CZ        184.1200   27.1200  530.0900 C.ar      4 PHE5        0.0000 
     56 CZ        183.7200   25.7400  530.5400 C.ar      4 PHE5        0.0000 
     57 CA        183.8800   26.3300  522.3400 C.3       5 GLY6        0.0000 
     58 CA        183.4800   24.9500  522.7800 C.3       5 GLY6        0.0000 
     59 CA        177.3600   28.1000  527.0000 C.3       5 GLY6        0.0000 
     60 CA        185.6800   25.1200  525.3100 C.3       5 GLY6        0.0000 
     61 CA        177.7600   28.4400  528.4100 C.3       5 GLY6        0.0000 
     62 CA        186.0800   25.4600  526.7200 C.3       5 GLY6        0.0000 
     63 CA        182.7300   28.6600  528.5300 C.3       5 GLY6        0.0000 
     64 CA        185.1000   26.2900  528.4100 C.3       5 GLY6        0.0000 
     65 CA        184.7000   24.9100  528.8500 C.3       5 GLY6        0.0000 
     66 CA        184.5200   28.4900  529.6500 C.3       5 GLY6        0.0000 
     67 CA        185.9100   28.0000  529.3700 C.3       5 GLY6        0.0000 
     68 CA        185.5100   26.6200  529.8100 C.3       5 GLY6        0.0000 
     69 CA        184.5300   27.4500  531.5000 C.3       5 GLY6        0.0000 
     70 DU        183.3100   26.4500  527.2800 H         6 CUB7        0.0000 
     71 DU        184.7000   25.9500  527.0000 H         6 CUB7        0.0000 
     72 DU        183.7200   26.7800  528.6900 H         6 CUB7        0.0000 
@<TRIPOS>BOND
@<TRIPOS>SUBSTRUCTURE
     1 SER1        1 GROUP   
     2 ALA2        9 GROUP   
     3 LYS4       18 GROUP   
     4 PHE5       22 GROUP   
     5 GLY6       57 GROUP   
     6 CUB7       70 GROUP   
@<TRIPOS>SET

