#    Name: 5zk3_1_QNB
#    Modification time : Fri May 22 19:27:36 2020

@<TRIPOS>MOLECULE
5zk3_1_QNB
   25    28     1     0     0
SMALL
NO_CHARGES


@<TRIPOS>ATOM
      1 C1        183.2750   25.8000  527.6850 C.3       1 QNB501      0.0000 
      2 C2        183.9070   26.8450  528.6140 C.ar      1 QNB501      0.0000 
      3 C3        184.1980   28.1250  528.1570 C.ar      1 QNB501      0.0000 
      4 C4        184.7710   29.0630  529.0000 C.ar      1 QNB501      0.0000 
      5 C5        185.0600   28.7370  530.3060 C.ar      1 QNB501      0.0000 
      6 C6        184.7790   27.4720  530.7730 C.ar      1 QNB501      0.0000 
      7 C7        184.2050   26.5310  529.9340 C.ar      1 QNB501      0.0000 
      8 C8        183.8870   25.8690  526.2810 C.ar      1 QNB501      0.0000 
      9 C9        185.2490   25.6650  526.0910 C.ar      1 QNB501      0.0000 
     10 C10       185.8040   25.7280  524.8250 C.ar      1 QNB501      0.0000 
     11 C11       185.0100   25.9950  523.7320 C.ar      1 QNB501      0.0000 
     12 C12       183.6590   26.2000  523.9040 C.ar      1 QNB501      0.0000 
     13 C13       183.1000   26.1370  525.1680 C.ar      1 QNB501      0.0000 
     14 C14       181.7450   25.9890  527.6360 C.2       1 QNB501      0.0000 
     15 O15       183.5460   24.5020  528.2210 O.3       1 QNB501      0.0000 
     16 O16       180.9700   25.0790  527.7320 O.2       1 QNB501      0.0000 
     17 O17       181.3850   27.2720  527.4990 O.3       1 QNB501      0.0000 
     18 C18       179.9650   27.5880  527.5920 C.3       1 QNB501      0.0000 
     19 C19       179.8130   28.9670  528.1970 C.3       1 QNB501      0.0000 
     20 N20       179.3420   29.9400  527.2100 N.4       1 QNB501      0.0000 
     21 C21       180.2530   29.9670  526.0620 C.3       1 QNB501      0.0000 
     22 C22       180.3010   28.6090  525.3710 C.3       1 QNB501      0.0000 
     23 C23       179.4400   27.6310  526.1650 C.3       1 QNB501      0.0000 
     24 C24       178.0010   28.1420  526.1970 C.3       1 QNB501      0.0000 
     25 C25       178.0030   29.5640  526.7450 C.3       1 QNB501      0.0000 
@<TRIPOS>BOND
     1    1    2 1    
     2    1    8 1    
     3    1   14 1    
     4    1   15 1    
     5    2    3 ar   
     6    2    7 ar   
     7    3    4 ar   
     8    4    5 ar   
     9    5    6 ar   
    10    6    7 ar   
    11    8    9 ar   
    12    8   13 ar   
    13    9   10 ar   
    14   10   11 ar   
    15   11   12 ar   
    16   12   13 ar   
    17   14   16 2    
    18   14   17 1    
    19   17   18 1    
    20   18   19 1    
    21   18   23 1    
    22   19   20 1    
    23   20   21 1    
    24   20   25 1    
    25   21   22 1    
    26   22   23 1    
    27   23   24 1    
    28   24   25 1    
@<TRIPOS>SUBSTRUCTURE
     1 QNB501      1 GROUP   
@<TRIPOS>SET

