#    Name: 6i2i_3_GTP
#    Modification time : Fri May 22 19:24:25 2020

@<TRIPOS>MOLECULE
6i2i_3_GTP
   32    34     1     0     1
SMALL
NO_CHARGES


@<TRIPOS>ATOM
      1 PG         47.6480   37.1920   28.1670 P.3       1 GTP501      0.0000 
      2 O1G        46.7190   36.2270   27.5200 O.co2     1 GTP501      0.0000 
      3 O2G        49.1000   36.8030   28.1580 O.co2     1 GTP501      0.0000 
      4 O3G        47.5210   38.6200   27.6510 O.co2     1 GTP501      0.0000 
      5 O3B        47.2260   37.1530   29.6960 O.3       1 GTP501      0.0000 
      6 PB         46.9540   38.4180   30.6110 P.3       1 GTP501      0.0000 
      7 O1B        47.8050   39.5700   30.2290 O.co2     1 GTP501      0.0000 
      8 O2B        47.1070   37.9960   32.0600 O.co2     1 GTP501      0.0000 
      9 O3A        45.4490   38.7990   30.2930 O.3       1 GTP501      0.0000 
     10 PA         44.5290   39.8500   31.0470 P.3       1 GTP501      0.0000 
     11 O1A        44.3640   41.0200   30.1440 O.co2     1 GTP501      0.0000 
     12 O2A        45.1250   40.1770   32.4170 O.co2     1 GTP501      0.0000 
     13 O5'        43.2310   38.9810   31.2550 O.3       1 GTP501      0.0000 
     14 C5'        41.9410   39.3820   30.7780 C.3       1 GTP501      0.0000 
     15 C4'        41.0100   39.4350   31.9540 C.3       1 GTP501      0.0000 
     16 O4'        41.4740   40.4270   32.9000 O.3       1 GTP501      0.0000 
     17 C3'        39.6150   39.8720   31.5540 C.3       1 GTP501      0.0000 
     18 O3'        38.6490   39.2720   32.4040 O.3       1 GTP501      0.0000 
     19 C2'        39.6900   41.3830   31.7340 C.3       1 GTP501      0.0000 
     20 O2'        38.4040   41.9460   31.9500 O.3       1 GTP501      0.0000 
     21 C1'        40.5280   41.4730   32.9960 C.3       1 GTP501      0.0000 
     22 N9         41.2450   42.7490   33.1520 N.pl3     1 GTP501      0.0000 
     23 C8         42.2300   43.2540   32.3530 C.2       1 GTP501      0.0000 
     24 N7         42.7040   44.4010   32.7910 N.2       1 GTP501      0.0000 
     25 C5         41.9870   44.6570   33.9470 C.2       1 GTP501      0.0000 
     26 C6         42.0300   45.7640   34.9030 C.2       1 GTP501      0.0000 
     27 O6         42.7580   46.7380   34.8440 O.2       1 GTP501      0.0000 
     28 N1         41.1290   45.6310   35.9360 N.am      1 GTP501      0.0000 
     29 C2         40.2760   44.5800   36.0730 C.2       1 GTP501      0.0000 
     30 N2         39.4630   44.5910   37.1350 N.pl3     1 GTP501      0.0000 
     31 N3         40.2240   43.5600   35.2110 N.2       1 GTP501      0.0000 
     32 C4         41.0940   43.6630   34.1810 C.2       1 GTP501      0.0000 
@<TRIPOS>BOND
     1    1    2 ar   
     2    1    3 ar   
     3    1    4 ar   
     4    1    5 1    
     5    5    6 1    
     6    6    7 ar   
     7    6    8 ar   
     8    6    9 1    
     9    9   10 1    
    10   10   11 ar   
    11   10   12 ar   
    12   10   13 1    
    13   13   14 1    
    14   14   15 1    
    15   15   16 1    
    16   15   17 1    
    17   16   21 1    
    18   17   18 1    
    19   17   19 1    
    20   19   20 1    
    21   19   21 1    
    22   21   22 1    
    23   22   23 1    
    24   22   32 1    
    25   23   24 2    
    26   24   25 1    
    27   25   26 1    
    28   25   32 2    
    29   26   27 2    
    30   26   28 am   
    31   28   29 1    
    32   29   30 1    
    33   29   31 2    
    34   31   32 1    
@<TRIPOS>SUBSTRUCTURE
     1 GTP501      1 GROUP   
@<TRIPOS>SET
ATOM$ORANGE STATIC     ATOMS   COLORGROUP SYSTEM 
20 14 14 15 15 17 17 19 19 21 21 23 23 25 25 26 26 29 \
29 32 32 

