#    Name: 6i2i_1_G2P
#    Modification time : Fri May 22 19:24:14 2020

@<TRIPOS>MOLECULE
6i2i_1_G2P
   32    34     1     0     0
SMALL
NO_CHARGES


@<TRIPOS>ATOM
      1 PG         47.9460   37.7350   71.3380 P.3       1 G2P501      0.0000 
      2 O1G        49.3770   37.4400   70.9680 O.co2     1 G2P501      0.0000 
      3 O2G        47.4640   39.0600   70.8390 O.co2     1 G2P501      0.0000 
      4 O3G        47.0550   36.5630   71.0260 O.co2     1 G2P501      0.0000 
      5 O3B        47.9500   37.7590   72.9230 O.3       1 G2P501      0.0000 
      6 PB         47.3800   38.9710   73.7480 P.3       1 G2P501      0.0000 
      7 O1B        47.6240   38.6210   75.2310 O.co2     1 G2P501      0.0000 
      8 O2B        47.9830   40.3070   73.2400 O.co2     1 G2P501      0.0000 
      9 C3A        45.5990   39.0010   73.5200 C.3       1 G2P501      0.0000 
     10 PA         44.8440   40.5200   74.1190 P.3       1 G2P501      0.0000 
     11 O1A        45.4500   40.7310   75.5120 O.co2     1 G2P501      0.0000 
     12 O2A        45.1690   41.8140   73.3260 O.co2     1 G2P501      0.0000 
     13 O5'        43.3640   40.1450   74.5010 O.3       1 G2P501      0.0000 
     14 C5'        42.1880   40.6300   73.8280 C.3       1 G2P501      0.0000 
     15 C4'        41.0590   40.4630   74.8220 C.3       1 G2P501      0.0000 
     16 O4'        41.3130   41.2780   75.9940 O.3       1 G2P501      0.0000 
     17 C3'        39.7270   41.0000   74.3610 C.3       1 G2P501      0.0000 
     18 O3'        38.6440   40.5220   75.1630 O.3       1 G2P501      0.0000 
     19 C2'        39.9710   42.4900   74.5160 C.3       1 G2P501      0.0000 
     20 O2'        38.6980   43.0600   74.2740 O.3       1 G2P501      0.0000 
     21 C1'        40.5410   42.4760   75.9290 C.3       1 G2P501      0.0000 
     22 N9         41.3880   43.6610   76.2390 N.pl3     1 G2P501      0.0000 
     23 C8         42.4260   44.1470   75.4890 C.2       1 G2P501      0.0000 
     24 N7         42.9840   45.2220   76.0080 N.2       1 G2P501      0.0000 
     25 C5         42.2710   45.4600   77.1700 C.2       1 G2P501      0.0000 
     26 C6         42.3940   46.4970   78.2070 C.2       1 G2P501      0.0000 
     27 O6         43.2100   47.4050   78.2400 O.2       1 G2P501      0.0000 
     28 N1         41.4630   46.3720   79.2130 N.am      1 G2P501      0.0000 
     29 C2         40.5170   45.3960   79.2730 C.2       1 G2P501      0.0000 
     30 N2         39.6860   45.4230   80.3230 N.pl3     1 G2P501      0.0000 
     31 N3         40.3850   44.4410   78.3430 N.2       1 G2P501      0.0000 
     32 C4         41.2860   44.5270   77.3280 C.2       1 G2P501      0.0000 
@<TRIPOS>BOND
     1    1    2 ar   
     2    1    3 ar   
     3    1    4 ar   
     4    1    5 1    
     5    5    6 1    
     6    6    7 ar   
     7    6    8 ar   
     8    6    9 1    
     9    9   10 1    
    10   10   11 ar   
    11   10   12 ar   
    12   10   13 1    
    13   13   14 1    
    14   14   15 1    
    15   15   16 1    
    16   15   17 1    
    17   16   21 1    
    18   17   18 1    
    19   17   19 1    
    20   19   20 1    
    21   19   21 1    
    22   21   22 1    
    23   22   23 1    
    24   22   32 1    
    25   23   24 2    
    26   24   25 1    
    27   25   26 1    
    28   25   32 2    
    29   26   27 2    
    30   26   28 am   
    31   28   29 1    
    32   29   30 1    
    33   29   31 2    
    34   31   32 1    
@<TRIPOS>SUBSTRUCTURE
     1 G2P501      1 GROUP   
@<TRIPOS>SET

