#    Name: 6i2i_2_TA1
#    Modification time : Fri May 22 19:24:19 2020

@<TRIPOS>MOLECULE
6i2i_2_TA1
   62    68     1     0     0
SMALL
NO_CHARGES


@<TRIPOS>ATOM
      1 O01        38.1300   60.4700   88.9290 O.3       1 TA1503      0.0000 
      2 C01        37.8320   60.2840   90.3250 C.3       1 TA1503      0.0000 
      3 C02        36.4630   59.4160   90.3390 C.3       1 TA1503      0.0000 
      4 O02        36.8020   58.2310   89.5830 O.3       1 TA1503      0.0000 
      5 C03        36.4770   58.0890   88.3200 C.2       1 TA1503      0.0000 
      6 O03        35.6370   58.7670   87.7800 O.2       1 TA1503      0.0000 
      7 C04        37.0780   56.8670   87.7430 C.ar      1 TA1503      0.0000 
      8 C05        37.4560   56.8700   86.4320 C.ar      1 TA1503      0.0000 
      9 C06        38.0600   55.7640   85.8670 C.ar      1 TA1503      0.0000 
     10 C07        38.1270   54.5830   86.5640 C.ar      1 TA1503      0.0000 
     11 C08        37.6150   54.5110   87.8350 C.ar      1 TA1503      0.0000 
     12 C09        37.0940   55.6460   88.4340 C.ar      1 TA1503      0.0000 
     13 C10        35.8090   58.9150   91.7000 C.3       1 TA1503      0.0000 
     14 C11        35.4540   57.4220   91.7450 C.3       1 TA1503      0.0000 
     15 O04        36.6240   56.5670   91.5850 O.3       1 TA1503      0.0000 
     16 C12        37.6260   56.4860   92.4700 C.2       1 TA1503      0.0000 
     17 O05        37.6580   57.0760   93.5090 O.2       1 TA1503      0.0000 
     18 C13        38.6670   55.5400   91.9790 C.3       1 TA1503      0.0000 
     19 C14        34.4530   56.7870   90.7630 C.3       1 TA1503      0.0000 
     20 O06        33.5660   56.4470   91.7990 O.3       1 TA1503      0.0000 
     21 C15        34.4970   56.9080   92.8330 C.3       1 TA1503      0.0000 
     22 C16        33.8440   57.9180   93.7700 C.3       1 TA1503      0.0000 
     23 C17        34.5120   59.2930   93.7930 C.3       1 TA1503      0.0000 
     24 O07        33.8050   60.1860   94.6630 O.3       1 TA1503      0.0000 
     25 C18        34.6810   59.8610   92.3440 C.3       1 TA1503      0.0000 
     26 C19        33.3430   59.9220   91.5630 C.3       1 TA1503      0.0000 
     27 C20        34.9570   61.3650   92.5940 C.2       1 TA1503      0.0000 
     28 O08        34.1750   62.1900   92.1610 O.2       1 TA1503      0.0000 
     29 C21        36.2430   61.9690   93.2200 C.3       1 TA1503      0.0000 
     30 O09        36.1250   63.4150   93.1800 O.3       1 TA1503      0.0000 
     31 C22        35.9780   64.1400   94.3060 C.2       1 TA1503      0.0000 
     32 O10        35.9290   63.6530   95.3970 O.2       1 TA1503      0.0000 
     33 C23        35.8770   65.5930   93.9940 C.3       1 TA1503      0.0000 
     34 C24        37.5240   61.5270   92.5260 C.2       1 TA1503      0.0000 
     35 C25        38.3450   60.6540   93.1620 C.2       1 TA1503      0.0000 
     36 C26        39.4690   59.9250   92.4060 C.3       1 TA1503      0.0000 
     37 O11        40.1380   58.8700   93.0320 O.3       1 TA1503      0.0000 
     38 C27        41.2550   59.1300   93.7220 C.2       1 TA1503      0.0000 
     39 O12        41.7490   60.2160   93.8550 O.2       1 TA1503      0.0000 
     40 C28        41.7830   57.8480   94.3460 C.3       1 TA1503      0.0000 
     41 O13        42.9700   58.0980   95.0690 O.3       1 TA1503      0.0000 
     42 C29        42.0590   56.8070   93.2560 C.3       1 TA1503      0.0000 
     43 N01        42.9520   57.3950   92.2800 N.am      1 TA1503      0.0000 
     44 C30        43.0010   57.0120   91.0010 C.2       1 TA1503      0.0000 
     45 O14        42.3240   56.0900   90.5570 O.2       1 TA1503      0.0000 
     46 C31        43.9220   57.7980   90.1290 C.ar      1 TA1503      0.0000 
     47 C32        45.2870   57.8590   90.3910 C.ar      1 TA1503      0.0000 
     48 C33        46.1190   58.6240   89.5940 C.ar      1 TA1503      0.0000 
     49 C34        45.6020   59.3330   88.5310 C.ar      1 TA1503      0.0000 
     50 C35        44.2520   59.2790   88.2620 C.ar      1 TA1503      0.0000 
     51 C36        43.4140   58.5170   89.0550 C.ar      1 TA1503      0.0000 
     52 C37        42.5920   55.4930   93.7970 C.ar      1 TA1503      0.0000 
     53 C38        41.7140   54.4790   94.1430 C.ar      1 TA1503      0.0000 
     54 C39        42.1900   53.2740   94.6340 C.ar      1 TA1503      0.0000 
     55 C40        43.5410   53.0690   94.7760 C.ar      1 TA1503      0.0000 
     56 C41        44.4250   54.0670   94.4350 C.ar      1 TA1503      0.0000 
     57 C42        43.9540   55.2780   93.9520 C.ar      1 TA1503      0.0000 
     58 C43        38.9650   59.4790   90.9990 C.3       1 TA1503      0.0000 
     59 C44        38.1990   60.2600   94.5970 C.3       1 TA1503      0.0000 
     60 C45        37.6690   61.7590   90.9630 C.3       1 TA1503      0.0000 
     61 C46        38.8690   62.7030   90.6900 C.3       1 TA1503      0.0000 
     62 C47        36.6640   62.5600   90.1230 C.3       1 TA1503      0.0000 
@<TRIPOS>BOND
     1    1    2 1    
     2    2    3 1    
     3    2   58 1    
     4    2   60 1    
     5    3    4 1    
     6    3   13 1    
     7    4    5 1    
     8    5    6 2    
     9    5    7 1    
    10    7    8 ar   
    11    7   12 ar   
    12    8    9 ar   
    13    9   10 ar   
    14   10   11 ar   
    15   11   12 ar   
    16   13   14 1    
    17   13   25 1    
    18   14   15 1    
    19   14   19 1    
    20   14   21 1    
    21   15   16 1    
    22   16   17 2    
    23   16   18 1    
    24   19   20 1    
    25   20   21 1    
    26   21   22 1    
    27   22   23 1    
    28   23   24 1    
    29   23   25 1    
    30   25   26 1    
    31   25   27 1    
    32   27   28 2    
    33   27   29 1    
    34   29   30 1    
    35   29   34 1    
    36   30   31 1    
    37   31   32 2    
    38   31   33 1    
    39   34   35 2    
    40   34   60 1    
    41   35   36 1    
    42   35   59 1    
    43   36   37 1    
    44   36   58 1    
    45   37   38 1    
    46   38   39 2    
    47   38   40 1    
    48   40   41 1    
    49   40   42 1    
    50   42   43 1    
    51   42   52 1    
    52   43   44 am   
    53   44   45 2    
    54   44   46 1    
    55   46   47 ar   
    56   46   51 ar   
    57   47   48 ar   
    58   48   49 ar   
    59   49   50 ar   
    60   50   51 ar   
    61   52   53 ar   
    62   52   57 ar   
    63   53   54 ar   
    64   54   55 ar   
    65   55   56 ar   
    66   56   57 ar   
    67   60   61 1    
    68   60   62 1    
@<TRIPOS>SUBSTRUCTURE
     1 TA1503      1 GROUP   
@<TRIPOS>SET

