#    Name: 6i2i_3_GTP_CAVITY_N1_12
#    Modification time : Fri May 22 19:24:27 2020

@<TRIPOS>MOLECULE
6i2i_3_GTP_CAVITY_N1_12
  104     0     7     0     0
SMALL
NO_CHARGES


@<TRIPOS>ATOM
      1 OG         41.2500   42.6400   29.9800 O.3       1 SER1        0.0000 
      2 OG         43.1600   38.5400   32.0600 O.3       1 SER1        0.0000 
      3 OG         41.7000   38.5900   32.4200 O.3       1 SER1        0.0000 
      4 OG         41.6100   42.9800   31.3900 O.3       1 SER1        0.0000 
      5 OG         40.1800   41.5700   32.0900 O.3       1 SER1        0.0000 
      6 OG         38.7200   41.6200   32.4500 O.3       1 SER1        0.0000 
      7 OG         44.9700   38.8300   33.1200 O.3       1 SER1        0.0000 
      8 OG         40.5400   41.9000   33.5100 O.3       1 SER1        0.0000 
      9 O          46.0600   38.4900   24.9900 O.2       2 ALA2        0.0000 
     10 O          44.6100   38.5500   25.3400 O.2       2 ALA2        0.0000 
     11 O          41.6900   38.6500   26.0500 O.2       2 ALA2        0.0000 
     12 N          46.4500   37.3700   26.7400 N.am      2 ALA2        0.0000 
     13 O          44.9600   38.8800   26.7600 O.2       2 ALA2        0.0000 
     14 O          43.5100   38.9400   27.1100 O.2       2 ALA2        0.0000 
     15 N          42.0800   37.5300   27.8100 N.am      2 ALA2        0.0000 
     16 O          42.0500   38.9900   27.4700 O.2       2 ALA2        0.0000 
     17 N          45.3500   37.7600   28.5200 N.am      2 ALA2        0.0000 
     18 N          45.2900   40.6800   27.8400 N.am      2 ALA2        0.0000 
     19 N          43.9000   37.8100   28.8700 N.am      2 ALA2        0.0000 
     20 N          43.8700   39.2700   28.5300 N.am      2 ALA2        0.0000 
     21 N          43.8300   40.7300   28.1900 N.am      2 ALA2        0.0000 
     22 N          42.4400   37.8700   29.2300 N.am      2 ALA2        0.0000 
     23 N          40.9800   37.9200   29.5800 N.am      2 ALA2        0.0000 
     24 N          44.1900   41.0700   29.6100 N.am      2 ALA2        0.0000 
     25 N          42.7000   42.5900   29.6200 N.am      2 ALA2        0.0000 
     26 N          41.3400   38.2600   31.0000 N.am      2 ALA2        0.0000 
     27 N          44.5200   42.8700   30.6800 N.am      2 ALA2        0.0000 
     28 N          43.0600   42.9200   31.0400 N.am      2 ALA2        0.0000 
     29 O          38.7500   40.1600   32.7900 O.2       2 ALA2        0.0000 
     30 O          46.4300   38.7800   32.7700 O.2       2 ALA2        0.0000 
     31 O          44.9400   40.2900   32.7800 O.2       2 ALA2        0.0000 
     32 O          43.4500   41.8000   32.8000 O.2       2 ALA2        0.0000 
     33 O          43.4200   43.2600   32.4600 O.2       2 ALA2        0.0000 
     34 N          43.3900   44.7200   32.1200 N.am      2 ALA2        0.0000 
     35 O          39.1100   40.5000   34.2000 O.2       2 ALA2        0.0000 
     36 O          39.0800   41.9600   33.8600 O.2       2 ALA2        0.0000 
     37 N          39.4400   42.2900   35.2800 N.am      2 ALA2        0.0000 
     38 N          39.4100   43.7500   34.9400 N.am      2 ALA2        0.0000 
     39 N          42.6500   45.4500   35.3000 N.am      2 ALA2        0.0000 
     40 N          42.6200   46.9100   34.9600 N.am      2 ALA2        0.0000 
     41 O          41.2200   44.0400   36.0000 O.2       2 ALA2        0.0000 
     42 N          41.1900   45.5000   35.6600 N.am      2 ALA2        0.0000 
     43 N          39.7600   44.0900   36.3600 N.am      2 ALA2        0.0000 
     44 O          41.5800   44.3800   37.4200 O.2       2 ALA2        0.0000 
     45 O          40.1200   44.4300   37.7700 O.2       2 ALA2        0.0000 
     46 OD1        45.3200   39.2200   28.1800 O.co2     3 ASP3        0.0000 
     47 OD1        45.6800   39.5600   29.5900 O.co2     3 ASP3        0.0000 
     48 NZ         39.8800   38.3100   31.3500 N.4       4 LYS4        0.0000 
     49 NZ         39.8500   39.7700   31.0100 N.4       4 LYS4        0.0000 
     50 NZ         40.2400   38.6500   32.7700 N.4       4 LYS4        0.0000 
     51 NZ         38.8200   37.2400   33.4700 N.4       4 LYS4        0.0000 
     52 NZ         38.7900   38.7000   33.1300 N.4       4 LYS4        0.0000 
     53 CZ         43.0300   44.3800   30.7000 C.ar      5 PHE5        0.0000 
     54 CZ         43.0000   45.8400   30.3600 C.ar      5 PHE5        0.0000 
     55 CZ         41.9600   43.3100   32.8100 C.ar      5 PHE5        0.0000 
     56 CZ         41.9300   44.7700   32.4700 C.ar      5 PHE5        0.0000 
     57 CZ         40.5100   43.3600   33.1700 C.ar      5 PHE5        0.0000 
     58 CZ         39.0500   43.4200   33.5200 C.ar      5 PHE5        0.0000 
     59 CZ         42.2900   45.1100   33.8900 C.ar      5 PHE5        0.0000 
     60 CZ         42.2600   46.5700   33.5500 C.ar      5 PHE5        0.0000 
     61 CZ         40.8600   43.7000   34.5800 C.ar      5 PHE5        0.0000 
     62 CZ         40.8300   45.1600   34.2400 C.ar      5 PHE5        0.0000 
     63 CZ         39.7300   45.5500   36.0100 C.ar      5 PHE5        0.0000 
     64 CA         40.6300   37.5800   28.1700 C.3       6 GLY6        0.0000 
     65 CA         40.6000   39.0400   27.8200 C.3       6 GLY6        0.0000 
     66 CA         39.1400   39.0900   28.1800 C.3       6 GLY6        0.0000 
     67 CA         40.9200   40.8400   28.9000 C.3       6 GLY6        0.0000 
     68 CA         39.5000   39.4300   29.6000 C.3       6 GLY6        0.0000 
     69 CA         39.4300   42.3500   28.9200 C.3       6 GLY6        0.0000 
     70 CA         45.7100   38.1000   29.9300 C.3       6 GLY6        0.0000 
     71 CA         44.2200   39.6100   29.9500 C.3       6 GLY6        0.0000 
     72 CA         42.8000   38.2000   30.6400 C.3       6 GLY6        0.0000 
     73 CA         39.8200   41.2300   30.6700 C.3       6 GLY6        0.0000 
     74 CA         38.4000   39.8200   31.3700 C.3       6 GLY6        0.0000 
     75 CA         46.0700   38.4400   31.3500 C.3       6 GLY6        0.0000 
     76 CA         46.0400   39.9000   31.0100 C.3       6 GLY6        0.0000 
     77 CA         44.6100   38.4900   31.7100 C.3       6 GLY6        0.0000 
     78 CA         44.5800   39.9500   31.3700 C.3       6 GLY6        0.0000 
     79 CA         44.5500   41.4100   31.0200 C.3       6 GLY6        0.0000 
     80 CA         43.4800   40.3400   33.1400 C.3       6 GLY6        0.0000 
     81 CA         42.0300   40.3900   33.4900 C.3       6 GLY6        0.0000 
     82 CA         41.9900   41.8500   33.1500 C.3       6 GLY6        0.0000 
     83 CA         40.6000   38.9800   34.1900 C.3       6 GLY6        0.0000 
     84 CA         40.5700   40.4400   33.8500 C.3       6 GLY6        0.0000 
     85 CA         39.1400   39.0400   34.5400 C.3       6 GLY6        0.0000 
     86 CA         42.3200   43.6500   34.2300 C.3       6 GLY6        0.0000 
     87 CA         40.9300   40.7800   35.2600 C.3       6 GLY6        0.0000 
     88 CA         40.9000   42.2400   34.9200 C.3       6 GLY6        0.0000 
     89 CA         44.1000   45.4000   34.9500 C.3       6 GLY6        0.0000 
     90 CA         42.6800   43.9900   35.6500 C.3       6 GLY6        0.0000 
     91 CA         41.2500   42.5800   36.3400 C.3       6 GLY6        0.0000 
     92 CA         39.8000   42.6300   36.7000 C.3       6 GLY6        0.0000 
     93 DU         42.4100   39.3300   28.8900 H         7 CUB7        0.0000 
     94 DU         42.3800   40.7900   28.5500 H         7 CUB7        0.0000 
     95 DU         40.9500   39.3800   29.2400 H         7 CUB7        0.0000 
     96 DU         42.7700   39.6600   30.3000 H         7 CUB7        0.0000 
     97 DU         42.7400   41.1200   29.9600 H         7 CUB7        0.0000 
     98 DU         41.3100   39.7200   30.6600 H         7 CUB7        0.0000 
     99 DU         41.2800   41.1800   30.3200 H         7 CUB7        0.0000 
    100 DU         43.1200   40.0000   31.7200 H         7 CUB7        0.0000 
    101 DU         43.0900   41.4600   31.3800 H         7 CUB7        0.0000 
    102 DU         41.6700   40.0500   32.0800 H         7 CUB7        0.0000 
    103 DU         41.6400   41.5100   31.7300 H         7 CUB7        0.0000 
    104 DU         40.2100   40.1100   32.4300 H         7 CUB7        0.0000 
@<TRIPOS>BOND
@<TRIPOS>SUBSTRUCTURE
     1 SER1        1 GROUP   
     2 ALA2        9 GROUP   
     3 ASP3       46 GROUP   
     4 LYS4       48 GROUP   
     5 PHE5       53 GROUP   
     6 GLY6       64 GROUP   
     7 CUB7       93 GROUP   
@<TRIPOS>SET

