#    Name: 6n48_1_P0G_CAVITY_N1_8
#    Modification time : Fri May 22 19:26:54 2020

@<TRIPOS>MOLECULE
6n48_1_P0G_CAVITY_N1_8
   88     0     7     0     0
SMALL
NO_CHARGES


@<TRIPOS>ATOM
      1 OG         -9.4700  -13.7500  -58.2300 O.3       1 SER1        0.0000 
      2 OG         -7.5900  -12.3000  -57.1800 O.3       1 SER1        0.0000 
      3 OG         -8.6500  -10.4000  -55.7700 O.3       1 SER1        0.0000 
      4 OG         -5.0800   -8.9600  -53.4400 O.3       1 SER1        0.0000 
      5 OG         -8.2100  -11.2300  -51.1200 O.3       1 SER1        0.0000 
      6 OG         -8.4000  -12.7000  -50.8800 O.3       1 SER1        0.0000 
      7 OG         -6.7300  -11.4600  -51.3100 O.3       1 SER1        0.0000 
      8 OG         -6.9300  -12.9200  -51.0700 O.3       1 SER1        0.0000 
      9 OG         -4.8700   -8.7500  -51.9700 O.3       1 SER1        0.0000 
     10 N         -12.8200  -14.9800  -59.1000 N.am      2 ALA2        0.0000 
     11 N         -13.0200  -16.4500  -58.8600 N.am      2 ALA2        0.0000 
     12 O          -4.8400  -14.2200  -57.3100 O.2       2 ALA2        0.0000 
     13 N          -3.3700  -14.4500  -57.4900 N.am      2 ALA2        0.0000 
     14 N          -7.3700  -12.0900  -55.7100 N.am      2 ALA2        0.0000 
     15 O          -5.7100  -10.8500  -56.1400 O.2       2 ALA2        0.0000 
     16 O          -5.9000  -12.3200  -55.9000 O.2       2 ALA2        0.0000 
     17 N          -6.7700   -8.9400  -54.7200 N.am      2 ALA2        0.0000 
     18 N          -5.3000   -9.1700  -54.9100 N.am      2 ALA2        0.0000 
     19 O         -10.0900  -12.6800  -52.1700 O.2       2 ALA2        0.0000 
     20 O          -8.8100  -14.3800  -52.1100 O.2       2 ALA2        0.0000 
     21 N          -5.6700  -13.3600  -52.7200 N.am      2 ALA2        0.0000 
     22 N          -5.8700  -14.8300  -52.4800 N.am      2 ALA2        0.0000 
     23 O          -9.8700  -12.4700  -50.7000 O.2       2 ALA2        0.0000 
     24 O          -8.6000  -14.1700  -50.6500 O.2       2 ALA2        0.0000 
     25 N          -5.2600  -11.6800  -51.4900 N.am      2 ALA2        0.0000 
     26 OD1       -11.1600  -13.7400  -59.5200 O.co2     3 ASP3        0.0000 
     27 OD1       -11.3500  -15.2100  -59.2800 O.co2     3 ASP3        0.0000 
     28 OD1       -11.5500  -16.6700  -59.0400 O.co2     3 ASP3        0.0000 
     29 NZ         -8.0000  -13.9800  -58.4100 N.4       4 LYS4        0.0000 
     30 NZ         -6.5400   -9.9900  -51.5400 N.4       4 LYS4        0.0000 
     31 NZ         -5.0700  -10.2100  -51.7300 N.4       4 LYS4        0.0000 
     32 NZ         -4.6600   -8.5400  -50.5000 N.4       4 LYS4        0.0000 
     33 CZ        -10.9400  -13.5300  -58.0500 C.ar      5 PHE5        0.0000 
     34 CZ         -9.2600  -13.5400  -56.7600 C.ar      5 PHE5        0.0000 
     35 CZ         -3.5700  -15.9100  -57.2500 C.ar      5 PHE5        0.0000 
     36 CZ         -3.7600  -17.3800  -57.0100 C.ar      5 PHE5        0.0000 
     37 CZ        -10.5100  -13.1000  -55.1100 C.ar      5 PHE5        0.0000 
     38 CZ         -8.8500  -11.8600  -55.5300 C.ar      5 PHE5        0.0000 
     39 CZ         -9.0400  -13.3300  -55.2900 C.ar      5 PHE5        0.0000 
     40 CZ         -4.8200  -15.4800  -55.6000 C.ar      5 PHE5        0.0000 
     41 CZ        -10.1000  -11.4300  -53.8800 C.ar      5 PHE5        0.0000 
     42 CZ         -8.4400  -10.1800  -54.3000 C.ar      5 PHE5        0.0000 
     43 CZ         -8.6300  -11.6500  -54.0600 C.ar      5 PHE5        0.0000 
     44 CZ         -6.9700  -10.4100  -54.4800 C.ar      5 PHE5        0.0000 
     45 CZ         -4.4100  -13.8000  -54.3700 C.ar      5 PHE5        0.0000 
     46 CZ         -8.4200  -11.4400  -52.5900 C.ar      5 PHE5        0.0000 
     47 CZ         -6.5600   -8.7300  -53.2500 C.ar      5 PHE5        0.0000 
     48 CZ         -6.7500  -10.2000  -53.0100 C.ar      5 PHE5        0.0000 
     49 CZ         -6.9500  -11.6700  -52.7800 C.ar      5 PHE5        0.0000 
     50 CZ         -4.2000  -13.5900  -52.9000 C.ar      5 PHE5        0.0000 
     51 CZ         -6.3400   -8.5200  -51.7800 C.ar      5 PHE5        0.0000 
     52 CZ         -3.4000   -8.9700  -52.1500 C.ar      5 PHE5        0.0000 
     53 CZ         -3.5900  -10.4400  -51.9100 C.ar      5 PHE5        0.0000 
     54 CA        -12.6100  -14.7700  -57.6300 C.3       6 GLY6        0.0000 
     55 CA        -12.8100  -16.2400  -57.3900 C.3       6 GLY6        0.0000 
     56 CA        -11.1400  -14.9900  -57.8100 C.3       6 GLY6        0.0000 
     57 CA        -11.3300  -16.4600  -57.5700 C.3       6 GLY6        0.0000 
     58 CA         -9.6700  -15.2200  -57.9900 C.3       6 GLY6        0.0000 
     59 CA         -6.5300  -14.2100  -58.6000 C.3       6 GLY6        0.0000 
     60 CA         -5.0600  -14.4300  -58.7800 C.3       6 GLY6        0.0000 
     61 CA        -10.9200  -14.7800  -56.3400 C.3       6 GLY6        0.0000 
     62 CA        -11.1200  -16.2500  -56.1000 C.3       6 GLY6        0.0000 
     63 CA         -7.7800  -13.7700  -56.9400 C.3       6 GLY6        0.0000 
     64 CA         -6.1200  -12.5300  -57.3700 C.3       6 GLY6        0.0000 
     65 CA         -6.3100  -13.9900  -57.1300 C.3       6 GLY6        0.0000 
     66 CA         -6.5100  -15.4600  -56.8900 C.3       6 GLY6        0.0000 
     67 CA         -5.0400  -15.6900  -57.0700 C.3       6 GLY6        0.0000 
     68 CA         -9.2400  -14.8000  -55.0500 C.3       6 GLY6        0.0000 
     69 CA         -7.5700  -13.5600  -55.4800 C.3       6 GLY6        0.0000 
     70 CA         -6.1000  -13.7800  -55.6600 C.3       6 GLY6        0.0000 
     71 CA         -4.6300  -14.0100  -55.8400 C.3       6 GLY6        0.0000 
     72 CA        -10.3000  -12.8900  -53.6400 C.3       6 GLY6        0.0000 
     73 CA         -9.0200  -14.5900  -53.5800 C.3       6 GLY6        0.0000 
     74 CA         -7.3600  -13.3500  -54.0100 C.3       6 GLY6        0.0000 
     75 CA         -7.5500  -14.8100  -53.7700 C.3       6 GLY6        0.0000 
     76 CA         -5.4900  -10.6400  -54.6700 C.3       6 GLY6        0.0000 
     77 CA         -5.6900  -12.1000  -54.4300 C.3       6 GLY6        0.0000 
     78 CA         -6.0800  -15.0400  -53.9500 C.3       6 GLY6        0.0000 
     79 CA         -7.3400  -14.6000  -52.3000 C.3       6 GLY6        0.0000 
     80 CA         -5.2800  -10.4300  -53.2000 C.3       6 GLY6        0.0000 
     81 CA         -5.4800  -11.8900  -52.9600 C.3       6 GLY6        0.0000 
     82 CA         -4.0000  -12.1200  -53.1400 C.3       6 GLY6        0.0000 
     83 DU        -11.7400  -18.1400  -58.8000 H         7 CUB7        0.0000 
     84 DU         -8.8300  -13.1200  -53.8200 H         7 CUB7        0.0000 
     85 DU         -7.1600  -11.8800  -54.2400 H         7 CUB7        0.0000 
     86 DU         -5.8900  -13.5700  -54.1900 H         7 CUB7        0.0000 
     87 DU         -8.6100  -12.9100  -52.3500 H         7 CUB7        0.0000 
     88 DU         -7.1400  -13.1300  -52.5400 H         7 CUB7        0.0000 
@<TRIPOS>BOND
@<TRIPOS>SUBSTRUCTURE
     1 SER1        1 GROUP   
     2 ALA2       10 GROUP   
     3 ASP3       26 GROUP   
     4 LYS4       29 GROUP   
     5 PHE5       33 GROUP   
     6 GLY6       54 GROUP   
     7 CUB7       83 GROUP   
@<TRIPOS>SET

