#    Name: 6n48_1_P0G
#    Modification time : Fri May 22 19:26:53 2020

@<TRIPOS>MOLECULE
6n48_1_P0G
   27    29     1     0     0
SMALL
NO_CHARGES


@<TRIPOS>ATOM
      1 CAA        -6.0260   -9.8070  -54.1840 C.3       1 P0G1401     0.0000 
      2 CAB        -4.0310   -9.6770  -50.9990 C.3       1 P0G1401     0.0000 
      3 CAC        -3.5040  -11.9450  -51.9360 C.3       1 P0G1401     0.0000 
      4 OAD         3.1950  -12.5270  -50.3810 O.2       1 P0G1401     0.0000 
      5 OAE         2.4350  -10.6690  -45.8630 O.3       1 P0G1401     0.0000 
      6 OAF        -3.7440  -12.5330  -46.8750 O.3       1 P0G1401     0.0000 
      7 CAG        -6.6150  -13.4580  -55.2440 C.ar      1 P0G1401     0.0000 
      8 CAH        -6.5650  -14.1320  -54.0060 C.ar      1 P0G1401     0.0000 
      9 CAI        -6.4390  -12.0580  -55.2940 C.ar      1 P0G1401     0.0000 
     10 CAJ        -6.3470  -13.4190  -52.8180 C.ar      1 P0G1401     0.0000 
     11 CAK         0.0140  -11.0590  -45.5110 C.ar      1 P0G1401     0.0000 
     12 CAL        -1.2660  -11.5030  -46.0280 C.ar      1 P0G1401     0.0000 
     13 CAM         0.8740  -13.0080  -50.2090 C.3       1 P0G1401     0.0000 
     14 CAN        -3.1590  -11.3800  -48.9810 C.3       1 P0G1401     0.0000 
     15 CAO        -5.9200  -11.2040  -51.5590 C.3       1 P0G1401     0.0000 
     16 NAP        -4.4560  -11.7440  -49.6450 N.4       1 P0G1401     0.0000 
     17 NAQ         2.2480  -11.6060  -48.5240 N.am      1 P0G1401     0.0000 
     18 OAR        -0.3120  -12.5120  -49.6210 O.3       1 P0G1401     0.0000 
     19 CAS         2.1550  -12.2740  -49.7810 C.2       1 P0G1401     0.0000 
     20 CAT        -6.2180  -11.3430  -54.1220 C.ar      1 P0G1401     0.0000 
     21 CAU         1.1870  -11.0990  -46.3610 C.ar      1 P0G1401     0.0000 
     22 CAV        -6.1610  -12.0230  -52.8660 C.ar      1 P0G1401     0.0000 
     23 CAW        -1.3640  -11.9680  -47.3400 C.ar      1 P0G1401     0.0000 
     24 CAX         1.0870  -11.5700  -47.6930 C.ar      1 P0G1401     0.0000 
     25 CAY        -0.1770  -12.0110  -48.2040 C.ar      1 P0G1401     0.0000 
     26 CAZ        -2.7330  -12.4400  -47.9040 C.3       1 P0G1401     0.0000 
     27 CBA        -4.4880  -11.1550  -51.0440 C.3       1 P0G1401     0.0000 
@<TRIPOS>BOND
     1    1   20 1    
     2    2   27 1    
     3    3   27 1    
     4    4   19 2    
     5    5   21 1    
     6    6   26 1    
     7    7    8 ar   
     8    7    9 ar   
     9    8   10 ar   
    10    9   20 ar   
    11   10   22 ar   
    12   11   12 ar   
    13   11   21 ar   
    14   12   23 ar   
    15   13   18 1    
    16   13   19 1    
    17   14   16 1    
    18   14   26 1    
    19   15   22 1    
    20   15   27 1    
    21   16   27 1    
    22   17   19 am   
    23   17   24 1    
    24   18   25 1    
    25   20   22 ar   
    26   21   24 ar   
    27   23   25 ar   
    28   23   26 1    
    29   24   25 ar   
@<TRIPOS>SUBSTRUCTURE
     1 P0G1401     1 GROUP   
@<TRIPOS>SET

