#    Name: 6n7s_1_TTP
#    Modification time : Fri May 22 19:34:02 2020

@<TRIPOS>MOLECULE
6n7s_1_TTP
   29    30     1     0     0
SMALL
NO_CHARGES


@<TRIPOS>ATOM
      1 PA        158.9260  145.0720  172.3240 P.3       1 TTP700      0.0000 
      2 O1A       158.9990  146.5740  172.4570 O.co2     1 TTP700      0.0000 
      3 O2A       157.7220  144.5590  173.0760 O.co2     1 TTP700      0.0000 
      4 O3A       158.7920  144.6660  170.7320 O.3       1 TTP700      0.0000 
      5 PB        159.2100  145.4460  169.3430 P.3       1 TTP700      0.0000 
      6 O1B       158.2100  146.5430  169.0600 O.co2     1 TTP700      0.0000 
      7 O2B       160.5850  146.0480  169.4990 O.co2     1 TTP700      0.0000 
      8 O3B       159.2180  144.3740  168.0910 O.3       1 TTP700      0.0000 
      9 PG        158.0610  143.8020  167.1460 P.3       1 TTP700      0.0000 
     10 O1G       156.7680  143.7270  167.9210 O.co2     1 TTP700      0.0000 
     11 O2G       158.4400  142.4210  166.6660 O.co2     1 TTP700      0.0000 
     12 O3G       157.8840  144.7160  165.9560 O.co2     1 TTP700      0.0000 
     13 O5'       160.2930  144.3970  172.9510 O.3       1 TTP700      0.0000 
     14 C5'       161.3170  145.2420  173.3910 C.3       1 TTP700      0.0000 
     15 C4'       162.2360  144.4690  174.3640 C.3       1 TTP700      0.0000 
     16 O4'       163.6300  144.6770  174.0110 O.3       1 TTP700      0.0000 
     17 C3'       162.0490  144.9920  175.7930 C.3       1 TTP700      0.0000 
     18 O3'       162.1000  143.8840  176.7410 O.3       1 TTP700      0.0000 
     19 C2'       163.2540  145.8990  175.9860 C.3       1 TTP700      0.0000 
     20 C1'       164.3110  145.2390  175.1220 C.3       1 TTP700      0.0000 
     21 N1        165.2590  146.2440  174.6140 N.am      1 TTP700      0.0000 
     22 C2        166.7260  146.1090  174.8220 C.2       1 TTP700      0.0000 
     23 O2        167.1070  145.1560  175.4130 O.2       1 TTP700      0.0000 
     24 N3        167.6910  147.0160  174.3740 N.am      1 TTP700      0.0000 
     25 C4        167.1800  148.0750  173.7100 C.2       1 TTP700      0.0000 
     26 O4        167.9880  148.9150  173.2880 O.2       1 TTP700      0.0000 
     27 C5        165.7350  148.3270  173.4360 C.2       1 TTP700      0.0000 
     28 C5M       165.2820  149.5680  172.6700 C.3       1 TTP700      0.0000 
     29 C6        164.8230  147.4000  173.9000 C.2       1 TTP700      0.0000 
@<TRIPOS>BOND
     1    1    2 ar   
     2    1    3 ar   
     3    1    4 1    
     4    1   13 1    
     5    4    5 1    
     6    5    6 ar   
     7    5    7 ar   
     8    5    8 1    
     9    8    9 1    
    10    9   10 ar   
    11    9   11 ar   
    12    9   12 ar   
    13   13   14 1    
    14   14   15 1    
    15   15   16 1    
    16   15   17 1    
    17   16   20 1    
    18   17   18 1    
    19   17   19 1    
    20   19   20 1    
    21   20   21 1    
    22   21   22 1    
    23   21   29 1    
    24   22   23 2    
    25   22   24 1    
    26   24   25 1    
    27   25   26 2    
    28   25   27 1    
    29   27   28 1    
    30   27   29 2    
@<TRIPOS>SUBSTRUCTURE
     1 TTP700      1 GROUP   
@<TRIPOS>SET

