#    Name: 6n7s_2_TTP
#    Modification time : Fri May 22 19:34:10 2020

@<TRIPOS>MOLECULE
6n7s_2_TTP
   29    30     1     0     0
SMALL
NO_CHARGES


@<TRIPOS>ATOM
      1 PA        154.9180  169.2120  151.1280 P.3       1 TTP700      0.0000 
      2 O1A       154.9020  169.8700  149.7880 O.co2     1 TTP700      0.0000 
      3 O2A       153.5180  169.1840  151.6830 O.co2     1 TTP700      0.0000 
      4 O3A       155.5660  167.7170  150.9220 O.3       1 TTP700      0.0000 
      5 PB        155.9320  166.8500  149.5810 P.3       1 TTP700      0.0000 
      6 O1B       154.9030  167.2150  148.5570 O.co2     1 TTP700      0.0000 
      7 O2B       157.3400  167.1240  149.1280 O.co2     1 TTP700      0.0000 
      8 O3B       155.7490  165.2650  149.9030 O.3       1 TTP700      0.0000 
      9 PG        154.3960  164.5260  150.2680 P.3       1 TTP700      0.0000 
     10 O1G       153.2580  165.5110  150.1640 O.co2     1 TTP700      0.0000 
     11 O2G       154.4720  163.9500  151.6570 O.co2     1 TTP700      0.0000 
     12 O3G       154.1840  163.4200  149.2790 O.co2     1 TTP700      0.0000 
     13 O5'       155.9370  170.0820  152.0640 O.3       1 TTP700      0.0000 
     14 C5'       157.2350  170.0850  151.5670 C.3       1 TTP700      0.0000 
     15 C4'       158.1830  170.5050  152.6860 C.3       1 TTP700      0.0000 
     16 O4'       159.5300  170.2590  152.2950 O.3       1 TTP700      0.0000 
     17 C3'       158.1350  172.0100  152.7720 C.3       1 TTP700      0.0000 
     18 O3'       157.1120  172.3470  153.7430 O.3       1 TTP700      0.0000 
     19 C2'       159.5060  172.3700  153.3200 C.3       1 TTP700      0.0000 
     20 C1'       160.3210  171.1140  153.0800 C.3       1 TTP700      0.0000 
     21 N1        161.4930  171.3900  152.2590 N.am      1 TTP700      0.0000 
     22 C2        162.7390  171.9600  152.8060 C.2       1 TTP700      0.0000 
     23 O2        162.7590  172.2020  153.9590 O.2       1 TTP700      0.0000 
     24 N3        163.8890  172.2350  152.0770 N.am      1 TTP700      0.0000 
     25 C4        163.7820  171.9430  150.7780 C.2       1 TTP700      0.0000 
     26 O4        164.7710  172.1550  150.0760 O.2       1 TTP700      0.0000 
     27 C5        162.5970  171.3540  150.1100 C.2       1 TTP700      0.0000 
     28 C5M       162.6030  171.0650  148.6140 C.3       1 TTP700      0.0000 
     29 C6        161.4890  171.1020  150.8780 C.2       1 TTP700      0.0000 
@<TRIPOS>BOND
     1    1    2 ar   
     2    1    3 ar   
     3    1    4 1    
     4    1   13 1    
     5    4    5 1    
     6    5    6 ar   
     7    5    7 ar   
     8    5    8 1    
     9    8    9 1    
    10    9   10 ar   
    11    9   11 ar   
    12    9   12 ar   
    13   13   14 1    
    14   14   15 1    
    15   15   16 1    
    16   15   17 1    
    17   16   20 1    
    18   17   18 1    
    19   17   19 1    
    20   19   20 1    
    21   20   21 1    
    22   21   22 1    
    23   21   29 1    
    24   22   23 2    
    25   22   24 1    
    26   24   25 1    
    27   25   26 2    
    28   25   27 1    
    29   27   28 1    
    30   27   29 2    
@<TRIPOS>SUBSTRUCTURE
     1 TTP700      1 GROUP   
@<TRIPOS>SET

