#    Name: 6n7s_1_TTP_CAVITY_N1_4
#    Modification time : Fri May 22 19:34:04 2020

@<TRIPOS>MOLECULE
6n7s_1_TTP_CAVITY_N1_4
  106     0     7     0     0
SMALL
NO_CHARGES


@<TRIPOS>ATOM
      1 OG        158.5500  144.4500  174.2800 O.3       1 SER1        0.0000 
      2 OG        159.5500  145.1600  173.4200 O.3       1 SER1        0.0000 
      3 OG        157.7100  144.7800  176.2000 O.3       1 SER1        0.0000 
      4 OG        159.8100  144.6900  175.9600 O.3       1 SER1        0.0000 
      5 OG        160.8200  145.4100  175.1100 O.3       1 SER1        0.0000 
      6 OG        160.7100  146.9300  173.6300 O.3       1 SER1        0.0000 
      7 OG        161.8200  146.1300  174.2500 O.3       1 SER1        0.0000 
      8 OG        159.9700  145.7400  177.0300 O.3       1 SER1        0.0000 
      9 OG        160.9800  146.4600  176.1700 O.3       1 SER1        0.0000 
     10 OG        162.0800  145.6500  176.7900 O.3       1 SER1        0.0000 
     11 OG        163.1900  144.8500  177.4100 O.3       1 SER1        0.0000 
     12 OG        163.0800  146.3700  175.9300 O.3       1 SER1        0.0000 
     13 OG        164.1900  145.5700  176.5600 O.3       1 SER1        0.0000 
     14 OG        162.9800  147.8900  174.4600 O.3       1 SER1        0.0000 
     15 OG        164.0800  147.0900  175.0800 O.3       1 SER1        0.0000 
     16 OG        160.1400  146.7800  178.0900 O.3       1 SER1        0.0000 
     17 OG        161.2400  145.9800  178.7100 O.3       1 SER1        0.0000 
     18 OG        162.1400  148.2200  176.3800 O.3       1 SER1        0.0000 
     19 N         160.4900  143.3200  172.9800 N.am      2 ALA2        0.0000 
     20 N         161.5000  144.0300  172.1200 N.am      2 ALA2        0.0000 
     21 N         162.6000  143.2300  172.7400 N.am      2 ALA2        0.0000 
     22 N         164.7100  143.1500  172.5100 N.am      2 ALA2        0.0000 
     23 N         158.6500  142.9300  175.7600 N.am      2 ALA2        0.0000 
     24 N         159.6500  143.6500  174.9000 N.am      2 ALA2        0.0000 
     25 N         160.6600  144.3600  174.0400 N.am      2 ALA2        0.0000 
     26 N         161.7600  143.5600  174.6600 N.am      2 ALA2        0.0000 
     27 N         162.8700  142.7600  175.2900 N.am      2 ALA2        0.0000 
     28 O         159.4500  146.6800  171.9400 O.2       2 ALA2        0.0000 
     29 N         160.5500  145.8800  172.5600 N.am      2 ALA2        0.0000 
     30 N         161.6600  145.0800  173.1900 N.am      2 ALA2        0.0000 
     31 N         162.7600  144.2800  173.8100 N.am      2 ALA2        0.0000 
     32 N         163.8700  143.4800  174.4300 N.am      2 ALA2        0.0000 
     33 N         164.9700  142.6800  175.0500 N.am      2 ALA2        0.0000 
     34 O         161.5500  146.6000  171.7100 O.2       2 ALA2        0.0000 
     35 N         164.8700  144.1900  173.5700 N.am      2 ALA2        0.0000 
     36 N         159.9200  143.1700  177.4400 N.am      2 ALA2        0.0000 
     37 N         160.9200  143.8900  176.5800 N.am      2 ALA2        0.0000 
     38 N         162.0200  143.0900  177.2100 N.am      2 ALA2        0.0000 
     39 N         161.9200  144.6100  175.7300 N.am      2 ALA2        0.0000 
     40 N         163.0300  143.8100  176.3500 N.am      2 ALA2        0.0000 
     41 N         164.0300  144.5200  175.4900 N.am      2 ALA2        0.0000 
     42 N         162.8200  146.8400  173.3900 N.am      2 ALA2        0.0000 
     43 N         163.9200  146.0400  174.0100 N.am      2 ALA2        0.0000 
     44 N         166.1300  144.4400  175.2600 N.am      2 ALA2        0.0000 
     45 O         163.8200  147.5600  172.5400 O.2       2 ALA2        0.0000 
     46 N         164.9200  146.7600  173.1600 N.am      2 ALA2        0.0000 
     47 O         160.0800  144.2200  178.5000 O.2       2 ALA2        0.0000 
     48 N         162.1900  144.1400  178.2700 N.am      2 ALA2        0.0000 
     49 N         164.9800  149.3200  172.7400 N.am      2 ALA2        0.0000 
     50 N         167.1900  147.7200  173.9900 N.am      2 ALA2        0.0000 
     51 N         164.8800  150.8400  171.2600 N.am      2 ALA2        0.0000 
     52 O         160.2400  145.2700  179.5700 O.2       2 ALA2        0.0000 
     53 OD1       157.2800  144.2000  172.5900 O.co2     3 ASP3        0.0000 
     54 OD1       159.3900  144.1200  172.3600 O.co2     3 ASP3        0.0000 
     55 OD1       158.8100  143.9800  176.8200 O.co2     3 ASP3        0.0000 
     56 OD1       166.0300  145.9600  173.7800 O.co2     3 ASP3        0.0000 
     57 OD1       167.1400  145.1600  174.4000 O.co2     3 ASP3        0.0000 
     58 OD1       165.9300  147.4700  172.3000 O.co2     3 ASP3        0.0000 
     59 OD1       162.3500  145.1800  179.3300 O.co2     3 ASP3        0.0000 
     60 NZ        156.2800  143.4900  173.4500 N.4       4 LYS4        0.0000 
     61 NZ        157.3900  142.6800  174.0700 N.4       4 LYS4        0.0000 
     62 NZ        156.5500  143.0100  175.9900 N.4       4 LYS4        0.0000 
     63 NZ        156.4400  144.5300  174.5100 N.4       4 LYS4        0.0000 
     64 NZ        157.5500  143.7300  175.1300 N.4       4 LYS4        0.0000 
     65 NZ        158.9700  145.0200  177.8800 N.4       4 LYS4        0.0000 
     66 CZ        165.1900  146.2900  175.7000 C.ar      5 PHE5        0.0000 
     67 CZ        166.2900  145.4800  176.3200 C.ar      5 PHE5        0.0000 
     68 CZ        165.0900  147.8000  174.2200 C.ar      5 PHE5        0.0000 
     69 CZ        166.1900  147.0000  174.8400 C.ar      5 PHE5        0.0000 
     70 CZ        167.3000  146.2000  175.4600 C.ar      5 PHE5        0.0000 
     71 CZ        163.1400  148.9300  175.5200 C.ar      5 PHE5        0.0000 
     72 CZ        164.1400  149.6500  174.6600 C.ar      5 PHE5        0.0000 
     73 CZ        165.2500  148.8500  175.2800 C.ar      5 PHE5        0.0000 
     74 CZ        165.1400  150.3700  173.8100 C.ar      5 PHE5        0.0000 
     75 CZ        166.2500  149.5700  174.4300 C.ar      5 PHE5        0.0000 
     76 CZ        165.3000  151.4100  174.8700 C.ar      5 PHE5        0.0000 
     77 CA        158.3900  143.4000  173.2100 C.3       6 GLY6        0.0000 
     78 CA        160.3900  144.8400  171.5000 C.3       6 GLY6        0.0000 
     79 CA        157.4400  145.2500  173.6600 C.3       6 GLY6        0.0000 
     80 CA        158.4400  145.9700  172.8000 C.3       6 GLY6        0.0000 
     81 CA        165.9700  143.3900  174.1900 C.3       6 GLY6        0.0000 
     82 CA        161.7100  147.6400  172.7700 C.3       6 GLY6        0.0000 
     83 CA        161.9800  147.1700  175.3100 C.3       6 GLY6        0.0000 
     84 CA        161.8700  148.6900  173.8300 C.3       6 GLY6        0.0000 
     85 CA        162.8800  149.4100  172.9800 C.3       6 GLY6        0.0000 
     86 CA        163.9800  148.6100  173.6000 C.3       6 GLY6        0.0000 
     87 CA        163.8800  150.1200  172.1200 C.3       6 GLY6        0.0000 
     88 CA        165.9800  150.0400  171.8900 C.3       6 GLY6        0.0000 
     89 CA        167.0900  149.2400  172.5100 C.3       6 GLY6        0.0000 
     90 CA        161.1400  147.5000  177.2300 C.3       6 GLY6        0.0000 
     91 CA        162.0300  149.7400  174.9000 C.3       6 GLY6        0.0000 
     92 CA        163.0400  150.4500  174.0400 C.3       6 GLY6        0.0000 
     93 CA        162.9300  151.9700  172.5600 C.3       6 GLY6        0.0000 
     94 CA        164.0400  151.1700  173.1800 C.3       6 GLY6        0.0000 
     95 CA        163.9300  152.6900  171.7100 C.3       6 GLY6        0.0000 
     96 CA        165.0400  151.8900  172.3300 C.3       6 GLY6        0.0000 
     97 CA        166.1400  151.0800  172.9500 C.3       6 GLY6        0.0000 
     98 CA        167.2500  150.2800  173.5700 C.3       6 GLY6        0.0000 
     99 CA        166.0400  152.6000  171.4700 C.3       6 GLY6        0.0000 
    100 CA        163.2000  151.5000  175.1000 C.3       6 GLY6        0.0000 
    101 CA        165.2000  152.9300  173.3900 C.3       6 GLY6        0.0000 
    102 CA        166.3000  152.1300  174.0100 C.3       6 GLY6        0.0000 
    103 DU        162.9200  145.3200  174.8700 H         7 CUB7        0.0000 
    104 DU        165.0300  145.2400  174.6400 H         7 CUB7        0.0000 
    105 DU        161.0800  144.9400  177.6500 H         7 CUB7        0.0000 
    106 DU        166.0900  148.5200  173.3600 H         7 CUB7        0.0000 
@<TRIPOS>BOND
@<TRIPOS>SUBSTRUCTURE
     1 SER1        1 GROUP   
     2 ALA2       19 GROUP   
     3 ASP3       53 GROUP   
     4 LYS4       60 GROUP   
     5 PHE5       66 GROUP   
     6 GLY6       77 GROUP   
     7 CUB7      103 GROUP   
@<TRIPOS>SET

