#    Name: 6n7s_3_TTP
#    Modification time : Fri May 22 19:34:17 2020

@<TRIPOS>MOLECULE
6n7s_3_TTP
   29    30     1     0     0
SMALL
NO_CHARGES


@<TRIPOS>ATOM
      1 PA        154.9710  164.4260  118.9000 P.3       1 TTP700      0.0000 
      2 O1A       155.4960  163.7140  117.6760 O.co2     1 TTP700      0.0000 
      3 O2A       153.6050  164.9970  118.6020 O.co2     1 TTP700      0.0000 
      4 O3A       154.8580  163.3590  120.1510 O.3       1 TTP700      0.0000 
      5 PB        154.4170  161.7730  120.2300 P.3       1 TTP700      0.0000 
      6 O1B       155.6370  160.9220  120.4870 O.co2     1 TTP700      0.0000 
      7 O2B       153.7820  161.3640  118.9230 O.co2     1 TTP700      0.0000 
      8 O3B       153.3340  161.5640  121.4560 O.3       1 TTP700      0.0000 
      9 PG        151.7430  161.3920  121.4800 P.3       1 TTP700      0.0000 
     10 O1G       151.3780  160.0150  120.9800 O.co2     1 TTP700      0.0000 
     11 O2G       151.1100  162.4360  120.5900 O.co2     1 TTP700      0.0000 
     12 O3G       151.2410  161.5650  122.8930 O.co2     1 TTP700      0.0000 
     13 O5'       155.9990  165.6460  119.3100 O.3       1 TTP700      0.0000 
     14 C5'       157.3750  165.4410  119.1590 C.3       1 TTP700      0.0000 
     15 C4'       158.1240  166.7620  119.4450 C.3       1 TTP700      0.0000 
     16 O4'       159.3870  166.4940  120.1060 O.3       1 TTP700      0.0000 
     17 C3'       158.4950  167.4540  118.1360 C.3       1 TTP700      0.0000 
     18 O3'       157.4600  168.4140  117.7660 O.3       1 TTP700      0.0000 
     19 C2'       159.7780  168.1820  118.4970 C.3       1 TTP700      0.0000 
     20 C1'       160.4330  167.2370  119.4920 C.3       1 TTP700      0.0000 
     21 N1        161.3090  166.2860  118.7880 N.am      1 TTP700      0.0000 
     22 C2        162.7600  166.5500  118.5990 C.2       1 TTP700      0.0000 
     23 O2        163.1940  167.5620  119.0400 O.2       1 TTP700      0.0000 
     24 N3        163.6560  165.7000  117.9430 N.am      1 TTP700      0.0000 
     25 C4        163.0900  164.5700  117.4700 C.2       1 TTP700      0.0000 
     26 O4        163.8330  163.7740  116.8780 O.2       1 TTP700      0.0000 
     27 C5        161.6520  164.1880  117.5930 C.2       1 TTP700      0.0000 
     28 C5M       161.1310  162.8750  117.0130 C.3       1 TTP700      0.0000 
     29 C6        160.8090  165.0640  118.2510 C.2       1 TTP700      0.0000 
@<TRIPOS>BOND
     1    1    2 ar   
     2    1    3 ar   
     3    1    4 1    
     4    1   13 1    
     5    4    5 1    
     6    5    6 ar   
     7    5    7 ar   
     8    5    8 1    
     9    8    9 1    
    10    9   10 ar   
    11    9   11 ar   
    12    9   12 ar   
    13   13   14 1    
    14   14   15 1    
    15   15   16 1    
    16   15   17 1    
    17   16   20 1    
    18   17   18 1    
    19   17   19 1    
    20   19   20 1    
    21   20   21 1    
    22   21   22 1    
    23   21   29 1    
    24   22   23 2    
    25   22   24 1    
    26   24   25 1    
    27   25   26 2    
    28   25   27 1    
    29   27   28 1    
    30   27   29 2    
@<TRIPOS>SUBSTRUCTURE
     1 TTP700      1 GROUP   
@<TRIPOS>SET

