#    Name: 6n7s_2_TTP_CAVITY_N1_4
#    Modification time : Fri May 22 19:34:11 2020

@<TRIPOS>MOLECULE
6n7s_2_TTP_CAVITY_N1_4
   97     0     7     0     0
SMALL
NO_CHARGES


@<TRIPOS>ATOM
      1 OG        155.9400  170.5800  151.0700 O.3       1 SER1        0.0000 
      2 OG        157.0500  169.7800  151.6900 O.3       1 SER1        0.0000 
      3 OG        158.0500  170.5000  150.8300 O.3       1 SER1        0.0000 
      4 OG        160.0500  171.9300  149.1200 O.3       1 SER1        0.0000 
      5 OG        156.1000  171.6300  152.1300 O.3       1 SER1        0.0000 
      6 OG        158.2100  171.5500  151.9000 O.3       1 SER1        0.0000 
      7 OG        160.3200  171.4600  151.6600 O.3       1 SER1        0.0000 
      8 OG        160.2100  172.9800  150.1800 O.3       1 SER1        0.0000 
      9 OG        157.2600  173.3900  152.3400 O.3       1 SER1        0.0000 
     10 OG        158.3700  172.5900  152.9600 O.3       1 SER1        0.0000 
     11 OG        157.4200  174.4400  153.4000 O.3       1 SER1        0.0000 
     12 OG        158.5300  173.6400  154.0200 O.3       1 SER1        0.0000 
     13 OG        156.4800  176.2900  153.8400 O.3       1 SER1        0.0000 
     14 O         155.7800  169.5400  150.0100 O.2       2 ALA2        0.0000 
     15 O         156.8900  168.7400  150.6300 O.2       2 ALA2        0.0000 
     16 N         162.0000  170.8000  147.8200 N.am      2 ALA2        0.0000 
     17 N         163.1000  170.0000  148.4500 N.am      2 ALA2        0.0000 
     18 N         160.7900  173.1200  145.7200 N.am      2 ALA2        0.0000 
     19 N         158.1500  168.9800  152.3100 N.am      2 ALA2        0.0000 
     20 N         159.2600  168.1800  152.9300 N.am      2 ALA2        0.0000 
     21 N         160.3600  167.3800  153.5600 N.am      2 ALA2        0.0000 
     22 O         159.1500  169.7000  151.4600 O.2       2 ALA2        0.0000 
     23 N         160.2600  168.9000  152.0800 N.am      2 ALA2        0.0000 
     24 O         160.1500  170.4100  150.6000 O.2       2 ALA2        0.0000 
     25 N         162.1600  171.8500  148.8900 N.am      2 ALA2        0.0000 
     26 N         156.2100  170.1100  153.6100 N.am      2 ALA2        0.0000 
     27 N         157.2100  170.8300  152.7500 N.am      2 ALA2        0.0000 
     28 N         158.3100  170.0300  153.3800 N.am      2 ALA2        0.0000 
     29 N         159.4200  169.2300  154.0000 N.am      2 ALA2        0.0000 
     30 N         160.5200  168.4200  154.6200 N.am      2 ALA2        0.0000 
     31 N         155.2600  171.9600  154.0500 N.am      2 ALA2        0.0000 
     32 N         156.3700  171.1600  154.6700 N.am      2 ALA2        0.0000 
     33 N         157.3700  171.8700  153.8200 N.am      2 ALA2        0.0000 
     34 N         159.4700  171.7900  153.5800 N.am      2 ALA2        0.0000 
     35 N         160.5800  170.9900  154.2000 N.am      2 ALA2        0.0000 
     36 O         154.4200  172.2900  155.9700 O.2       2 ALA2        0.0000 
     37 O         154.3200  173.8100  154.4900 O.2       2 ALA2        0.0000 
     38 O         155.4200  173.0100  155.1200 O.2       2 ALA2        0.0000 
     39 N         156.5300  172.2000  155.7400 N.am      2 ALA2        0.0000 
     40 O         156.4200  173.7200  154.2600 O.2       2 ALA2        0.0000 
     41 N         157.5300  172.9200  154.8800 N.am      2 ALA2        0.0000 
     42 N         158.6300  172.1200  155.5000 N.am      2 ALA2        0.0000 
     43 N         159.6400  172.8400  154.6500 N.am      2 ALA2        0.0000 
     44 N         156.6900  173.2500  156.8000 N.am      2 ALA2        0.0000 
     45 OD1       153.7800  168.1000  151.7200 O.co2     3 ASP3        0.0000 
     46 OD1       153.6700  169.6200  150.2400 O.co2     3 ASP3        0.0000 
     47 OD1       154.7800  168.8200  150.8600 O.co2     3 ASP3        0.0000 
     48 OD1       162.2600  170.3300  150.3600 O.co2     3 ASP3        0.0000 
     49 OD1       163.2600  171.0500  149.5100 O.co2     3 ASP3        0.0000 
     50 OD1       152.8900  172.5200  151.7500 O.co2     3 ASP3        0.0000 
     51 OD1       154.0000  171.7100  152.3700 O.co2     3 ASP3        0.0000 
     52 OD1       160.4200  169.9400  153.1400 O.co2     3 ASP3        0.0000 
     53 OD1       161.5200  169.1400  153.7600 O.co2     3 ASP3        0.0000 
     54 OD1       161.4200  170.6600  152.2800 O.co2     3 ASP3        0.0000 
     55 OD1       162.4200  171.3800  151.4300 O.co2     3 ASP3        0.0000 
     56 OD1       154.1600  172.7600  153.4300 O.co2     3 ASP3        0.0000 
     57 OD1       156.2600  172.6800  153.2000 O.co2     3 ASP3        0.0000 
     58 OD1       163.6900  171.6200  153.1100 O.co2     3 ASP3        0.0000 
     59 OD1       155.3200  174.5200  153.6400 O.co2     3 ASP3        0.0000 
     60 OD1       156.3200  175.2400  152.7800 O.co2     3 ASP3        0.0000 
     61 OD1       157.6900  173.9700  155.9400 O.co2     3 ASP3        0.0000 
     62 NZ        152.8300  169.9500  152.1600 N.4       4 LYS4        0.0000 
     63 NZ        152.9900  171.0000  153.2200 N.4       4 LYS4        0.0000 
     64 NZ        153.1600  172.0400  154.2900 N.4       4 LYS4        0.0000 
     65 CZ        161.3200  172.1800  150.8100 C.ar      5 PHE5        0.0000 
     66 CZ        161.2100  173.7000  149.3300 C.ar      5 PHE5        0.0000 
     67 CZ        162.3200  172.8900  149.9500 C.ar      5 PHE5        0.0000 
     68 CZ        159.3700  173.3100  152.1000 C.ar      5 PHE5        0.0000 
     69 CZ        160.4800  172.5100  152.7300 C.ar      5 PHE5        0.0000 
     70 CZ        162.5800  172.4200  152.4900 C.ar      5 PHE5        0.0000 
     71 CA        161.7300  171.2700  145.2800 C.3       6 GLY6        0.0000 
     72 CA        155.8800  168.0200  151.4900 C.3       6 GLY6        0.0000 
     73 CA        156.9900  167.2200  152.1100 C.3       6 GLY6        0.0000 
     74 CA        157.9900  167.9400  151.2500 C.3       6 GLY6        0.0000 
     75 CA        160.8900  171.6000  147.2000 C.3       6 GLY6        0.0000 
     76 CA        161.8900  172.3200  146.3500 C.3       6 GLY6        0.0000 
     77 CA        163.0000  171.5200  146.9700 C.3       6 GLY6        0.0000 
     78 CA        153.9400  169.1500  152.7800 C.3       6 GLY6        0.0000 
     79 CA        153.8400  170.6700  151.3100 C.3       6 GLY6        0.0000 
     80 CA        156.0500  169.0700  152.5500 C.3       6 GLY6        0.0000 
     81 CA        157.1500  168.2600  153.1700 C.3       6 GLY6        0.0000 
     82 CA        158.2600  167.4600  153.7900 C.3       6 GLY6        0.0000 
     83 CA        154.8400  171.3900  150.4500 C.3       6 GLY6        0.0000 
     84 CA        161.1600  171.1300  149.7400 C.3       6 GLY6        0.0000 
     85 CA        161.0500  172.6500  148.2700 C.3       6 GLY6        0.0000 
     86 CA        162.0500  173.3700  147.4100 C.3       6 GLY6        0.0000 
     87 CA        163.1600  172.5600  148.0300 C.3       6 GLY6        0.0000 
     88 CA        164.2600  171.7600  148.6500 C.3       6 GLY6        0.0000 
     89 CA        154.1000  170.2000  153.8500 C.3       6 GLY6        0.0000 
     90 CA        163.4200  172.0900  150.5700 C.3       6 GLY6        0.0000 
     91 CA        154.2600  171.2400  154.9100 C.3       6 GLY6        0.0000 
     92 CA        161.5800  171.7100  153.3500 C.3       6 GLY6        0.0000 
     93 CA        162.6900  170.9000  153.9700 C.3       6 GLY6        0.0000 
     94 CA        155.5300  171.4900  156.5900 C.3       6 GLY6        0.0000 
     95 DU        154.9400  169.8700  151.9300 H         7 CUB7        0.0000 
     96 DU        155.1000  170.9100  152.9900 H         7 CUB7        0.0000 
     97 DU        159.3100  170.7400  152.5200 H         7 CUB7        0.0000 
@<TRIPOS>BOND
@<TRIPOS>SUBSTRUCTURE
     1 SER1        1 GROUP   
     2 ALA2       14 GROUP   
     3 ASP3       45 GROUP   
     4 LYS4       62 GROUP   
     5 PHE5       65 GROUP   
     6 GLY6       71 GROUP   
     7 CUB7       95 GROUP   
@<TRIPOS>SET

