#    Name: 6n7s_4_TTP
#    Modification time : Fri May 22 19:34:23 2020

@<TRIPOS>MOLECULE
6n7s_4_TTP
   29    30     1     0     0
SMALL
NO_CHARGES


@<TRIPOS>ATOM
      1 PA        154.7920  134.3680  106.2380 P.3       1 TTP700      0.0000 
      2 O1A       154.7380  132.8600  106.3130 O.co2     1 TTP700      0.0000 
      3 O2A       154.3000  134.8210  104.8840 O.co2     1 TTP700      0.0000 
      4 O3A       153.8350  135.0120  107.4140 O.3       1 TTP700      0.0000 
      5 PB        152.2620  134.7560  107.8370 P.3       1 TTP700      0.0000 
      6 O1B       152.0160  133.2750  107.9900 O.co2     1 TTP700      0.0000 
      7 O2B       151.3560  135.3080  106.7630 O.co2     1 TTP700      0.0000 
      8 O3B       151.9470  135.5150  109.2650 O.3       1 TTP700      0.0000 
      9 PG        151.4030  134.9890  110.6750 P.3       1 TTP700      0.0000 
     10 O1G       152.4680  134.1570  111.3470 O.co2     1 TTP700      0.0000 
     11 O2G       150.1690  134.1460  110.4550 O.co2     1 TTP700      0.0000 
     12 O3G       151.0560  136.1680  111.5520 O.co2     1 TTP700      0.0000 
     13 O5'       156.3460  134.8730  106.4550 O.3       1 TTP700      0.0000 
     14 C5'       157.2700  134.6500  105.4280 C.3       1 TTP700      0.0000 
     15 C4'       157.9480  135.9840  105.0470 C.3       1 TTP700      0.0000 
     16 O4'       159.2190  136.1110  105.7350 O.3       1 TTP700      0.0000 
     17 C3'       158.2810  135.9980  103.5540 C.3       1 TTP700      0.0000 
     18 O3'       158.2830  137.3700  103.0560 O.3       1 TTP700      0.0000 
     19 C2'       159.6900  135.4310  103.5230 C.3       1 TTP700      0.0000 
     20 C1'       160.2920  135.9520  104.8170 C.3       1 TTP700      0.0000 
     21 N1        161.2200  134.9580  105.3800 N.am      1 TTP700      0.0000 
     22 C2        162.6920  135.1720  105.3820 C.2       1 TTP700      0.0000 
     23 O2        163.0970  136.1810  104.9110 O.2       1 TTP700      0.0000 
     24 N3        163.6360  134.2790  105.8970 N.am      1 TTP700      0.0000 
     25 C4        163.0990  133.1550  106.4160 C.2       1 TTP700      0.0000 
     26 O4        163.8860  132.3230  106.8880 O.2       1 TTP700      0.0000 
     27 C5        161.6460  132.8210  106.4760 C.2       1 TTP700      0.0000 
     28 C5M       161.1610  131.5100  107.0930 C.3       1 TTP700      0.0000 
     29 C6        160.7550  133.7370  105.9540 C.2       1 TTP700      0.0000 
@<TRIPOS>BOND
     1    1    2 ar   
     2    1    3 ar   
     3    1    4 1    
     4    1   13 1    
     5    4    5 1    
     6    5    6 ar   
     7    5    7 ar   
     8    5    8 1    
     9    8    9 1    
    10    9   10 ar   
    11    9   11 ar   
    12    9   12 ar   
    13   13   14 1    
    14   14   15 1    
    15   15   16 1    
    16   15   17 1    
    17   16   20 1    
    18   17   18 1    
    19   17   19 1    
    20   19   20 1    
    21   20   21 1    
    22   21   22 1    
    23   21   29 1    
    24   22   23 2    
    25   22   24 1    
    26   24   25 1    
    27   25   26 2    
    28   25   27 1    
    29   27   28 1    
    30   27   29 2    
@<TRIPOS>SUBSTRUCTURE
     1 TTP700      1 GROUP   
@<TRIPOS>SET

