#    Name: 6c1d_2_ADP
#    Modification time : Fri May 22 19:31:03 2020

@<TRIPOS>MOLECULE
6c1d_2_ADP
   27    29     1     0     1
SMALL
NO_CHARGES


@<TRIPOS>ATOM
      1 PB        276.8530  257.7860  307.4840 P.3       1 ADP401      0.0000 
      2 O1B       275.6160  257.9980  306.6580 O.co2     1 ADP401      0.0000 
      3 O2B       276.9580  258.7520  308.6260 O.co2     1 ADP401      0.0000 
      4 O3B       278.1220  257.5520  306.7040 O.co2     1 ADP401      0.0000 
      5 PA        277.0560  255.0100  307.4950 P.3       1 ADP401      0.0000 
      6 O1A       276.8490  255.0420  306.0090 O.co2     1 ADP401      0.0000 
      7 O2A       278.3980  254.6570  308.0570 O.co2     1 ADP401      0.0000 
      8 O3A       276.5580  256.3780  308.1530 O.3       1 ADP401      0.0000 
      9 O5'       275.9560  254.0880  308.1800 O.3       1 ADP401      0.0000 
     10 C5'       275.6070  254.4060  309.5190 C.3       1 ADP401      0.0000 
     11 C4'       274.2970  253.7290  309.8480 C.3       1 ADP401      0.0000 
     12 O4'       274.4570  252.3400  309.6140 O.3       1 ADP401      0.0000 
     13 C3'       273.9130  253.8880  311.2940 C.3       1 ADP401      0.0000 
     14 O3'       272.5390  254.2320  311.3540 O.3       1 ADP401      0.0000 
     15 C2'       274.0030  252.5170  311.8890 C.3       1 ADP401      0.0000 
     16 O2'       272.8510  252.3410  312.6980 O.3       1 ADP401      0.0000 
     17 C1'       273.9540  251.5890  310.7040 C.3       1 ADP401      0.0000 
     18 N9        274.8500  250.4470  310.9240 N.pl3     1 ADP401      0.0000 
     19 C8        276.1560  250.5380  311.1990 C.2       1 ADP401      0.0000 
     20 N7        276.7040  249.3120  311.3470 N.2       1 ADP401      0.0000 
     21 C5        275.7240  248.4200  311.1670 C.ar      1 ADP401      0.0000 
     22 C6        275.6200  246.9550  311.1850 C.ar      1 ADP401      0.0000 
     23 N6        276.7020  246.1850  311.4370 N.pl3     1 ADP401      0.0000 
     24 N1        274.4120  246.4160  310.9420 N.ar      1 ADP401      0.0000 
     25 C2        273.3310  247.1730  310.6930 C.ar      1 ADP401      0.0000 
     26 N3        273.3520  248.5080  310.6600 N.ar      1 ADP401      0.0000 
     27 C4        274.5010  249.1710  310.8870 C.ar      1 ADP401      0.0000 
@<TRIPOS>BOND
     1    1    2 ar   
     2    1    3 ar   
     3    1    4 ar   
     4    1    8 1    
     5    5    6 ar   
     6    5    7 ar   
     7    5    8 1    
     8    5    9 1    
     9    9   10 1    
    10   10   11 1    
    11   11   12 1    
    12   11   13 1    
    13   12   17 1    
    14   13   14 1    
    15   13   15 1    
    16   15   16 1    
    17   15   17 1    
    18   17   18 1    
    19   18   19 1    
    20   18   27 1    
    21   19   20 2    
    22   20   21 1    
    23   21   22 ar   
    24   21   27 ar   
    25   22   23 1    
    26   22   24 ar   
    27   24   25 ar   
    28   25   26 ar   
    29   26   27 ar   
@<TRIPOS>SUBSTRUCTURE
     1 ADP401      1 GROUP   
@<TRIPOS>SET
ATOM$ORANGE STATIC     ATOMS   COLORGROUP SYSTEM 
20 10 10 11 11 13 13 15 15 17 17 19 19 21 21 22 22 25 \
25 27 27 

