#    Name: 6c1d_7_ADP_CAVITY_N1_6
#    Modification time : Fri May 22 19:31:44 2020

@<TRIPOS>MOLECULE
6c1d_7_ADP_CAVITY_N1_6
   86     0     6     0     0
SMALL
NO_CHARGES


@<TRIPOS>ATOM
      1 O         191.0900  293.7100  252.4100 O.2       1 ALA2        0.0000 
      2 O         192.4800  293.9200  250.8200 O.2       1 ALA2        0.0000 
      3 O         193.0700  292.9800  252.6200 O.2       1 ALA2        0.0000 
      4 N         193.9500  292.0400  251.8400 N.am      1 ALA2        0.0000 
      5 O         193.5800  294.1300  251.8100 O.2       1 ALA2        0.0000 
      6 N         194.4600  293.2000  251.0300 N.am      1 ALA2        0.0000 
      7 O         194.5500  291.1100  253.6500 O.2       1 ALA2        0.0000 
      8 N         196.0700  294.5600  251.2000 N.am      1 ALA2        0.0000 
      9 O         193.3900  292.0400  257.0100 O.2       1 ALA2        0.0000 
     10 O         196.5300  290.3800  253.8600 O.2       1 ALA2        0.0000 
     11 N         196.6700  293.6200  253.0100 N.am      1 ALA2        0.0000 
     12 N         197.1800  294.7700  252.1900 N.am      1 ALA2        0.0000 
     13 N         197.6900  295.9300  251.3800 N.am      1 ALA2        0.0000 
     14 O         195.0100  293.4100  257.1900 O.2       1 ALA2        0.0000 
     15 O         194.6400  295.5000  257.1500 O.2       1 ALA2        0.0000 
     16 O         195.5200  294.5600  256.3700 O.2       1 ALA2        0.0000 
     17 O         196.3900  293.6200  255.5900 O.2       1 ALA2        0.0000 
     18 N         197.2700  292.6800  254.8200 N.am      1 ALA2        0.0000 
     19 O         196.0200  295.7100  255.5500 O.2       1 ALA2        0.0000 
     20 O         195.2400  294.5600  258.9500 O.2       1 ALA2        0.0000 
     21 O         196.1100  293.6200  258.1800 O.2       1 ALA2        0.0000 
     22 O         195.7500  295.7100  258.1400 O.2       1 ALA2        0.0000 
     23 OD1       195.1500  290.1700  255.4600 O.co2     2 ASP3        0.0000 
     24 OD1       196.0200  289.2300  254.6800 O.co2     2 ASP3        0.0000 
     25 OD1       195.6600  291.3200  254.6400 O.co2     2 ASP3        0.0000 
     26 OD1       193.6200  293.1900  258.7800 O.co2     2 ASP3        0.0000 
     27 OD1       195.3800  291.3200  257.2200 O.co2     2 ASP3        0.0000 
     28 OD1       193.2600  295.2800  258.7400 O.co2     2 ASP3        0.0000 
     29 OD1       195.8800  292.4700  256.4100 O.co2     2 ASP3        0.0000 
     30 OD1       196.7600  291.5300  255.6300 O.co2     2 ASP3        0.0000 
     31 NZ        191.9200  293.9200  255.9800 N.4       3 LYS4        0.0000 
     32 NZ        192.5200  292.9800  257.7900 N.4       3 LYS4        0.0000 
     33 NZ        194.7300  293.4100  259.7700 N.4       3 LYS4        0.0000 
     34 NZ        196.9900  292.6800  257.4000 N.4       3 LYS4        0.0000 
     35 CZ        191.6000  294.8600  251.5900 C.ar      4 PHE5        0.0000 
     36 CZ        192.1100  296.0100  250.7800 C.ar      4 PHE5        0.0000 
     37 CZ        194.0900  295.2900  250.9900 C.ar      4 PHE5        0.0000 
     38 CZ        194.9700  294.3500  250.2100 C.ar      4 PHE5        0.0000 
     39 CA        189.6200  295.5800  251.3800 C.3       5 GLY6        0.0000 
     40 CA        192.6200  297.1600  249.9600 C.3       5 GLY6        0.0000 
     41 CA        190.8100  293.7000  254.9900 C.3       5 GLY6        0.0000 
     42 CA        191.6900  292.7700  254.2100 C.3       5 GLY6        0.0000 
     43 CA        192.5700  291.8300  253.4400 C.3       5 GLY6        0.0000 
     44 CA        193.7200  297.3700  250.9500 C.3       5 GLY6        0.0000 
     45 CA        192.2900  291.8300  256.0200 C.3       5 GLY6        0.0000 
     46 CA        193.1600  290.8900  255.2400 C.3       5 GLY6        0.0000 
     47 CA        192.8000  292.9800  255.2000 C.3       5 GLY6        0.0000 
     48 CA        193.6700  292.0400  254.4300 C.3       5 GLY6        0.0000 
     49 CA        195.0600  292.2600  252.8300 C.3       5 GLY6        0.0000 
     50 CA        195.5700  293.4100  252.0200 C.3       5 GLY6        0.0000 
     51 CA        195.7100  296.6500  251.1600 C.3       5 GLY6        0.0000 
     52 CA        196.5800  295.7100  250.3900 C.3       5 GLY6        0.0000 
     53 CA        196.2100  297.8000  250.3500 C.3       5 GLY6        0.0000 
     54 CA        194.2700  291.1000  256.2300 C.3       5 GLY6        0.0000 
     55 CA        196.1600  292.4700  253.8200 C.3       5 GLY6        0.0000 
     56 CA        195.9400  297.8000  252.9300 C.3       5 GLY6        0.0000 
     57 CA        196.4400  298.9500  252.1200 C.3       5 GLY6        0.0000 
     58 CA        197.3200  298.0200  251.3400 C.3       5 GLY6        0.0000 
     59 CA        194.5000  292.2500  258.0000 C.3       5 GLY6        0.0000 
     60 CA        196.9000  294.7700  254.7800 C.3       5 GLY6        0.0000 
     61 CA        197.4100  295.9200  253.9600 C.3       5 GLY6        0.0000 
     62 CA        198.2900  294.9900  253.1800 C.3       5 GLY6        0.0000 
     63 CA        197.9200  297.0800  253.1500 C.3       5 GLY6        0.0000 
     64 CA        198.7900  296.1400  252.3700 C.3       5 GLY6        0.0000 
     65 DU        192.2000  293.9200  253.4000 H         6 CUB7        0.0000 
     66 DU        192.7100  295.0700  252.5800 H         6 CUB7        0.0000 
     67 DU        193.2100  296.2200  251.7700 H         6 CUB7        0.0000 
     68 DU        192.4300  295.0700  255.1700 H         6 CUB7        0.0000 
     69 DU        194.1800  293.2000  253.6100 H         6 CUB7        0.0000 
     70 DU        194.6900  294.3500  252.8000 H         6 CUB7        0.0000 
     71 DU        194.3200  296.4400  252.7600 H         6 CUB7        0.0000 
     72 DU        195.2000  295.5000  251.9800 H         6 CUB7        0.0000 
     73 DU        194.8300  297.5900  251.9400 H         6 CUB7        0.0000 
     74 DU        193.0300  294.1300  256.9700 H         6 CUB7        0.0000 
     75 DU        193.9000  293.1900  256.1900 H         6 CUB7        0.0000 
     76 DU        194.7800  292.2600  255.4200 H         6 CUB7        0.0000 
     77 DU        193.5300  295.2800  256.1600 H         6 CUB7        0.0000 
     78 DU        194.4100  294.3500  255.3800 H         6 CUB7        0.0000 
     79 DU        195.2900  293.4100  254.6000 H         6 CUB7        0.0000 
     80 DU        194.9200  295.5000  254.5600 H         6 CUB7        0.0000 
     81 DU        195.8000  294.5600  253.7900 H         6 CUB7        0.0000 
     82 DU        195.4300  296.6500  253.7500 H         6 CUB7        0.0000 
     83 DU        196.3000  295.7100  252.9700 H         6 CUB7        0.0000 
     84 DU        196.8100  296.8600  252.1600 H         6 CUB7        0.0000 
     85 DU        194.1300  294.3400  257.9600 H         6 CUB7        0.0000 
     86 DU        194.3600  295.4900  259.7300 H         6 CUB7        0.0000 
@<TRIPOS>BOND
@<TRIPOS>SUBSTRUCTURE
     1 ALA2        1 GROUP   
     2 ASP3       23 GROUP   
     3 LYS4       31 GROUP   
     4 PHE5       35 GROUP   
     5 GLY6       39 GROUP   
     6 CUB7       65 GROUP   
@<TRIPOS>SET

