#    Name: 6c1d_6_ADP
#    Modification time : Fri May 22 19:31:31 2020

@<TRIPOS>MOLECULE
6c1d_6_ADP
   27    29     1     0     1
SMALL
NO_CHARGES


@<TRIPOS>ATOM
      1 PB        268.9750  245.4440  196.9940 P.3       1 ADP401      0.0000 
      2 O1B       268.4430  246.5000  196.0630 O.co2     1 ADP401      0.0000 
      3 O2B       269.8900  245.9540  198.0710 O.co2     1 ADP401      0.0000 
      4 O3B       269.4250  244.1840  196.3010 O.co2     1 ADP401      0.0000 
      5 PA        266.8450  243.7410  197.2380 P.3       1 ADP401      0.0000 
      6 O1A       266.6200  243.8870  195.7540 O.co2     1 ADP401      0.0000 
      7 O2A       267.4880  242.5140  197.8160 O.co2     1 ADP401      0.0000 
      8 O3A       267.6550  245.0080  197.7690 O.3       1 ADP401      0.0000 
      9 O5'       265.4690  244.0100  197.9920 O.3       1 ADP401      0.0000 
     10 C5'       265.5180  244.3460  199.3660 C.3       1 ADP401      0.0000 
     11 C4'       264.1980  245.0120  199.6980 C.3       1 ADP401      0.0000 
     12 O4'       263.1470  244.0940  199.4110 O.3       1 ADP401      0.0000 
     13 C3'       264.1220  245.3610  201.1630 C.3       1 ADP401      0.0000 
     14 O3'       263.7230  246.7140  201.3050 O.3       1 ADP401      0.0000 
     15 C2'       262.9890  244.5420  201.6990 C.3       1 ADP401      0.0000 
     16 O2'       262.1620  245.4090  202.4650 O.3       1 ADP401      0.0000 
     17 C1'       262.2410  244.0070  200.5000 C.3       1 ADP401      0.0000 
     18 N9        261.8910  242.5940  200.7420 N.pl3     1 ADP401      0.0000 
     19 C8        262.7720  241.6060  200.9430 C.2       1 ADP401      0.0000 
     20 N7        262.1440  240.4240  201.1400 N.2       1 ADP401      0.0000 
     21 C5        260.8280  240.6570  201.0670 C.ar      1 ADP401      0.0000 
     22 C6        259.6040  239.8460  201.1810 C.ar      1 ADP401      0.0000 
     23 N6        259.6700  238.5190  201.4230 N.pl3     1 ADP401      0.0000 
     24 N1        258.4220  240.4710  201.0370 N.ar      1 ADP401      0.0000 
     25 C2        258.3460  241.7890  200.7970 C.ar      1 ADP401      0.0000 
     26 N3        259.4170  242.5850  200.6810 N.ar      1 ADP401      0.0000 
     27 C4        260.6660  242.0880  200.8060 C.ar      1 ADP401      0.0000 
@<TRIPOS>BOND
     1    1    2 ar   
     2    1    3 ar   
     3    1    4 ar   
     4    1    8 1    
     5    5    6 ar   
     6    5    7 ar   
     7    5    8 1    
     8    5    9 1    
     9    9   10 1    
    10   10   11 1    
    11   11   12 1    
    12   11   13 1    
    13   12   17 1    
    14   13   14 1    
    15   13   15 1    
    16   15   16 1    
    17   15   17 1    
    18   17   18 1    
    19   18   19 1    
    20   18   27 1    
    21   19   20 2    
    22   20   21 1    
    23   21   22 ar   
    24   21   27 ar   
    25   22   23 1    
    26   22   24 ar   
    27   24   25 ar   
    28   25   26 ar   
    29   26   27 ar   
@<TRIPOS>SUBSTRUCTURE
     1 ADP401      1 GROUP   
@<TRIPOS>SET
ATOM$ORANGE STATIC     ATOMS   COLORGROUP SYSTEM 
20 10 10 11 11 13 13 15 15 17 17 19 19 21 21 22 22 25 \
25 27 27 

