#    Name: 6c1d_5_ADP
#    Modification time : Fri May 22 19:31:24 2020

@<TRIPOS>MOLECULE
6c1d_5_ADP
   27    29     1     0     1
SMALL
NO_CHARGES


@<TRIPOS>ATOM
      1 PB        248.3230  272.0440  224.7650 P.3       1 ADP401      0.0000 
      2 O1B       249.0570  271.0410  223.9210 O.co2     1 ADP401      0.0000 
      3 O2B       247.6520  271.4540  225.9720 O.co2     1 ADP401      0.0000 
      4 O3B       247.5030  273.0360  223.9790 O.co2     1 ADP401      0.0000 
      5 PA        249.7520  274.4330  224.9080 P.3       1 ADP401      0.0000 
      6 O1A       249.9760  274.4730  223.4200 O.co2     1 ADP401      0.0000 
      7 O2A       248.7190  275.3120  225.5470 O.co2     1 ADP401      0.0000 
      8 O3A       249.5160  272.9170  225.3620 O.3       1 ADP401      0.0000 
      9 O5'       251.1340  274.6460  225.6780 O.3       1 ADP401      0.0000 
     10 C5'       251.2540  274.0590  226.9660 C.3       1 ADP401      0.0000 
     11 C4'       252.7120  273.7380  227.2300 C.3       1 ADP401      0.0000 
     12 O4'       253.4970  274.9000  226.9940 O.3       1 ADP401      0.0000 
     13 C3'       252.9190  273.3570  228.6720 C.3       1 ADP401      0.0000 
     14 O3'       253.7430  272.2040  228.7200 O.3       1 ADP401      0.0000 
     15 C2'       253.7360  274.4620  229.2700 C.3       1 ADP401      0.0000 
     16 O2'       254.7270  273.8750  230.1070 O.3       1 ADP401      0.0000 
     17 C1'       254.3700  275.1500  228.0870 C.3       1 ADP401      0.0000 
     18 N9        254.4080  276.5990  228.3370 N.pl3     1 ADP401      0.0000 
     19 C8        253.3250  277.3510  228.5560 C.2       1 ADP401      0.0000 
     20 N7        253.6630  278.6420  228.7530 N.2       1 ADP401      0.0000 
     21 C5        254.9930  278.7190  228.6640 C.ar      1 ADP401      0.0000 
     22 C6        255.9820  279.7950  228.7730 C.ar      1 ADP401      0.0000 
     23 N6        255.5880  281.0620  229.0260 N.pl3     1 ADP401      0.0000 
     24 N1        257.2760  279.4700  228.6090 N.ar      1 ADP401      0.0000 
     25 C2        257.6630  278.2100  228.3560 C.ar      1 ADP401      0.0000 
     26 N3        256.8140  277.1810  228.2440 N.ar      1 ADP401      0.0000 
     27 C4        255.4870  277.3710  228.3900 C.ar      1 ADP401      0.0000 
@<TRIPOS>BOND
     1    1    2 ar   
     2    1    3 ar   
     3    1    4 ar   
     4    1    8 1    
     5    5    6 ar   
     6    5    7 ar   
     7    5    8 1    
     8    5    9 1    
     9    9   10 1    
    10   10   11 1    
    11   11   12 1    
    12   11   13 1    
    13   12   17 1    
    14   13   14 1    
    15   13   15 1    
    16   15   16 1    
    17   15   17 1    
    18   17   18 1    
    19   18   19 1    
    20   18   27 1    
    21   19   20 2    
    22   20   21 1    
    23   21   22 ar   
    24   21   27 ar   
    25   22   23 1    
    26   22   24 ar   
    27   24   25 ar   
    28   25   26 ar   
    29   26   27 ar   
@<TRIPOS>SUBSTRUCTURE
     1 ADP401      1 GROUP   
@<TRIPOS>SET
ATOM$ORANGE STATIC     ATOMS   COLORGROUP SYSTEM 
20 10 10 11 11 13 13 15 15 17 17 19 19 21 21 22 22 25 \
25 27 27 

