#    Name: 6c1d_4_ADP
#    Modification time : Fri May 22 19:31:18 2020

@<TRIPOS>MOLECULE
6c1d_4_ADP
   27    29     1     0     1
SMALL
NO_CHARGES


@<TRIPOS>ATOM
      1 PB        274.1100  250.7230  252.4610 P.3       1 ADP401      0.0000 
      2 O1B       275.0710  249.9670  251.5900 O.co2     1 ADP401      0.0000 
      3 O2B       274.6840  251.3490  253.6920 O.co2     1 ADP401      0.0000 
      4 O3B       273.1460  251.6110  251.7360 O.co2     1 ADP401      0.0000 
      5 PA        273.1160  248.0960  252.4330 P.3       1 ADP401      0.0000 
      6 O1A       272.8990  248.1390  250.9480 O.co2     1 ADP401      0.0000 
      7 O2A       274.2290  247.2800  253.0100 O.co2     1 ADP401      0.0000 
      8 O3A       273.1560  249.5830  253.0210 O.3       1 ADP401      0.0000 
      9 O5'       271.7740  247.6790  253.1710 O.3       1 ADP401      0.0000 
     10 C5'       271.6170  248.1520  254.4970 C.3       1 ADP401      0.0000 
     11 C4'       270.1420  248.1870  254.8180 C.3       1 ADP401      0.0000 
     12 O4'       269.6350  246.8850  254.5830 O.3       1 ADP401      0.0000 
     13 C3'       269.8770  248.5050  256.2630 C.3       1 ADP401      0.0000 
     14 O3'       268.7810  249.3980  256.3270 O.3       1 ADP401      0.0000 
     15 C2'       269.3910  247.2240  256.8650 C.3       1 ADP401      0.0000 
     16 O2'       268.3280  247.5370  257.7530 O.3       1 ADP401      0.0000 
     17 C1'       268.8850  246.4350  255.6910 C.3       1 ADP401      0.0000 
     18 N9        269.1840  245.0110  255.8890 N.pl3     1 ADP401      0.0000 
     19 C8        270.4030  244.4920  256.0740 C.2       1 ADP401      0.0000 
     20 N7        270.3330  243.1530  256.2250 N.2       1 ADP401      0.0000 
     21 C5        269.0450  242.8110  256.1370 C.ar      1 ADP401      0.0000 
     22 C6        268.2790  241.5640  256.2050 C.ar      1 ADP401      0.0000 
     23 N6        268.8960  240.3800  256.4070 N.pl3     1 ADP401      0.0000 
     24 N1        266.9460  241.6470  256.0600 N.ar      1 ADP401      0.0000 
     25 C2        266.3170  242.8120  255.8560 C.ar      1 ADP401      0.0000 
     26 N3        266.9510  243.9810  255.7810 N.ar      1 ADP401      0.0000 
     27 C4        268.2890  244.0380  255.9130 C.ar      1 ADP401      0.0000 
@<TRIPOS>BOND
     1    1    2 ar   
     2    1    3 ar   
     3    1    4 ar   
     4    1    8 1    
     5    5    6 ar   
     6    5    7 ar   
     7    5    8 1    
     8    5    9 1    
     9    9   10 1    
    10   10   11 1    
    11   11   12 1    
    12   11   13 1    
    13   12   17 1    
    14   13   14 1    
    15   13   15 1    
    16   15   16 1    
    17   15   17 1    
    18   17   18 1    
    19   18   19 1    
    20   18   27 1    
    21   19   20 2    
    22   20   21 1    
    23   21   22 ar   
    24   21   27 ar   
    25   22   23 1    
    26   22   24 ar   
    27   24   25 ar   
    28   25   26 ar   
    29   26   27 ar   
@<TRIPOS>SUBSTRUCTURE
     1 ADP401      1 GROUP   
@<TRIPOS>SET
ATOM$ORANGE STATIC     ATOMS   COLORGROUP SYSTEM 
20 10 10 11 11 13 13 15 15 17 17 19 19 21 21 22 22 25 \
25 27 27 

