#    Name: 6c1d_7_ADP
#    Modification time : Fri May 22 19:31:43 2020

@<TRIPOS>MOLECULE
6c1d_7_ADP
   27    29     1     0     1
SMALL
NO_CHARGES


@<TRIPOS>ATOM
      1 PB        196.0910  289.1960  254.7940 P.3       1 ADP802      0.0000 
      2 O1B       196.1420  288.2560  253.6220 O.co2     1 ADP802      0.0000 
      3 O2B       195.4190  288.6270  256.0150 O.co2     1 ADP802      0.0000 
      4 O3B       197.3690  289.9490  255.0600 O.co2     1 ADP802      0.0000 
      5 PA        194.3870  291.3230  255.3440 P.3       1 ADP802      0.0000 
      6 O1A       193.2510  290.6160  256.0410 O.co2     1 ADP802      0.0000 
      7 O2A       195.4790  291.9970  256.1330 O.co2     1 ADP802      0.0000 
      8 O3A       195.0810  290.3300  254.2950 O.3       1 ADP802      0.0000 
      9 O5'       193.7720  292.4220  254.3600 O.3       1 ADP802      0.0000 
     10 C5'       193.8650  293.7880  254.7370 C.3       1 ADP802      0.0000 
     11 C4'       193.0540  294.6170  253.7620 C.3       1 ADP802      0.0000 
     12 O4'       192.3280  293.7680  252.8780 O.3       1 ADP802      0.0000 
     13 C3'       192.0450  295.4480  254.5190 C.3       1 ADP802      0.0000 
     14 O3'       192.4220  296.8200  254.4470 O.3       1 ADP802      0.0000 
     15 C2'       190.7300  295.2460  253.8060 C.3       1 ADP802      0.0000 
     16 O2'       190.3290  296.4790  253.2080 O.3       1 ADP802      0.0000 
     17 C1'       190.9880  294.2290  252.7120 C.3       1 ADP802      0.0000 
     18 N9        190.0900  293.0710  252.8930 N.pl3     1 ADP802      0.0000 
     19 C8        190.5190  291.8310  253.1390 C.2       1 ADP802      0.0000 
     20 N7        189.4910  290.9600  253.2620 N.2       1 ADP802      0.0000 
     21 C5        188.3630  291.6580  253.0860 C.ar      1 ADP802      0.0000 
     22 C6        186.9210  291.3420  253.0870 C.ar      1 ADP802      0.0000 
     23 N6        186.4850  290.0790  253.3060 N.pl3     1 ADP802      0.0000 
     24 N1        186.0630  292.3560  252.8620 N.ar      1 ADP802      0.0000 
     25 C2        186.4990  293.6100  252.6440 C.ar      1 ADP802      0.0000 
     26 N3        187.7930  293.9660  252.6290 N.ar      1 ADP802      0.0000 
     27 C4        188.7600  293.0500  252.8390 C.ar      1 ADP802      0.0000 
@<TRIPOS>BOND
     1    1    2 ar   
     2    1    3 ar   
     3    1    4 ar   
     4    1    8 1    
     5    5    6 ar   
     6    5    7 ar   
     7    5    8 1    
     8    5    9 1    
     9    9   10 1    
    10   10   11 1    
    11   11   12 1    
    12   11   13 1    
    13   12   17 1    
    14   13   14 1    
    15   13   15 1    
    16   15   16 1    
    17   15   17 1    
    18   17   18 1    
    19   18   19 1    
    20   18   27 1    
    21   19   20 2    
    22   20   21 1    
    23   21   22 ar   
    24   21   27 ar   
    25   22   23 1    
    26   22   24 ar   
    27   24   25 ar   
    28   25   26 ar   
    29   26   27 ar   
@<TRIPOS>SUBSTRUCTURE
     1 ADP802      1 GROUP   
@<TRIPOS>SET
ATOM$ORANGE STATIC     ATOMS   COLORGROUP SYSTEM 
20 10 10 11 11 13 13 15 15 17 17 19 19 21 21 22 22 25 \
25 27 27 

