#    Name: 6c1d_3_ADP
#    Modification time : Fri May 22 19:31:10 2020

@<TRIPOS>MOLECULE
6c1d_3_ADP
   27    29     1     0     1
SMALL
NO_CHARGES


@<TRIPOS>ATOM
      1 PB        244.2390  265.8690  279.9580 P.3       1 ADP401      0.0000 
      2 O1B       243.1320  266.4120  279.0960 O.co2     1 ADP401      0.0000 
      3 O2B       243.8070  265.1450  281.1990 O.co2     1 ADP401      0.0000 
      4 O3B       245.3630  265.1970  279.2270 O.co2     1 ADP401      0.0000 
      5 PA        244.5200  268.6640  280.0440 P.3       1 ADP401      0.0000 
      6 O1A       244.6300  268.8370  278.5560 O.co2     1 ADP401      0.0000 
      7 O2A       243.2690  269.0460  280.7720 O.co2     1 ADP401      0.0000 
      8 O3A       244.9610  267.1850  280.4770 O.3       1 ADP401      0.0000 
      9 O5'       245.7350  269.3920  280.7640 O.3       1 ADP401      0.0000 
     10 C5'       246.0470  268.9040  282.0580 C.3       1 ADP401      0.0000 
     11 C4'       247.4930  269.2080  282.3520 C.3       1 ADP401      0.0000 
     12 O4'       247.6680  270.5900  282.1110 O.3       1 ADP401      0.0000 
     13 C3'       247.8290  268.9750  283.7980 C.3       1 ADP401      0.0000 
     14 O3'       249.1060  268.3630  283.8690 O.3       1 ADP401      0.0000 
     15 C2'       247.9950  270.3410  284.3870 C.3       1 ADP401      0.0000 
     16 O2'       249.0910  270.3060  285.2870 O.3       1 ADP401      0.0000 
     17 C1'       248.3270  271.2000  283.2010 C.3       1 ADP401      0.0000 
     18 N9        247.7560  272.5370  283.3970 N.pl3     1 ADP401      0.0000 
     19 C8        246.4640  272.7860  283.6210 C.2       1 ADP401      0.0000 
     20 N7        246.2500  274.1100  283.7680 N.2       1 ADP401      0.0000 
     21 C5        247.4300  274.7150  283.6360 C.ar      1 ADP401      0.0000 
     22 C6        247.9030  276.0990  283.6770 C.ar      1 ADP401      0.0000 
     23 N6        247.0450  277.1150  283.9000 N.pl3     1 ADP401      0.0000 
     24 N1        249.2140  276.3130  283.4870 N.ar      1 ADP401      0.0000 
     25 C2        250.0750  275.3070  283.2670 C.ar      1 ADP401      0.0000 
     26 N3        249.7120  274.0230  283.2150 N.ar      1 ADP401      0.0000 
     27 C4        248.4250  273.6780  283.3910 C.ar      1 ADP401      0.0000 
@<TRIPOS>BOND
     1    1    2 ar   
     2    1    3 ar   
     3    1    4 ar   
     4    1    8 1    
     5    5    6 ar   
     6    5    7 ar   
     7    5    8 1    
     8    5    9 1    
     9    9   10 1    
    10   10   11 1    
    11   11   12 1    
    12   11   13 1    
    13   12   17 1    
    14   13   14 1    
    15   13   15 1    
    16   15   16 1    
    17   15   17 1    
    18   17   18 1    
    19   18   19 1    
    20   18   27 1    
    21   19   20 2    
    22   20   21 1    
    23   21   22 ar   
    24   21   27 ar   
    25   22   23 1    
    26   22   24 ar   
    27   24   25 ar   
    28   25   26 ar   
    29   26   27 ar   
@<TRIPOS>SUBSTRUCTURE
     1 ADP401      1 GROUP   
@<TRIPOS>SET
ATOM$ORANGE STATIC     ATOMS   COLORGROUP SYSTEM 
20 10 10 11 11 13 13 15 15 17 17 19 19 21 21 22 22 25 \
25 27 27 

