#    Name: 6fz2_1_31A
#    Modification time : Fri May 22 19:25:06 2020

@<TRIPOS>MOLECULE
6fz2_1_31A
   27    29     1     0     0
SMALL
NO_CHARGES


@<TRIPOS>ATOM
      1 O1         14.1520    9.1500   63.2160           1 31A1000     0.0000 
      2 C9         14.6890    8.1280   63.6410           1 31A1000     0.0000 
      3 N1         15.7740    8.1580   64.4880           1 31A1000     0.0000 
      4 C          16.4170    9.2640   64.9350           1 31A1000     0.0000 
      5 C1         17.5900    9.0540   65.7980           1 31A1000     0.0000 
      6 C2         18.8630    9.0690   64.9920           1 31A1000     0.0000 
      7 C8         19.6700    7.9380   64.9060           1 31A1000     0.0000 
      8 C6         20.8410    7.9650   64.1610           1 31A1000     0.0000 
      9 O          21.6540    6.8670   64.0650           1 31A1000     0.0000 
     10 C7         22.0110    6.1990   65.2680           1 31A1000     0.0000 
     11 C5         21.2220    9.1180   63.4930           1 31A1000     0.0000 
     12 C4         20.4090   10.2350   63.5580           1 31A1000     0.0000 
     13 C3         19.2410   10.2100   64.3020           1 31A1000     0.0000 
     14 N          16.0550   10.4600   64.5870           1 31A1000     0.0000 
     15 C10        14.0870    6.7910   63.3340           1 31A1000     0.0000 
     16 C20        14.0040    5.8230   64.3370           1 31A1000     0.0000 
     17 C19        13.3900    4.6150   64.1160           1 31A1000     0.0000 
     18 C18        12.8460    4.3390   62.8770           1 31A1000     0.0000 
     19 C17        12.9040    5.2710   61.8650           1 31A1000     0.0000 
     20 C11        13.5120    6.5030   62.0820           1 31A1000     0.0000 
     21 O2         13.6530    7.4970   61.1550           1 31A1000     0.0000 
     22 C12        13.2060    7.4350   59.7610           1 31A1000     0.0000 
     23 C16        12.1010    8.4630   59.6540           1 31A1000     0.0000 
     24 C15        12.6350    9.8740   59.8070           1 31A1000     0.0000 
     25 N2         13.7320   10.1290   58.8620           1 31A1000     0.0000 
     26 C14        14.8380    9.1790   59.0620           1 31A1000     0.0000 
     27 C13        14.3680    7.7590   58.8480           1 31A1000     0.0000 
@<TRIPOS>BOND
     1    1    2 du   
     2    2    3 du   
     3    2   15 du   
     4    3    4 du   
     5    4    5 du   
     6    4   14 du   
     7    5    6 du   
     8    6    7 du   
     9    6   13 du   
    10    7    8 du   
    11    8    9 du   
    12    8   11 du   
    13    9   10 du   
    14   11   12 du   
    15   12   13 du   
    16   15   16 du   
    17   15   20 du   
    18   16   17 du   
    19   17   18 du   
    20   18   19 du   
    21   19   20 du   
    22   20   21 du   
    23   21   22 du   
    24   22   23 du   
    25   22   27 du   
    26   23   24 du   
    27   24   25 du   
    28   25   26 du   
    29   26   27 du   
@<TRIPOS>SUBSTRUCTURE
     1 31A1000     1 GROUP   
@<TRIPOS>SET

