#    Name: 6fz2_1_31A_CAVITY_N1_4
#    Modification time : Fri May 22 19:25:08 2020

@<TRIPOS>MOLECULE
6fz2_1_31A_CAVITY_N1_4
  107     0     6     0     0
SMALL
NO_CHARGES


@<TRIPOS>ATOM
      1 OG         12.5200    7.7100   58.9300 O.3       1 SER1        0.0000 
      2 OG         12.5800    6.4200   59.6900 O.3       1 SER1        0.0000 
      3 OG         13.9000    7.4500   58.4000 O.3       1 SER1        0.0000 
      4 OG         13.9500    6.1600   59.1600 O.3       1 SER1        0.0000 
      5 OG         12.9200   10.1300   62.9900 O.3       1 SER1        0.0000 
      6 OG         17.1500    6.7600   62.9200 O.3       1 SER1        0.0000 
      7 OG         17.2100    5.4700   63.6800 O.3       1 SER1        0.0000 
      8 OG         14.8900   10.5800   63.6400 O.3       1 SER1        0.0000 
      9 OG         17.8000    6.1900   64.8600 O.3       1 SER1        0.0000 
     10 OG         19.1700    5.9300   64.3300 O.3       1 SER1        0.0000 
     11 OG         20.5000    6.9600   63.0300 O.3       1 SER1        0.0000 
     12 OG         20.5500    5.6700   63.8000 O.3       1 SER1        0.0000 
     13 OG         15.4800   11.3000   64.8100 O.3       1 SER1        0.0000 
     14 OG         21.0400    8.9700   63.4400 O.3       1 SER1        0.0000 
     15 OG         21.0900    7.6800   64.2100 O.3       1 SER1        0.0000 
     16 OG         21.1400    6.3900   64.9700 O.3       1 SER1        0.0000 
     17 OG         22.5200    6.1300   64.4400 O.3       1 SER1        0.0000 
     18 OG         14.6900   12.2800   66.5200 O.3       1 SER1        0.0000 
     19 OG         16.0700   12.0200   65.9900 O.3       1 SER1        0.0000 
     20 N          11.9400    3.5300   63.6900 N.am      2 ALA2        0.0000 
     21 N          12.5300    4.2500   64.8700 N.am      2 ALA2        0.0000 
     22 N          15.8800    4.4400   64.9800 N.am      2 ALA2        0.0000 
     23 O          17.2600    4.1800   64.4500 O.2       2 ALA2        0.0000 
     24 N          16.4700    5.1600   66.1600 N.am      2 ALA2        0.0000 
     25 N          17.8500    4.9000   65.6200 N.am      2 ALA2        0.0000 
     26 N          17.4500   11.7600   65.4600 N.am      2 ALA2        0.0000 
     27 NZ         13.0600    9.7200   59.3400 N.4       3 LYS4        0.0000 
     28 NZ         16.6600   12.7400   67.1600 N.4       3 LYS4        0.0000 
     29 NZ         16.7100   11.4500   67.9300 N.4       3 LYS4        0.0000 
     30 CZ         12.6300    5.1300   60.4600 C.ar      4 PHE5        0.0000 
     31 CZ         12.6800    3.8400   61.2200 C.ar      4 PHE5        0.0000 
     32 CZ         13.2200    5.8500   61.6300 C.ar      4 PHE5        0.0000 
     33 CZ         13.2700    4.5600   62.4000 C.ar      4 PHE5        0.0000 
     34 CZ         14.4900    8.1700   59.5700 C.ar      4 PHE5        0.0000 
     35 CZ         14.5400    6.8800   60.3400 C.ar      4 PHE5        0.0000 
     36 CZ         12.3800    8.1200   62.5800 C.ar      4 PHE5        0.0000 
     37 CZ         12.4300    6.8300   63.3400 C.ar      4 PHE5        0.0000 
     38 CZ         12.4800    5.5400   64.1100 C.ar      4 PHE5        0.0000 
     39 CZ         13.7100    9.1500   61.2800 C.ar      4 PHE5        0.0000 
     40 CZ         13.7600    7.8600   62.0500 C.ar      4 PHE5        0.0000 
     41 CZ         13.8100    6.5700   62.8100 C.ar      4 PHE5        0.0000 
     42 CZ         13.8600    5.2800   63.5700 C.ar      4 PHE5        0.0000 
     43 CZ         15.0300   10.1700   59.9900 C.ar      4 PHE5        0.0000 
     44 CZ         15.0800    8.8800   60.7500 C.ar      4 PHE5        0.0000 
     45 CZ         15.1300    7.5900   61.5100 C.ar      4 PHE5        0.0000 
     46 CZ         15.1900    6.3000   62.2800 C.ar      4 PHE5        0.0000 
     47 CZ         14.3000    9.8600   62.4600 C.ar      4 PHE5        0.0000 
     48 CZ         14.3500    8.5700   63.2200 C.ar      4 PHE5        0.0000 
     49 CZ         14.4000    7.2800   63.9900 C.ar      4 PHE5        0.0000 
     50 CZ         14.4500    5.9900   64.7500 C.ar      4 PHE5        0.0000 
     51 CZ         15.7300    8.3100   62.6900 C.ar      4 PHE5        0.0000 
     52 CZ         15.7800    7.0200   63.4500 C.ar      4 PHE5        0.0000 
     53 CZ         15.8300    5.7300   64.2200 C.ar      4 PHE5        0.0000 
     54 CZ         14.9400    9.2900   64.4000 C.ar      4 PHE5        0.0000 
     55 CZ         14.9900    8.0000   65.1600 C.ar      4 PHE5        0.0000 
     56 CZ         15.0400    6.7100   65.9300 C.ar      4 PHE5        0.0000 
     57 CZ         16.2700   10.3200   63.1000 C.ar      4 PHE5        0.0000 
     58 CZ         16.3200    9.0300   63.8700 C.ar      4 PHE5        0.0000 
     59 CZ         16.3700    7.7400   64.6300 C.ar      4 PHE5        0.0000 
     60 CZ         17.7500    7.4800   64.1000 C.ar      4 PHE5        0.0000 
     61 CZ         19.1200    7.2200   63.5600 C.ar      4 PHE5        0.0000 
     62 CZ         19.2200    4.6400   65.0900 C.ar      4 PHE5        0.0000 
     63 CZ         15.5300   10.0100   65.5800 C.ar      4 PHE5        0.0000 
     64 CZ         15.5800    8.7200   66.3400 C.ar      4 PHE5        0.0000 
     65 CZ         15.6300    7.4300   67.1000 C.ar      4 PHE5        0.0000 
     66 CZ         16.9100    9.7500   65.0400 C.ar      4 PHE5        0.0000 
     67 CZ         18.2300   10.7800   63.7500 C.ar      4 PHE5        0.0000 
     68 CZ         18.2900    9.4900   64.5100 C.ar      4 PHE5        0.0000 
     69 CZ         19.6100   10.5200   63.2100 C.ar      4 PHE5        0.0000 
     70 CZ         19.6600    9.2300   63.9800 C.ar      4 PHE5        0.0000 
     71 CZ         19.7100    7.9400   64.7400 C.ar      4 PHE5        0.0000 
     72 CZ         19.8200    5.3600   66.2700 C.ar      4 PHE5        0.0000 
     73 CZ         16.1200   10.7300   66.7500 C.ar      4 PHE5        0.0000 
     74 CZ         16.1700    9.4400   67.5200 C.ar      4 PHE5        0.0000 
     75 CZ         20.4100    6.0800   67.4400 C.ar      4 PHE5        0.0000 
     76 CZ         21.7300    7.1100   66.1500 C.ar      4 PHE5        0.0000 
     77 CZ         21.7800    5.8200   66.9100 C.ar      4 PHE5        0.0000 
     78 CA         11.2500    5.3900   60.9900 C.3       5 GLY6        0.0000 
     79 CA         11.7400    8.6900   60.6400 C.3       5 GLY6        0.0000 
     80 CA         11.7900    7.4000   61.4000 C.3       5 GLY6        0.0000 
     81 CA         11.8400    6.1100   62.1700 C.3       5 GLY6        0.0000 
     82 CA         11.8900    4.8200   62.9300 C.3       5 GLY6        0.0000 
     83 CA         13.3200    3.2700   63.1600 C.3       5 GLY6        0.0000 
     84 CA         12.3300    9.4100   61.8200 C.3       5 GLY6        0.0000 
     85 CA         13.9100    3.9900   64.3400 C.3       5 GLY6        0.0000 
     86 CA         14.5000    4.7000   65.5100 C.3       5 GLY6        0.0000 
     87 CA         15.0900    5.4200   66.6900 C.3       5 GLY6        0.0000 
     88 CA         15.4300   12.5900   64.0500 C.3       5 GLY6        0.0000 
     89 CA         16.8600   11.0400   64.2800 C.3       5 GLY6        0.0000 
     90 CA         16.0200   13.3100   65.2200 C.3       5 GLY6        0.0000 
     91 CA         17.5000   10.4700   66.2200 C.3       5 GLY6        0.0000 
     92 CA         17.5500    9.1800   66.9800 C.3       5 GLY6        0.0000 
     93 CA         18.8800   10.2100   65.6900 C.3       5 GLY6        0.0000 
     94 CA         18.9300    8.9200   66.4500 C.3       5 GLY6        0.0000 
     95 CA         20.2500    9.9500   65.1500 C.3       5 GLY6        0.0000 
     96 CA         20.3600    7.3700   66.6800 C.3       5 GLY6        0.0000 
     97 CA         21.6800    8.4000   65.3800 C.3       5 GLY6        0.0000 
     98 CA         18.1400    9.9000   68.1600 C.3       5 GLY6        0.0000 
     99 DU         13.1100    8.4300   60.1100 H         6 CUB7        0.0000 
    100 DU         13.1700    7.1400   60.8700 H         6 CUB7        0.0000 
    101 DU         13.6500   10.4400   60.5200 H         6 CUB7        0.0000 
    102 DU         16.4200    6.4500   65.3900 H         6 CUB7        0.0000 
    103 DU         16.9600    8.4600   65.8100 H         6 CUB7        0.0000 
    104 DU         17.0100    7.1700   66.5700 H         6 CUB7        0.0000 
    105 DU         18.3400    8.2000   65.2700 H         6 CUB7        0.0000 
    106 DU         18.3900    6.9100   66.0400 H         6 CUB7        0.0000 
    107 DU         19.7600    6.6500   65.5000 H         6 CUB7        0.0000 
@<TRIPOS>BOND
@<TRIPOS>SUBSTRUCTURE
     1 SER1        1 GROUP   
     2 ALA2       20 GROUP   
     3 LYS4       27 GROUP   
     4 PHE5       30 GROUP   
     5 GLY6       78 GROUP   
     6 CUB7       99 GROUP   
@<TRIPOS>SET

