#    Name: 6fz2_2_MYA
#    Modification time : Fri May 22 19:25:12 2020

@<TRIPOS>MOLECULE
6fz2_2_MYA
   63    65     1     0     0
SMALL
NO_CHARGES


@<TRIPOS>ATOM
      1 S1         12.6700   16.9460   59.0820 S.3       1 MYA1001     0.0000 
      2 C2         14.4180   17.0400   59.1700 C.3       1 MYA1001     0.0000 
      3 C3         14.8230   18.5000   59.3090 C.3       1 MYA1001     0.0000 
      4 N4         16.2680   18.6390   59.2150 N.am      1 MYA1001     0.0000 
      5 C5         17.0770   18.5290   60.2570 C.2       1 MYA1001     0.0000 
      6 O5         16.6790   18.3640   61.3920 O.2       1 MYA1001     0.0000 
      7 C6         18.5610   18.5780   59.9570 C.3       1 MYA1001     0.0000 
      8 C7         19.3480   19.3830   60.9920 C.3       1 MYA1001     0.0000 
      9 N8         18.8850   20.7370   61.2050 N.am      1 MYA1001     0.0000 
     10 C9         18.9220   21.6690   60.2610 C.2       1 MYA1001     0.0000 
     11 O9         19.3470   21.5000   59.1150 O.2       1 MYA1001     0.0000 
     12 C10        18.3510   22.9950   60.6770 C.3       1 MYA1001     0.0000 
     13 O10        18.4090   23.0740   62.1060 O.3       1 MYA1001     0.0000 
     14 C11        16.9050   23.1300   60.1860 C.3       1 MYA1001     0.0000 
     15 C12        16.2710   24.3910   60.7490 C.3       1 MYA1001     0.0000 
     16 C13        16.0450   21.9540   60.6560 C.3       1 MYA1001     0.0000 
     17 C14        16.9190   23.1990   58.6520 C.3       1 MYA1001     0.0000 
     18 N1A        10.6240   21.2640   60.3280 N.ar      1 MYA1001     0.0000 
     19 O1A        16.3170   28.7770   59.9650 O.co2     1 MYA1001     0.0000 
     20 P1A        15.9210   28.7840   61.4330 P.3       1 MYA1001     0.0000 
     21 C1X        11.4220   25.9710   62.5750 C.3       1 MYA1001     0.0000 
     22 C2A         9.9220   22.4130   60.2280 C.ar      1 MYA1001     0.0000 
     23 O2A        16.3140   29.9540   62.2990 O.co2     1 MYA1001     0.0000 
     24 P2A        17.5670   26.4350   61.7750 P.3       1 MYA1001     0.0000 
     25 C2M        12.2450   17.2920   57.4750 C.2       1 MYA1001     0.0000 
     26 O2M        13.0550   17.1710   56.5640 O.2       1 MYA1001     0.0000 
     27 C2X        11.5590   26.5380   63.9840 C.3       1 MYA1001     0.0000 
     28 O2X        10.5520   26.0420   64.8860 O.3       1 MYA1001     0.0000 
     29 N3A        10.2630   23.5620   60.8780 N.ar      1 MYA1001     0.0000 
     30 O3A        16.3000   27.3790   62.1390 O.3       1 MYA1001     0.0000 
     31 C3M        10.8480   17.7540   57.1020 C.3       1 MYA1001     0.0000 
     32 C3X        11.4300   28.0050   63.6880 C.3       1 MYA1001     0.0000 
     33 O3X        10.0730   28.3280   63.4370 O.3       1 MYA1001     0.0000 
     34 P3X         9.2120   29.1140   64.5280 P.3       1 MYA1001     0.0000 
     35 C4A        11.3480   23.6330   61.6920 C.ar      1 MYA1001     0.0000 
     36 O4A        17.8220   25.5630   63.0090 O.co2     1 MYA1001     0.0000 
     37 C4M        10.7500   19.2710   57.0570 C.3       1 MYA1001     0.0000 
     38 C4X        12.2030   28.1610   62.4020 C.3       1 MYA1001     0.0000 
     39 O4X        12.1360   26.8940   61.7410 O.3       1 MYA1001     0.0000 
     40 C5A        12.1600   22.4230   61.8590 C.ar      1 MYA1001     0.0000 
     41 O5A        18.6640   27.2590   61.2070 O.co2     1 MYA1001     0.0000 
     42 C5M         9.3170   19.7720   56.8590 C.3       1 MYA1001     0.0000 
     43 C5X        13.6300   28.5540   62.7120 C.3       1 MYA1001     0.0000 
     44 O5X        14.3160   28.7120   61.4760 O.3       1 MYA1001     0.0000 
     45 C6A        11.7330   21.2060   61.1200 C.ar      1 MYA1001     0.0000 
     46 N6A        12.4580   20.0890   61.2590 N.pl3     1 MYA1001     0.0000 
     47 O6A        17.1070   25.5190   60.5640 O.3       1 MYA1001     0.0000 
     48 C6M         9.2850   21.2950   56.7780 C.3       1 MYA1001     0.0000 
     49 N7A        13.1480   22.7500   62.7100 N.2       1 MYA1001     0.0000 
     50 O7A         9.4400   28.3690   65.8240 O.co2     1 MYA1001     0.0000 
     51 C7M         7.8820   21.9090   56.6900 C.3       1 MYA1001     0.0000 
     52 C8A        13.0080   24.0460   63.0630 C.2       1 MYA1001     0.0000 
     53 O8A         9.7830   30.5090   64.5310 O.co2     1 MYA1001     0.0000 
     54 C8M         7.1630   21.6330   55.3580 C.3       1 MYA1001     0.0000 
     55 N9A        11.9280   24.5760   62.4600 N.pl3     1 MYA1001     0.0000 
     56 O9A         7.7970   29.0420   63.9760 O.co2     1 MYA1001     0.0000 
     57 C9M         5.7500   22.2060   55.3380 C.3       1 MYA1001     0.0000 
     58 CAM         4.9880   21.7950   54.0690 C.3       1 MYA1001     0.0000 
     59 CBM         5.4290   22.6520   52.8670 C.3       1 MYA1001     0.0000 
     60 CCM         4.7480   22.2020   51.5760 C.3       1 MYA1001     0.0000 
     61 CDM         3.3540   22.7890   51.4220 C.3       1 MYA1001     0.0000 
     62 CEM         2.8330   22.5850   50.0090 C.3       1 MYA1001     0.0000 
     63 CFM         1.3620   22.8890   49.9880 C.3       1 MYA1001     0.0000 
@<TRIPOS>BOND
     1    1    2 1    
     2    1   25 1    
     3    2    3 1    
     4    3    4 1    
     5    4    5 am   
     6    5    6 2    
     7    5    7 1    
     8    7    8 1    
     9    8    9 1    
    10    9   10 am   
    11   10   11 2    
    12   10   12 1    
    13   12   13 1    
    14   12   14 1    
    15   14   15 1    
    16   14   16 1    
    17   14   17 1    
    18   15   47 1    
    19   18   22 ar   
    20   18   45 ar   
    21   19   20 ar   
    22   20   23 ar   
    23   20   30 1    
    24   20   44 1    
    25   21   27 1    
    26   21   39 1    
    27   21   55 1    
    28   22   29 ar   
    29   24   30 1    
    30   24   36 ar   
    31   24   41 ar   
    32   24   47 1    
    33   25   26 2    
    34   25   31 1    
    35   27   28 1    
    36   27   32 1    
    37   29   35 ar   
    38   31   37 1    
    39   32   33 1    
    40   32   38 1    
    41   33   34 1    
    42   34   50 ar   
    43   34   53 ar   
    44   34   56 ar   
    45   35   40 ar   
    46   35   55 1    
    47   37   42 1    
    48   38   39 1    
    49   38   43 1    
    50   40   45 ar   
    51   40   49 1    
    52   42   48 1    
    53   43   44 1    
    54   45   46 1    
    55   48   51 1    
    56   49   52 2    
    57   51   54 1    
    58   52   55 1    
    59   54   57 1    
    60   57   58 1    
    61   58   59 1    
    62   59   60 1    
    63   60   61 1    
    64   61   62 1    
    65   62   63 1    
@<TRIPOS>SUBSTRUCTURE
     1 MYA1001     1 GROUP   
@<TRIPOS>SET

