#    Name: 6fz2_4_MYA
#    Modification time : Fri May 22 19:25:26 2020

@<TRIPOS>MOLECULE
6fz2_4_MYA
   63    65     1     0     0
SMALL
NO_CHARGES


@<TRIPOS>ATOM
      1 S1        -10.9320   10.9750   18.2080 S.3       1 MYA1001     0.0000 
      2 C2         -9.9860   10.8820   16.7110 C.3       1 MYA1001     0.0000 
      3 C3        -10.1030    9.4480   16.2590 C.3       1 MYA1001     0.0000 
      4 N4         -9.2430    9.2280   15.1390 N.am      1 MYA1001     0.0000 
      5 C5         -9.6620    9.4030   13.8990 C.2       1 MYA1001     0.0000 
      6 O5        -10.8210    9.6180   13.6300 O.2       1 MYA1001     0.0000 
      7 C6         -8.6180    9.3550   12.8180 C.3       1 MYA1001     0.0000 
      8 C7         -9.1650    8.6780   11.5540 C.3       1 MYA1001     0.0000 
      9 N8         -9.6230    7.3280   11.8180 N.am      1 MYA1001     0.0000 
     10 C9         -8.7980    6.3260   12.1210 C.2       1 MYA1001     0.0000 
     11 O9         -7.5830    6.4280   12.2320 O.2       1 MYA1001     0.0000 
     12 C10        -9.4610    5.0110   12.3870 C.3       1 MYA1001     0.0000 
     13 O10       -10.6750    4.9930   11.6320 O.3       1 MYA1001     0.0000 
     14 C11        -9.7620    4.8200   13.9120 C.3       1 MYA1001     0.0000 
     15 C12       -10.5350    3.5390   14.1320 C.3       1 MYA1001     0.0000 
     16 C13       -10.6610    5.9330   14.4560 C.3       1 MYA1001     0.0000 
     17 C14        -8.4560    4.7890   14.7080 C.3       1 MYA1001     0.0000 
     18 N1A       -12.9930    6.4810   19.4130 N.ar      1 MYA1001     0.0000 
     19 O1A        -9.6670   -0.7010   14.3800 O.co2     1 MYA1001     0.0000 
     20 P1A       -11.1410   -0.7290   14.0380 P.3       1 MYA1001     0.0000 
     21 C1X       -14.3830    1.9750   17.3680 C.3       1 MYA1001     0.0000 
     22 C2A       -13.2350    5.2840   19.9880 C.ar      1 MYA1001     0.0000 
     23 O2A       -11.6630   -1.7840   13.0960 O.co2     1 MYA1001     0.0000 
     24 P2A       -10.5970    1.5130   12.4840 P.3       1 MYA1001     0.0000 
     25 C2M        -9.9110   10.6080   19.4520 C.2       1 MYA1001     0.0000 
     26 O2M        -8.7160   10.7470   19.3250 O.2       1 MYA1001     0.0000 
     27 C2X       -15.6030    1.4580   16.6380 C.3       1 MYA1001     0.0000 
     28 O2X       -16.8170    2.0240   17.1580 O.3       1 MYA1001     0.0000 
     29 N3A       -13.5940    4.1860   19.2940 N.ar      1 MYA1001     0.0000 
     30 O3A       -11.5770    0.6580   13.4070 O.3       1 MYA1001     0.0000 
     31 C3M       -10.5030   10.0660   20.7240 C.3       1 MYA1001     0.0000 
     32 C3X       -15.4050   -0.0350   16.8680 C.3       1 MYA1001     0.0000 
     33 O3X       -15.8060   -0.4260   18.1790 O.3       1 MYA1001     0.0000 
     34 P3X       -17.2250   -1.1420   18.4210 P.3       1 MYA1001     0.0000 
     35 C4A       -13.7230    4.2620   17.9530 C.ar      1 MYA1001     0.0000 
     36 O4A       -11.5400    2.3840   11.6640 O.co2     1 MYA1001     0.0000 
     37 C4M       -10.1620    8.5720   20.8070 C.3       1 MYA1001     0.0000 
     38 C4X       -13.9030   -0.2090   16.7280 C.3       1 MYA1001     0.0000 
     39 O4X       -13.3280    1.0590   17.0490 O.3       1 MYA1001     0.0000 
     40 C5A       -13.4780    5.5200   17.2390 C.ar      1 MYA1001     0.0000 
     41 O5A        -9.5530    0.6270   11.8420 O.co2     1 MYA1001     0.0000 
     42 C5M       -10.5660    8.0490   22.1820 C.3       1 MYA1001     0.0000 
     43 C5X       -13.4900   -0.5880   15.3090 C.3       1 MYA1001     0.0000 
     44 O5X       -12.0670   -0.6680   15.3520 O.3       1 MYA1001     0.0000 
     45 C6A       -13.0890    6.6710   18.0730 C.ar      1 MYA1001     0.0000 
     46 N6A       -12.8460    7.8710   17.5100 N.pl3     1 MYA1001     0.0000 
     47 O6A        -9.8720    2.4100   13.5840 O.3       1 MYA1001     0.0000 
     48 C6M       -10.3970    6.5190   22.2940 C.3       1 MYA1001     0.0000 
     49 N7A       -13.7030    5.2970   15.9310 N.2       1 MYA1001     0.0000 
     50 O7A       -18.1950   -0.3380   17.5790 O.co2     1 MYA1001     0.0000 
     51 C7M       -11.0700    5.9840   23.5820 C.3       1 MYA1001     0.0000 
     52 C8A       -14.0470    3.9900   15.7970 C.2       1 MYA1001     0.0000 
     53 O8A       -17.0250   -2.5500   17.8910 O.co2     1 MYA1001     0.0000 
     54 C8M       -10.2350    6.1530   24.8550 C.3       1 MYA1001     0.0000 
     55 N9A       -14.0580    3.3840   17.0170 N.pl3     1 MYA1001     0.0000 
     56 O9A       -17.4890   -1.0580   19.9080 O.co2     1 MYA1001     0.0000 
     57 C9M       -10.9640    5.5550   26.0680 C.3       1 MYA1001     0.0000 
     58 CAM       -10.2730    5.9070   27.3840 C.3       1 MYA1001     0.0000 
     59 CBM        -9.0340    5.0330   27.6010 C.3       1 MYA1001     0.0000 
     60 CCM        -8.2280    5.4080   28.8530 C.3       1 MYA1001     0.0000 
     61 CDM        -8.8460    4.9180   30.1570 C.3       1 MYA1001     0.0000 
     62 CEM        -7.9170    5.2410   31.3200 C.3       1 MYA1001     0.0000 
     63 CFM        -8.4790    4.7820   32.6600 C.3       1 MYA1001     0.0000 
@<TRIPOS>BOND
     1    1    2 1    
     2    1   25 1    
     3    2    3 1    
     4    3    4 1    
     5    4    5 am   
     6    5    6 2    
     7    5    7 1    
     8    7    8 1    
     9    8    9 1    
    10    9   10 am   
    11   10   11 2    
    12   10   12 1    
    13   12   13 1    
    14   12   14 1    
    15   14   15 1    
    16   14   16 1    
    17   14   17 1    
    18   15   47 1    
    19   18   22 ar   
    20   18   45 ar   
    21   19   20 ar   
    22   20   23 ar   
    23   20   30 1    
    24   20   44 1    
    25   21   27 1    
    26   21   39 1    
    27   21   55 1    
    28   22   29 ar   
    29   24   30 1    
    30   24   36 ar   
    31   24   41 ar   
    32   24   47 1    
    33   25   26 2    
    34   25   31 1    
    35   27   28 1    
    36   27   32 1    
    37   29   35 ar   
    38   31   37 1    
    39   32   33 1    
    40   32   38 1    
    41   33   34 1    
    42   34   50 ar   
    43   34   53 ar   
    44   34   56 ar   
    45   35   40 ar   
    46   35   55 1    
    47   37   42 1    
    48   38   39 1    
    49   38   43 1    
    50   40   45 ar   
    51   40   49 1    
    52   42   48 1    
    53   43   44 1    
    54   45   46 1    
    55   48   51 1    
    56   49   52 2    
    57   51   54 1    
    58   52   55 1    
    59   54   57 1    
    60   57   58 1    
    61   58   59 1    
    62   59   60 1    
    63   60   61 1    
    64   61   62 1    
    65   62   63 1    
@<TRIPOS>SUBSTRUCTURE
     1 MYA1001     1 GROUP   
@<TRIPOS>SET

