#    Name: 6fz2_3_31A
#    Modification time : Fri May 22 19:25:20 2020

@<TRIPOS>MOLECULE
6fz2_3_31A
   27    29     1     0     0
SMALL
NO_CHARGES


@<TRIPOS>ATOM
      1 O1        -13.9080   18.5850   15.1440           1 31A1000     0.0000 
      2 C9        -14.0080   19.6640   14.5590           1 31A1000     0.0000 
      3 N1        -14.2220   19.7320   13.1970           1 31A1000     0.0000 
      4 C         -14.3110   18.6650   12.3560           1 31A1000     0.0000 
      5 C1        -14.5070   18.9420   10.9050           1 31A1000     0.0000 
      6 C2        -13.2200   18.8130   10.1270           1 31A1000     0.0000 
      7 C8        -12.7030   19.8970    9.4270           1 31A1000     0.0000 
      8 C6        -11.5140   19.7780    8.7180           1 31A1000     0.0000 
      9 O         -10.9750   20.8310    8.0220           1 31A1000     0.0000 
     10 C7        -11.8580   21.7200    7.3450           1 31A1000     0.0000 
     11 C5        -10.8210   18.5770    8.7150           1 31A1000     0.0000 
     12 C4        -11.3300   17.5010    9.4160           1 31A1000     0.0000 
     13 C3        -12.5170   17.6180   10.1180           1 31A1000     0.0000 
     14 N         -14.2000   17.4490   12.7940           1 31A1000     0.0000 
     15 C10       -14.0040   20.9490   15.3410           1 31A1000     0.0000 
     16 C20       -14.8150   22.0130   14.9220           1 31A1000     0.0000 
     17 C19       -14.8930   23.1850   15.6340           1 31A1000     0.0000 
     18 C18       -14.1660   23.3280   16.8020           1 31A1000     0.0000 
     19 C17       -13.3690   22.3050   17.2610           1 31A1000     0.0000 
     20 C11       -13.2740   21.1120   16.5450           1 31A1000     0.0000 
     21 O2        -12.5060   20.0480   16.9620           1 31A1000     0.0000 
     22 C12       -11.2230   20.1890   17.6590           1 31A1000     0.0000 
     23 C16       -11.2550   19.2210   18.8190           1 31A1000     0.0000 
     24 C15       -11.2430   17.7830   18.3450           1 31A1000     0.0000 
     25 N2        -10.0950   17.5230   17.4650           1 31A1000     0.0000 
     26 C14       -10.0960   18.4210   16.3020           1 31A1000     0.0000 
     27 C13       -10.0850   19.8750   16.7140           1 31A1000     0.0000 
@<TRIPOS>BOND
     1    1    2 du   
     2    2    3 du   
     3    2   15 du   
     4    3    4 du   
     5    4    5 du   
     6    4   14 du   
     7    5    6 du   
     8    6    7 du   
     9    6   13 du   
    10    7    8 du   
    11    8    9 du   
    12    8   11 du   
    13    9   10 du   
    14   11   12 du   
    15   12   13 du   
    16   15   16 du   
    17   15   20 du   
    18   16   17 du   
    19   17   18 du   
    20   18   19 du   
    21   19   20 du   
    22   20   21 du   
    23   21   22 du   
    24   22   23 du   
    25   22   27 du   
    26   23   24 du   
    27   24   25 du   
    28   25   26 du   
    29   26   27 du   
@<TRIPOS>SUBSTRUCTURE
     1 31A1000     1 GROUP   
@<TRIPOS>SET

