#    Name: 6qvl_1_4DW
#    Modification time : Fri May 22 19:38:43 2020

@<TRIPOS>MOLECULE
6qvl_1_4DW
   31    33     1     0     0
SMALL
NO_CHARGES


@<TRIPOS>ATOM
      1 C1         37.5860   72.2320   -3.7710           1 4DW602      0.0000 
      2 C2         38.6540   72.5830   -2.9570           1 4DW602      0.0000 
      3 C3         38.8270   73.8900   -2.5320           1 4DW602      0.0000 
      4 C4         37.9280   74.8820   -2.9070           1 4DW602      0.0000 
      5 C5         36.8660   74.5320   -3.7320           1 4DW602      0.0000 
      6 C6         36.6960   73.2240   -4.1480           1 4DW602      0.0000 
      7 C7         37.3830   70.8160   -4.2410           1 4DW602      0.0000 
      8 C8         37.7170   70.6180   -5.7310           1 4DW602      0.0000 
      9 C9         37.4170   69.2220   -6.1760           1 4DW602      0.0000 
     10 C10        36.4000   68.8050   -6.9820           1 4DW602      0.0000 
     11 N11        36.4470   67.4440   -7.1210           1 4DW602      0.0000 
     12 C12        37.5050   66.9620   -6.3880           1 4DW602      0.0000 
     13 C13        38.1300   68.0380   -5.7840           1 4DW602      0.0000 
     14 C14        39.2700   67.7730   -4.9630           1 4DW602      0.0000 
     15 O15        39.9260   68.6330   -4.3850           1 4DW602      0.0000 
     16 N16        39.6930   66.5030   -4.8020           1 4DW602      0.0000 
     17 C17        39.0540   65.4960   -5.4010           1 4DW602      0.0000 
     18 N18        37.9670   65.7010   -6.2010           1 4DW602      0.0000 
     19 N19        39.4750   64.2390   -5.2380           1 4DW602      0.0000 
     20 C20        38.1280   76.2990   -2.4680           1 4DW602      0.0000 
     21 O21        39.0920   76.6120   -1.7690           1 4DW602      0.0000 
     22 N22        37.3030   77.2160   -2.9940           1 4DW602      0.0000 
     23 C23        37.7280   78.4790   -3.5850           1 4DW602      0.0000 
     24 C24        38.0890   79.4940   -2.5250           1 4DW602      0.0000 
     25 C25        37.5150   80.6760   -2.3810           1 4DW602      0.0000 
     26 C26        37.8310   81.6500   -1.3050           1 4DW602      0.0000 
     27 O27        38.6810   81.4130   -0.4570           1 4DW602      0.0000 
     28 O28        37.1370   82.7540   -1.3280           1 4DW602      0.0000 
     29 C29        38.8210   78.2960   -4.6690           1 4DW602      0.0000 
     30 O30        38.6940   77.3290   -5.4580           1 4DW602      0.0000 
     31 O31        39.7500   79.1360   -4.7000           1 4DW602      0.0000 
@<TRIPOS>BOND
     1    1    2 du   
     2    1    6 du   
     3    1    7 du   
     4    2    3 du   
     5    3    4 du   
     6    4    5 du   
     7    4   20 du   
     8    5    6 du   
     9    7    8 du   
    10    8    9 du   
    11    9   10 du   
    12    9   13 du   
    13   10   11 du   
    14   11   12 du   
    15   12   13 du   
    16   12   18 du   
    17   13   14 du   
    18   14   15 du   
    19   14   16 du   
    20   16   17 du   
    21   17   18 du   
    22   17   19 du   
    23   20   21 du   
    24   20   22 du   
    25   22   23 du   
    26   23   24 du   
    27   23   29 du   
    28   24   25 du   
    29   25   26 du   
    30   26   27 du   
    31   26   28 du   
    32   29   30 du   
    33   29   31 du   
@<TRIPOS>SUBSTRUCTURE
     1 4DW602      1 GROUP   
@<TRIPOS>SET

