#    Name: 5urh_1_FMN_CAVITY_N1_6
#    Modification time : Fri May 22 19:17:25 2020

@<TRIPOS>MOLECULE
5urh_1_FMN_CAVITY_N1_6
  157     0     7     0     0
SMALL
NO_CHARGES


@<TRIPOS>ATOM
      1 OG         37.8900   -5.1500  -36.6400 O.3       1 SER1        0.0000 
      2 OG         36.7400   -4.1900  -36.5700 O.3       1 SER1        0.0000 
      3 OG         35.3300   -3.6400  -35.0800 O.3       1 SER1        0.0000 
      4 OG         35.5800   -3.2400  -36.5000 O.3       1 SER1        0.0000 
      5 OG         39.9700   -5.0100  -36.2400 O.3       1 SER1        0.0000 
      6 OG         38.8200   -4.0600  -36.1700 O.3       1 SER1        0.0000 
      7 OG         40.9000   -3.9300  -35.7700 O.3       1 SER1        0.0000 
      8 OG         40.8200   -4.4700  -29.6100 O.3       1 SER1        0.0000 
      9 OG         41.0700   -4.0700  -31.0300 O.3       1 SER1        0.0000 
     10 OG         41.3200   -3.6600  -32.4500 O.3       1 SER1        0.0000 
     11 OG         39.6700   -3.5200  -29.5400 O.3       1 SER1        0.0000 
     12 OG         39.9100   -3.1100  -30.9600 O.3       1 SER1        0.0000 
     13 OG         41.5900   -0.8100  -34.7500 O.3       1 SER1        0.0000 
     14 OG         40.4300    0.1400  -34.6800 O.3       1 SER1        0.0000 
     15 OG         43.4200   -1.0900  -32.9300 O.3       1 SER1        0.0000 
     16 OG         43.6700   -0.6800  -34.3500 O.3       1 SER1        0.0000 
     17 OG         42.2600   -0.1300  -32.8600 O.3       1 SER1        0.0000 
     18 OG         41.1000    0.8200  -32.7900 O.3       1 SER1        0.0000 
     19 OG         45.4900   -0.9600  -32.5300 O.3       1 SER1        0.0000 
     20 OG         44.3400    0.0000  -32.4600 O.3       1 SER1        0.0000 
     21 OG         51.8200    2.4200  -38.3600 O.3       1 SER1        0.0000 
     22 N          40.4700   -4.2000  -39.0800 N.am      2 ALA2        0.0000 
     23 O          39.3200   -3.2500  -39.0100 O.2       2 ALA2        0.0000 
     24 N          41.1500   -3.5200  -37.1900 N.am      2 ALA2        0.0000 
     25 N          41.4000   -3.1200  -38.6100 N.am      2 ALA2        0.0000 
     26 N          40.2400   -2.1600  -38.5400 N.am      2 ALA2        0.0000 
     27 N          42.0700   -2.4400  -36.7200 N.am      2 ALA2        0.0000 
     28 N          42.3200   -2.0300  -38.1400 N.am      2 ALA2        0.0000 
     29 N          44.1500   -2.3100  -36.3200 N.am      2 ALA2        0.0000 
     30 N          44.6500   -1.5000  -39.1600 N.am      2 ALA2        0.0000 
     31 N          42.9900   -1.3600  -36.2500 N.am      2 ALA2        0.0000 
     32 N          43.2400   -0.9500  -37.6700 N.am      2 ALA2        0.0000 
     33 O          43.4900   -0.5400  -39.0900 O.2       2 ALA2        0.0000 
     34 O          43.7400   -0.1400  -40.5100 O.2       2 ALA2        0.0000 
     35 O          40.6800    0.5500  -36.1100 O.2       2 ALA2        0.0000 
     36 O          45.9800   -2.5900  -34.4900 O.2       2 ALA2        0.0000 
     37 N          46.4800   -1.7700  -37.3400 N.am      2 ALA2        0.0000 
     38 N          45.0700   -1.2300  -35.8400 N.am      2 ALA2        0.0000 
     39 N          45.3200   -0.8200  -37.2700 N.am      2 ALA2        0.0000 
     40 N          45.8200   -0.0100  -40.1100 N.am      2 ALA2        0.0000 
     41 N          44.6600    0.9500  -40.0400 N.am      2 ALA2        0.0000 
     42 O          48.9600   -3.8200  -32.7400 O.2       2 ALA2        0.0000 
     43 O          47.8100   -2.8600  -32.6700 O.2       2 ALA2        0.0000 
     44 O          46.6500   -1.9100  -32.6000 O.2       2 ALA2        0.0000 
     45 O          46.9000   -1.5000  -34.0200 O.2       2 ALA2        0.0000 
     46 O          47.4000   -0.6900  -36.8600 O.2       2 ALA2        0.0000 
     47 N          44.0900   -0.4100  -31.0400 N.am      2 ALA2        0.0000 
     48 N          46.4200    0.1300  -32.0600 N.am      2 ALA2        0.0000 
     49 N          48.5000    0.2600  -31.6500 N.am      2 ALA2        0.0000 
     50 O          49.5000    1.8900  -37.3400 O.2       2 ALA2        0.0000 
     51 N          51.4800   -0.9700  -29.9000 N.am      2 ALA2        0.0000 
     52 N          51.7300   -0.5600  -31.3200 N.am      2 ALA2        0.0000 
     53 N          50.5800    0.3900  -31.2500 N.am      2 ALA2        0.0000 
     54 N          50.8300    0.8000  -32.6700 N.am      2 ALA2        0.0000 
     55 O          51.0700    1.2000  -34.1000 O.2       2 ALA2        0.0000 
     56 O          51.3200    1.6100  -35.5200 O.2       2 ALA2        0.0000 
     57 O          51.5700    2.0200  -36.9400 O.2       2 ALA2        0.0000 
     58 N          49.6700    1.7500  -32.6000 N.am      2 ALA2        0.0000 
     59 O          50.1700    2.5600  -35.4500 O.2       2 ALA2        0.0000 
     60 O          50.4200    2.9700  -36.8700 O.2       2 ALA2        0.0000 
     61 OD1        49.1900   -5.8500  -33.2800 O.co2     3 ASP3        0.0000 
     62 OD1        47.7900   -5.3100  -31.7900 O.co2     3 ASP3        0.0000 
     63 OD1        49.8700   -5.1800  -31.3900 O.co2     3 ASP3        0.0000 
     64 OD1        48.4600   -4.6300  -29.8900 O.co2     3 ASP3        0.0000 
     65 OD1        48.7100   -4.2200  -31.3200 O.co2     3 ASP3        0.0000 
     66 OD1        47.3100   -3.6800  -29.8200 O.co2     3 ASP3        0.0000 
     67 OD1        50.7900   -4.0900  -30.9100 O.co2     3 ASP3        0.0000 
     68 OD1        49.6400   -3.1400  -30.8400 O.co2     3 ASP3        0.0000 
     69 NZ         37.6600   -3.1100  -36.1000 N.4       4 LYS4        0.0000 
     70 NZ         37.9100   -2.7000  -37.5200 N.4       4 LYS4        0.0000 
     71 NZ         36.2600   -2.5600  -34.6100 N.4       4 LYS4        0.0000 
     72 NZ         35.1000   -1.6100  -34.5400 N.4       4 LYS4        0.0000 
     73 NZ         38.8300   -1.6200  -37.0500 N.4       4 LYS4        0.0000 
     74 NZ         39.7600   -0.5300  -36.5800 N.4       4 LYS4        0.0000 
     75 NZ         49.4000   -1.1000  -30.3000 N.4       4 LYS4        0.0000 
     76 NZ         48.2500   -0.1500  -30.2300 N.4       4 LYS4        0.0000 
     77 NZ         50.3300   -0.0200  -29.8300 N.4       4 LYS4        0.0000 
     78 CZ         42.3000   -4.4800  -37.2600 C.ar      5 PHE5        0.0000 
     79 CZ         41.9800   -5.4300  -29.6800 C.ar      5 PHE5        0.0000 
     80 CZ         42.2300   -5.0200  -31.1000 C.ar      5 PHE5        0.0000 
     81 CZ         41.8200   -2.8500  -35.3000 C.ar      5 PHE5        0.0000 
     82 CZ         44.3000   -4.8900  -30.7000 C.ar      5 PHE5        0.0000 
     83 CZ         42.9000   -4.3400  -29.2100 C.ar      5 PHE5        0.0000 
     84 CZ         43.1500   -3.9400  -30.6300 C.ar      5 PHE5        0.0000 
     85 CZ         43.4000   -3.5300  -32.0500 C.ar      5 PHE5        0.0000 
     86 CZ         43.9000   -2.7200  -34.8900 C.ar      5 PHE5        0.0000 
     87 CZ         41.7400   -3.3900  -29.1400 C.ar      5 PHE5        0.0000 
     88 CZ         42.2400   -2.5800  -31.9800 C.ar      5 PHE5        0.0000 
     89 CZ         42.4900   -2.1700  -33.4000 C.ar      5 PHE5        0.0000 
     90 CZ         42.7400   -1.7600  -34.8200 C.ar      5 PHE5        0.0000 
     91 CZ         41.8400   -0.4000  -36.1800 C.ar      5 PHE5        0.0000 
     92 CZ         46.6300   -4.3500  -31.7200 C.ar      5 PHE5        0.0000 
     93 CZ         45.4800   -3.4000  -31.6500 C.ar      5 PHE5        0.0000 
     94 CZ         45.7300   -2.9900  -33.0700 C.ar      5 PHE5        0.0000 
     95 CZ         44.3200   -2.4500  -31.5800 C.ar      5 PHE5        0.0000 
     96 CZ         44.5700   -2.0400  -33.0000 C.ar      5 PHE5        0.0000 
     97 CZ         44.8200   -1.6300  -34.4200 C.ar      5 PHE5        0.0000 
     98 CZ         45.5700   -0.4100  -38.6900 C.ar      5 PHE5        0.0000 
     99 CZ         43.9200   -0.2700  -35.7700 C.ar      5 PHE5        0.0000 
    100 CZ         44.1600    0.1300  -37.2000 C.ar      5 PHE5        0.0000 
    101 CZ         44.4100    0.5400  -38.6200 C.ar      5 PHE5        0.0000 
    102 CZ         47.6500   -0.2800  -38.2900 C.ar      5 PHE5        0.0000 
    103 CZ         45.7400   -0.5500  -33.9500 C.ar      5 PHE5        0.0000 
    104 CZ         46.4900    0.6700  -38.2200 C.ar      5 PHE5        0.0000 
    105 CZ         49.3900   -3.5500  -29.4200 C.ar      5 PHE5        0.0000 
    106 CZ         48.2300   -2.5900  -29.3500 C.ar      5 PHE5        0.0000 
    107 CZ         50.5600   -2.0600  -30.3700 C.ar      5 PHE5        0.0000 
    108 CZ         49.2500    1.4800  -35.9200 C.ar      5 PHE5        0.0000 
    109 CZ         47.5900    1.6200  -33.0100 C.ar      5 PHE5        0.0000 
    110 CZ         49.0100    3.5200  -35.3800 C.ar      5 PHE5        0.0000 
    111 CZ         49.2600    3.9200  -36.8000 C.ar      5 PHE5        0.0000 
    112 CZ         47.8600    4.4700  -35.3100 C.ar      5 PHE5        0.0000 
    113 CZ         48.1100    4.8800  -36.7300 C.ar      5 PHE5        0.0000 
    114 CA         39.3000   -5.6900  -38.1300 C.3       6 GLY6        0.0000 
    115 CA         38.1400   -4.7400  -38.0600 C.3       6 GLY6        0.0000 
    116 CA         38.3900   -4.3300  -39.4900 C.3       6 GLY6        0.0000 
    117 CA         36.9900   -3.7800  -37.9900 C.3       6 GLY6        0.0000 
    118 CA         40.2200   -4.6100  -37.6600 C.3       6 GLY6        0.0000 
    119 CA         38.1600   -2.2900  -38.9400 C.3       6 GLY6        0.0000 
    120 CA         41.1600   -1.0800  -38.0700 C.3       6 GLY6        0.0000 
    121 CA         44.9000   -1.0900  -40.5800 C.3       6 GLY6        0.0000 
    122 CA         42.0900    0.0000  -37.6000 C.3       6 GLY6        0.0000 
    123 CA         49.4400   -5.4500  -34.7000 C.3       6 GLY6        0.0000 
    124 CA         48.0400   -4.9000  -33.2100 C.3       6 GLY6        0.0000 
    125 CA         46.7300   -1.3700  -38.7600 C.3       6 GLY6        0.0000 
    126 CA         50.1200   -4.7700  -32.8100 C.3       6 GLY6        0.0000 
    127 CA         50.3700   -4.3600  -34.2300 C.3       6 GLY6        0.0000 
    128 CA         42.9300    0.5500  -30.9700 C.3       6 GLY6        0.0000 
    129 CA         51.0400   -3.6900  -32.3400 C.3       6 GLY6        0.0000 
    130 CA         49.8800   -2.7300  -32.2700 C.3       6 GLY6        0.0000 
    131 CA         48.7300   -1.7800  -32.2000 C.3       6 GLY6        0.0000 
    132 CA         47.8200   -0.4200  -33.5500 C.3       6 GLY6        0.0000 
    133 CA         50.8100   -1.6500  -31.7900 C.3       6 GLY6        0.0000 
    134 CA         51.0600   -1.2400  -33.2200 C.3       6 GLY6        0.0000 
    135 CA         49.6500   -0.6900  -31.7200 C.3       6 GLY6        0.0000 
    136 CA         49.9000   -0.2900  -33.1500 C.3       6 GLY6        0.0000 
    137 CA         48.7500    0.6700  -33.0800 C.3       6 GLY6        0.0000 
    138 CA         49.0000    1.0700  -34.5000 C.3       6 GLY6        0.0000 
    139 CA         49.4200    1.3400  -31.1800 C.3       6 GLY6        0.0000 
    140 CA         49.9200    2.1600  -34.0300 C.3       6 GLY6        0.0000 
    141 CA         50.6700    3.3800  -38.2900 C.3       6 GLY6        0.0000 
    142 CA         48.7600    3.1100  -33.9600 C.3       6 GLY6        0.0000 
    143 DU         39.0700   -3.6500  -37.5900 H         7 CUB7        0.0000 
    144 DU         39.9900   -2.5700  -37.1200 H         7 CUB7        0.0000 
    145 DU         40.9100   -1.4900  -36.6500 H         7 CUB7        0.0000 
    146 DU         41.9900   -2.9800  -30.5600 H         7 CUB7        0.0000 
    147 DU         41.3400   -1.2200  -33.3300 H         7 CUB7        0.0000 
    148 DU         45.2300   -3.8100  -30.2300 H         7 CUB7        0.0000 
    149 DU         44.0700   -2.8500  -30.1600 H         7 CUB7        0.0000 
    150 DU         43.1700   -1.4900  -31.5100 H         7 CUB7        0.0000 
    151 DU         47.5600   -3.2700  -31.2500 H         7 CUB7        0.0000 
    152 DU         46.1500   -2.7200  -29.7500 H         7 CUB7        0.0000 
    153 DU         46.4000   -2.3200  -31.1800 H         7 CUB7        0.0000 
    154 DU         45.2500   -1.3600  -31.1100 H         7 CUB7        0.0000 
    155 DU         48.4800   -2.1900  -30.7700 H         7 CUB7        0.0000 
    156 DU         47.3200   -1.2300  -30.7000 H         7 CUB7        0.0000 
    157 DU         47.5700   -0.8200  -32.1300 H         7 CUB7        0.0000 
@<TRIPOS>BOND
@<TRIPOS>SUBSTRUCTURE
     1 SER1        1 GROUP   
     2 ALA2       22 GROUP   
     3 ASP3       61 GROUP   
     4 LYS4       69 GROUP   
     5 PHE5       78 GROUP   
     6 GLY6      114 GROUP   
     7 CUB7      143 GROUP   
@<TRIPOS>SET

