#    Name: 5urh_4_FMN
#    Modification time : Fri May 22 19:18:17 2020

@<TRIPOS>MOLECULE
5urh_4_FMN
   31    33     1     0     1
SMALL
NO_CHARGES


@<TRIPOS>ATOM
      1 N1          5.6010   26.2110  -42.1010 N.2       1 FMN701      0.0000 
      2 C2          4.7970   25.9770  -43.1640 C.2       1 FMN701      0.0000 
      3 O2          5.2570   25.7230  -44.2820 O.2       1 FMN701      0.0000 
      4 N3          3.4370   26.0370  -42.9340 N.am      1 FMN701      0.0000 
      5 C4          2.7890   26.3130  -41.7240 C.2       1 FMN701      0.0000 
      6 O4          1.5650   26.3070  -41.7830 O.2       1 FMN701      0.0000 
      7 C4A         3.6230   26.5610  -40.5960 C.2       1 FMN701      0.0000 
      8 N5          3.0010   26.8430  -39.3540 N.2       1 FMN701      0.0000 
      9 C5A         3.8960   27.0700  -38.2970 C.ar      1 FMN701      0.0000 
     10 C6          3.2850   27.3530  -37.0220 C.ar      1 FMN701      0.0000 
     11 C7          4.0620   27.6000  -35.8600 C.ar      1 FMN701      0.0000 
     12 C7M         3.2630   27.8880  -34.5670 C.3       1 FMN701      0.0000 
     13 C8          5.5610   27.5720  -35.9290 C.ar      1 FMN701      0.0000 
     14 C8M         6.4230   27.7930  -34.8760 C.3       1 FMN701      0.0000 
     15 C9          6.1620   27.3010  -37.1560 C.ar      1 FMN701      0.0000 
     16 C9A         5.3660   27.0430  -38.3700 C.ar      1 FMN701      0.0000 
     17 N10         5.9280   26.7450  -39.7070 N.pl3     1 FMN701      0.0000 
     18 C10         5.0300   26.4940  -40.8580 C.2       1 FMN701      0.0000 
     19 C1'         7.3620   26.6910  -39.9130 C.3       1 FMN701      0.0000 
     20 C2'         8.0090   28.0600  -40.2480 C.3       1 FMN701      0.0000 
     21 O2'         7.3750   28.6080  -41.4690 O.3       1 FMN701      0.0000 
     22 C3'         9.5020   27.8750  -40.4530 C.3       1 FMN701      0.0000 
     23 O3'        10.0350   27.3480  -39.2170 O.3       1 FMN701      0.0000 
     24 C4'        10.1370   29.2670  -40.8130 C.3       1 FMN701      0.0000 
     25 O4'        11.5310   28.8900  -41.0070 O.3       1 FMN701      0.0000 
     26 C5'        10.1390   30.2880  -39.6840 C.3       1 FMN701      0.0000 
     27 O5'        10.7240   31.5760  -40.1290 O.3       1 FMN701      0.0000 
     28 P          10.9380   32.8810  -39.2650 P.3       1 FMN701      0.0000 
     29 O1P        11.9780   32.6390  -38.2360 O.co2     1 FMN701      0.0000 
     30 O2P         9.4960   33.2910  -38.8320 O.co2     1 FMN701      0.0000 
     31 O3P        11.5580   33.8470  -40.3800 O.co2     1 FMN701      0.0000 
@<TRIPOS>BOND
     1    1    2 1    
     2    1   18 2    
     3    2    3 2    
     4    2    4 am   
     5    4    5 am   
     6    5    6 2    
     7    5    7 1    
     8    7    8 2    
     9    7   18 1    
    10    8    9 1    
    11    9   10 ar   
    12    9   16 ar   
    13   10   11 ar   
    14   11   12 1    
    15   11   13 ar   
    16   13   14 1    
    17   13   15 ar   
    18   15   16 ar   
    19   16   17 1    
    20   17   18 1    
    21   17   19 1    
    22   19   20 1    
    23   20   21 1    
    24   20   22 1    
    25   22   23 1    
    26   22   24 1    
    27   24   25 1    
    28   24   26 1    
    29   26   27 1    
    30   27   28 1    
    31   28   29 ar   
    32   28   30 ar   
    33   28   31 ar   
@<TRIPOS>SUBSTRUCTURE
     1 FMN701      1 GROUP   
@<TRIPOS>SET
ATOM$ORANGE STATIC     ATOMS   COLORGROUP SYSTEM 
34 2 2 5 5 7 7 9 9 10 10 11 11 12 12 13 13 14 \
14 15 15 16 16 18 18 19 19 20 20 22 22 24 24 26 26 

