#    Name: 5urh_1_FMN
#    Modification time : Fri May 22 19:17:24 2020

@<TRIPOS>MOLECULE
5urh_1_FMN
   31    33     1     0     1
SMALL
NO_CHARGES


@<TRIPOS>ATOM
      1 N1         43.8510   -0.5730  -39.2740 N.2       1 FMN701      0.0000 
      2 C2         44.6720   -0.2880  -40.3020 C.2       1 FMN701      0.0000 
      3 O2         44.2330   -0.0840  -41.4350 O.2       1 FMN701      0.0000 
      4 N3         46.0270   -0.2310  -40.0190 N.am      1 FMN701      0.0000 
      5 C4         46.6530   -0.4340  -38.7760 C.2       1 FMN701      0.0000 
      6 O4         47.8800   -0.3280  -38.7850 O.2       1 FMN701      0.0000 
      7 C4A        45.7940   -0.7290  -37.6800 C.2       1 FMN701      0.0000 
      8 N5         46.3820   -0.9290  -36.4050 N.2       1 FMN701      0.0000 
      9 C5A        45.4490   -1.1990  -35.3820 C.ar      1 FMN701      0.0000 
     10 C6         46.0050   -1.3930  -34.0610 C.ar      1 FMN701      0.0000 
     11 C7         45.1780   -1.6630  -32.9380 C.ar      1 FMN701      0.0000 
     12 C7M        45.9130   -1.8410  -31.5880 C.3       1 FMN701      0.0000 
     13 C8         43.6870   -1.7580  -33.0980 C.ar      1 FMN701      0.0000 
     14 C8M        42.7750   -2.0130  -32.0920 C.3       1 FMN701      0.0000 
     15 C9         43.1420   -1.5780  -34.3610 C.ar      1 FMN701      0.0000 
     16 C9A        43.9780   -1.2940  -35.5320 C.ar      1 FMN701      0.0000 
     17 N10        43.4600   -1.0800  -36.9040 N.pl3     1 FMN701      0.0000 
     18 C10        44.3890   -0.7830  -38.0100 C.2       1 FMN701      0.0000 
     19 C1'        42.0370   -1.1550  -37.1690 C.3       1 FMN701      0.0000 
     20 C2'        41.5470   -2.5960  -37.4700 C.3       1 FMN701      0.0000 
     21 O2'        42.2760   -3.0870  -38.6580 O.3       1 FMN701      0.0000 
     22 C3'        40.0530   -2.5920  -37.7250 C.3       1 FMN701      0.0000 
     23 O3'        39.4300   -2.1130  -36.5030 O.3       1 FMN701      0.0000 
     24 C4'        39.5850   -4.0500  -38.0470 C.3       1 FMN701      0.0000 
     25 O4'        38.1690   -3.8090  -38.3010 O.3       1 FMN701      0.0000 
     26 C5'        39.6060   -4.9990  -36.8680 C.3       1 FMN701      0.0000 
     27 O5'        39.1760   -6.3640  -37.2530 O.3       1 FMN701      0.0000 
     28 P          39.0170   -7.6040  -36.2850 P.3       1 FMN701      0.0000 
     29 O1P        37.8820   -7.3490  -35.3630 O.co2     1 FMN701      0.0000 
     30 O2P        40.4460   -7.8340  -35.7070 O.co2     1 FMN701      0.0000 
     31 O3P        38.5770   -8.7520  -37.3290 O.co2     1 FMN701      0.0000 
@<TRIPOS>BOND
     1    1    2 1    
     2    1   18 2    
     3    2    3 2    
     4    2    4 am   
     5    4    5 am   
     6    5    6 2    
     7    5    7 1    
     8    7    8 2    
     9    7   18 1    
    10    8    9 1    
    11    9   10 ar   
    12    9   16 ar   
    13   10   11 ar   
    14   11   12 1    
    15   11   13 ar   
    16   13   14 1    
    17   13   15 ar   
    18   15   16 ar   
    19   16   17 1    
    20   17   18 1    
    21   17   19 1    
    22   19   20 1    
    23   20   21 1    
    24   20   22 1    
    25   22   23 1    
    26   22   24 1    
    27   24   25 1    
    28   24   26 1    
    29   26   27 1    
    30   27   28 1    
    31   28   29 ar   
    32   28   30 ar   
    33   28   31 ar   
@<TRIPOS>SUBSTRUCTURE
     1 FMN701      1 GROUP   
@<TRIPOS>SET
ATOM$ORANGE STATIC     ATOMS   COLORGROUP SYSTEM 
34 2 2 5 5 7 7 9 9 10 10 11 11 12 12 13 13 14 \
14 15 15 16 16 18 18 19 19 20 20 22 22 24 24 26 26 

