#    Name: 5urh_2_FAD
#    Modification time : Fri May 22 19:17:45 2020

@<TRIPOS>MOLECULE
5urh_2_FAD
   53    58     1     0     1
SMALL
NO_CHARGES


@<TRIPOS>ATOM
      1 PA         32.2990   -0.6210  -24.7850 P.3       1 FAD702      0.0000 
      2 O1A        31.1100   -1.3860  -24.3530 O.co2     1 FAD702      0.0000 
      3 O2A        33.3710   -1.3160  -25.5330 O.co2     1 FAD702      0.0000 
      4 O5B        31.8080    0.6430  -25.6500 O.3       1 FAD702      0.0000 
      5 C5B        32.7790    1.4380  -26.3340 C.3       1 FAD702      0.0000 
      6 C4B        32.0950    2.1710  -27.4900 C.3       1 FAD702      0.0000 
      7 O4B        31.1370    3.1220  -27.0070 O.3       1 FAD702      0.0000 
      8 C3B        33.0920    3.0540  -28.2160 C.3       1 FAD702      0.0000 
      9 O3B        33.8880    2.2250  -29.0740 O.3       1 FAD702      0.0000 
     10 C2B        32.1030    3.8410  -29.0530 C.3       1 FAD702      0.0000 
     11 O2B        31.6470    3.0270  -30.1430 O.3       1 FAD702      0.0000 
     12 C1B        30.9670    4.0790  -28.0680 C.3       1 FAD702      0.0000 
     13 N9A        31.0710    5.4150  -27.4430 N.pl3     1 FAD702      0.0000 
     14 C8A        32.0220    5.8190  -26.3890 C.2       1 FAD702      0.0000 
     15 N7A        31.5060    7.1680  -26.0780 N.2       1 FAD702      0.0000 
     16 C5A        30.5480    7.4710  -26.9510 C.ar      1 FAD702      0.0000 
     17 C6A        29.8110    8.5760  -27.0460 C.ar      1 FAD702      0.0000 
     18 N6A        30.0230    9.5060  -26.1180 N.pl3     1 FAD702      0.0000 
     19 N1A        28.9240    8.7670  -28.0330 N.ar      1 FAD702      0.0000 
     20 C2A        28.7690    7.7720  -29.0040 C.ar      1 FAD702      0.0000 
     21 N3A        29.5580    6.6240  -28.8770 N.ar      1 FAD702      0.0000 
     22 C4A        30.4160    6.4980  -27.8540 C.ar      1 FAD702      0.0000 
     23 N1         41.1940    2.6400  -22.4960 N.2       1 FAD702      0.0000 
     24 C2         41.5840    3.2400  -21.2930 C.2       1 FAD702      0.0000 
     25 O2         40.7690    3.8850  -20.6350 O.2       1 FAD702      0.0000 
     26 N3         42.8980    3.0830  -20.8370 N.am      1 FAD702      0.0000 
     27 C4         43.8210    2.3390  -21.5830 C.2       1 FAD702      0.0000 
     28 O4         44.9240    2.0860  -21.1010 O.2       1 FAD702      0.0000 
     29 C4X        43.4330    1.7730  -22.7920 C.2       1 FAD702      0.0000 
     30 N5         44.3510    1.2320  -23.6050 N.2       1 FAD702      0.0000 
     31 C5X        43.9710    0.6800  -24.7660 C.ar      1 FAD702      0.0000 
     32 C6         44.9090    0.0340  -25.5640 C.ar      1 FAD702      0.0000 
     33 C7         44.5190   -0.5630  -26.7570 C.ar      1 FAD702      0.0000 
     34 C7M        45.4720   -1.1650  -27.5730 C.3       1 FAD702      0.0000 
     35 C8         43.1830   -0.5280  -27.1440 C.ar      1 FAD702      0.0000 
     36 C8M        42.7750   -1.1500  -28.3180 C.3       1 FAD702      0.0000 
     37 C9         42.2400    0.0860  -26.3270 C.ar      1 FAD702      0.0000 
     38 C9A        42.6260    0.6710  -25.1270 C.ar      1 FAD702      0.0000 
     39 N10        41.7100    1.1780  -24.2880 N.pl3     1 FAD702      0.0000 
     40 C10        42.1230    1.9040  -23.2400 C.2       1 FAD702      0.0000 
     41 C1'        40.2690    1.1630  -24.6330 C.3       1 FAD702      0.0000 
     42 C2'        39.5840   -0.0390  -23.9760 C.3       1 FAD702      0.0000 
     43 O2'        40.1290   -1.2520  -24.4990 O.3       1 FAD702      0.0000 
     44 C3'        38.0690   -0.0230  -24.1940 C.3       1 FAD702      0.0000 
     45 O3'        37.7710    0.1920  -25.5770 O.3       1 FAD702      0.0000 
     46 C4'        37.4220    1.0730  -23.3430 C.3       1 FAD702      0.0000 
     47 O4'        37.7640    0.8800  -21.9680 O.3       1 FAD702      0.0000 
     48 C5'        35.9010    1.0290  -23.5100 C.3       1 FAD702      0.0000 
     49 O5'        35.4420   -0.3130  -23.3260 O.3       1 FAD702      0.0000 
     50 P          34.0550   -0.6450  -22.5780 P.3       1 FAD702      0.0000 
     51 O1P        34.0610    0.0020  -21.2480 O.co2     1 FAD702      0.0000 
     52 O2P        33.8560   -2.1100  -22.6500 O.co2     1 FAD702      0.0000 
     53 O3P        32.9520    0.0890  -23.4940 O.3       1 FAD702      0.0000 
@<TRIPOS>BOND
     1    1    2 ar   
     2    1    3 ar   
     3    1    4 1    
     4    1   53 1    
     5    4    5 1    
     6    5    6 1    
     7    6    7 1    
     8    6    8 1    
     9    7   12 1    
    10    8    9 1    
    11    8   10 1    
    12   10   11 1    
    13   10   12 1    
    14   12   13 1    
    15   13   14 1    
    16   13   22 1    
    17   14   15 2    
    18   15   16 1    
    19   16   17 ar   
    20   16   22 ar   
    21   17   18 1    
    22   17   19 ar   
    23   19   20 ar   
    24   20   21 ar   
    25   21   22 ar   
    26   23   24 1    
    27   23   40 2    
    28   24   25 2    
    29   24   26 am   
    30   26   27 am   
    31   27   28 2    
    32   27   29 1    
    33   29   30 2    
    34   29   40 1    
    35   30   31 1    
    36   31   32 ar   
    37   31   38 ar   
    38   32   33 ar   
    39   33   34 1    
    40   33   35 ar   
    41   35   36 1    
    42   35   37 ar   
    43   37   38 ar   
    44   38   39 1    
    45   39   40 1    
    46   39   41 1    
    47   41   42 1    
    48   42   43 1    
    49   42   44 1    
    50   44   45 1    
    51   44   46 1    
    52   46   47 1    
    53   46   48 1    
    54   48   49 1    
    55   49   50 1    
    56   50   51 ar   
    57   50   52 ar   
    58   50   53 1    
@<TRIPOS>SUBSTRUCTURE
     1 FAD702      1 GROUP   
@<TRIPOS>SET
ATOM$ORANGE STATIC     ATOMS   COLORGROUP SYSTEM 
54 5 5 6 6 8 8 10 10 12 12 14 14 16 16 17 17 20 \
20 22 22 24 24 27 27 29 29 31 31 32 32 33 33 34 34 35 \
35 36 36 37 37 38 38 40 40 41 41 42 42 44 44 46 46 48 \
48 

