#    Name: 5urh_2_FAD_CAVITY_N1_6
#    Modification time : Fri May 22 19:17:46 2020

@<TRIPOS>MOLECULE
5urh_2_FAD_CAVITY_N1_6
   96     0     7     0     0
SMALL
NO_CHARGES


@<TRIPOS>ATOM
      1 OG         37.0500   -0.1200  -22.7000 O.3       1 SER1        0.0000 
      2 OG         37.9700    0.9700  -22.2200 O.3       1 SER1        0.0000 
      3 OG         45.6700   -1.0900  -27.7900 O.3       1 SER1        0.0000 
      4 OG         44.9400    0.1300  -24.4000 O.3       1 SER1        0.0000 
      5 OG         40.9900    4.6300  -22.2300 O.3       1 SER1        0.0000 
      6 O          31.9700   -1.4600  -23.9700 O.2       2 ALA2        0.0000 
      7 N          32.4600   -0.6500  -26.8200 N.am      2 ALA2        0.0000 
      8 O          33.7900   -1.7400  -22.1500 O.2       2 ALA2        0.0000 
      9 O          34.7200   -0.6500  -21.6800 O.2       2 ALA2        0.0000 
     10 N          42.1900   -0.6700  -26.7000 N.am      2 ALA2        0.0000 
     11 N          40.7800   -0.1300  -25.2100 N.am      2 ALA2        0.0000 
     12 N          39.3700    0.4200  -23.7200 N.am      2 ALA2        0.0000 
     13 N          45.9200   -0.6800  -29.2100 N.am      2 ALA2        0.0000 
     14 N          44.0100   -0.9500  -24.8800 N.am      2 ALA2        0.0000 
     15 N          42.8600    0.0000  -24.8100 N.am      2 ALA2        0.0000 
     16 N          41.4500    0.5500  -23.3100 N.am      2 ALA2        0.0000 
     17 N          41.7000    0.9600  -24.7400 N.am      2 ALA2        0.0000 
     18 N          38.4900    4.2200  -25.9500 N.am      2 ALA2        0.0000 
     19 N          37.3300    5.1800  -25.8800 N.am      2 ALA2        0.0000 
     20 N          43.5300    0.6800  -22.9100 N.am      2 ALA2        0.0000 
     21 N          42.3800    1.6300  -22.8400 N.am      2 ALA2        0.0000 
     22 O          41.2200    2.5900  -22.7700 O.2       2 ALA2        0.0000 
     23 O          40.3100    3.9500  -24.1200 O.2       2 ALA2        0.0000 
     24 O          39.1600    4.9000  -24.0500 O.2       2 ALA2        0.0000 
     25 N          38.2500    6.2600  -25.4100 N.am      2 ALA2        0.0000 
     26 N          43.0500    2.3100  -20.9500 N.am      2 ALA2        0.0000 
     27 N          41.8900    3.2700  -20.8800 N.am      2 ALA2        0.0000 
     28 O          40.7400    4.2200  -20.8100 O.2       2 ALA2        0.0000 
     29 N          42.8200    4.3500  -20.4100 N.am      2 ALA2        0.0000 
     30 OD1        33.3700   -2.0100  -25.4600 O.co2     3 ASP3        0.0000 
     31 OD1        32.2100   -1.0500  -25.3900 O.co2     3 ASP3        0.0000 
     32 OD1        31.3100    0.3100  -26.7500 O.co2     3 ASP3        0.0000 
     33 OD1        34.0400   -1.3300  -23.5700 O.co2     3 ASP3        0.0000 
     34 NZ         46.5900   -0.0100  -27.3200 N.4       4 LYS4        0.0000 
     35 CZ         41.7400   -3.3900  -29.1400 C.ar      5 PHE5        0.0000 
     36 CZ         43.8200   -3.2600  -28.7300 C.ar      5 PHE5        0.0000 
     37 CZ         39.8700    1.2300  -26.5600 C.ar      5 PHE5        0.0000 
     38 CZ         46.8200   -2.0400  -27.8600 C.ar      5 PHE5        0.0000 
     39 CZ         45.4200   -1.5000  -26.3700 C.ar      5 PHE5        0.0000 
     40 CZ         41.9500    1.3600  -26.1600 C.ar      5 PHE5        0.0000 
     41 CZ         40.3000    1.5000  -23.2400 C.ar      5 PHE5        0.0000 
     42 CZ         40.5500    1.9100  -24.6700 C.ar      5 PHE5        0.0000 
     43 CZ         39.3900    2.8600  -24.6000 C.ar      5 PHE5        0.0000 
     44 CZ         39.6400    3.2700  -26.0200 C.ar      5 PHE5        0.0000 
     45 CZ         46.3400   -0.4100  -25.9000 C.ar      5 PHE5        0.0000 
     46 CZ         45.1900    0.5400  -25.8300 C.ar      5 PHE5        0.0000 
     47 CZ         45.4400    0.9500  -27.2500 C.ar      5 PHE5        0.0000 
     48 CZ         43.7800    1.0900  -24.3300 C.ar      5 PHE5        0.0000 
     49 CZ         42.6300    2.0400  -24.2600 C.ar      5 PHE5        0.0000 
     50 CZ         40.9700    2.1800  -21.3500 C.ar      5 PHE5        0.0000 
     51 CZ         43.3000    2.7200  -22.3700 C.ar      5 PHE5        0.0000 
     52 CZ         42.1400    3.6700  -22.3000 C.ar      5 PHE5        0.0000 
     53 CZ         43.0700    4.7600  -21.8300 C.ar      5 PHE5        0.0000 
     54 CA         32.8900   -0.3800  -23.5000 C.3       6 GLY6        0.0000 
     55 CA         31.9800    0.9800  -24.8500 C.3       6 GLY6        0.0000 
     56 CA         36.1200   -1.2000  -23.1700 C.3       6 GLY6        0.0000 
     57 CA         33.8100    0.7100  -23.0300 C.3       6 GLY6        0.0000 
     58 CA         34.0600    1.1100  -24.4500 C.3       6 GLY6        0.0000 
     59 CA         33.1600    2.4700  -25.8000 C.3       6 GLY6        0.0000 
     60 CA         38.4500   -0.6600  -24.1900 C.3       6 GLY6        0.0000 
     61 CA         35.8900    0.8400  -22.6300 C.3       6 GLY6        0.0000 
     62 CA         34.9800    2.2000  -23.9800 C.3       6 GLY6        0.0000 
     63 CA         44.5000   -2.5800  -26.8400 C.3       6 GLY6        0.0000 
     64 CA         44.7500   -2.1700  -28.2600 C.3       6 GLY6        0.0000 
     65 CA         43.3400   -1.6300  -26.7700 C.3       6 GLY6        0.0000 
     66 CA         43.5900   -1.2200  -28.1900 C.3       6 GLY6        0.0000 
     67 CA         43.8400   -0.8100  -29.6100 C.3       6 GLY6        0.0000 
     68 CA         42.4300   -0.2700  -28.1200 C.3       6 GLY6        0.0000 
     69 CA         41.0300    0.2800  -26.6300 C.3       6 GLY6        0.0000 
     70 CA         41.2800    0.6900  -28.0500 C.3       6 GLY6        0.0000 
     71 CA         37.0600    2.3300  -23.5800 C.3       6 GLY6        0.0000 
     72 CA         45.1700   -1.9000  -24.9500 C.3       6 GLY6        0.0000 
     73 CA         44.2600   -0.5400  -26.3000 C.3       6 GLY6        0.0000 
     74 CA         44.5100   -0.1400  -27.7200 C.3       6 GLY6        0.0000 
     75 CA         44.7600    0.2700  -29.1400 C.3       6 GLY6        0.0000 
     76 CA         43.1100    0.4100  -26.2300 C.3       6 GLY6        0.0000 
     77 CA         37.0800    4.7700  -24.4600 C.3       6 GLY6        0.0000 
     78 CA         38.0000    5.8600  -23.9900 C.3       6 GLY6        0.0000 
     79 DU         31.0600   -0.1000  -25.3200 H         7 CUB7        0.0000 
     80 DU         33.1400    0.0300  -24.9200 H         7 CUB7        0.0000 
     81 DU         32.2300    1.3900  -26.2800 H         7 CUB7        0.0000 
     82 DU         34.9700   -0.2500  -23.1000 H         7 CUB7        0.0000 
     83 DU         35.2200    0.1600  -24.5200 H         7 CUB7        0.0000 
     84 DU         34.3100    1.5200  -25.8700 H         7 CUB7        0.0000 
     85 DU         42.6700   -2.3100  -28.6600 H         7 CUB7        0.0000 
     86 DU         41.5100   -1.3500  -28.5900 H         7 CUB7        0.0000 
     87 DU         40.3600   -0.4000  -28.5200 H         7 CUB7        0.0000 
     88 DU         38.7000   -0.2600  -25.6100 H         7 CUB7        0.0000 
     89 DU         37.3000    0.2900  -24.1200 H         7 CUB7        0.0000 
     90 DU         37.5500    0.7000  -25.5400 H         7 CUB7        0.0000 
     91 DU         36.1400    1.2400  -24.0500 H         7 CUB7        0.0000 
     92 DU         39.6200    0.8300  -25.1400 H         7 CUB7        0.0000 
     93 DU         38.2200    1.3700  -23.6500 H         7 CUB7        0.0000 
     94 DU         38.4700    1.7800  -25.0700 H         7 CUB7        0.0000 
     95 DU         37.3100    2.7300  -25.0000 H         7 CUB7        0.0000 
     96 DU         38.2400    3.8200  -24.5300 H         7 CUB7        0.0000 
@<TRIPOS>BOND
@<TRIPOS>SUBSTRUCTURE
     1 SER1        1 GROUP   
     2 ALA2        6 GROUP   
     3 ASP3       30 GROUP   
     4 LYS4       34 GROUP   
     5 PHE5       35 GROUP   
     6 GLY6       54 GROUP   
     7 CUB7       79 GROUP   
@<TRIPOS>SET

