#    Name: 5urh_3_NAP_CAVITY_N1_12
#    Modification time : Fri May 22 19:18:08 2020

@<TRIPOS>MOLECULE
5urh_3_NAP_CAVITY_N1_12
   73     0     7     0     0
SMALL
NO_CHARGES


@<TRIPOS>ATOM
      1 OG         41.3200   17.2500  -28.0500 O.3       1 SER1        0.0000 
      2 OG         39.9200   17.8000  -26.5600 O.3       1 SER1        0.0000 
      3 OG         40.1700   18.2100  -27.9800 O.3       1 SER1        0.0000 
      4 OG         41.5000   17.1200  -23.3200 O.3       1 SER1        0.0000 
      5 OG         40.3400   18.0700  -23.2500 O.3       1 SER1        0.0000 
      6 OG         40.5900   18.4800  -24.6700 O.3       1 SER1        0.0000 
      7 OG         42.4200   18.2000  -22.8400 O.3       1 SER1        0.0000 
      8 N          40.8700   12.0900  -29.6100 N.am      2 ALA2        0.0000 
      9 N          41.5400   12.7700  -27.7200 N.am      2 ALA2        0.0000 
     10 N          41.7900   13.1800  -29.1400 N.am      2 ALA2        0.0000 
     11 O          42.0400   13.5900  -30.5600 O.2       2 ALA2        0.0000 
     12 O          44.1300   16.1600  -31.0400 O.2       2 ALA2        0.0000 
     13 O          43.5600   14.8000  -22.0300 O.2       2 ALA2        0.0000 
     14 OD1        40.5400   11.1500  -22.0300 O.co2     3 ASP3        0.0000 
     15 OD1        39.6300   12.5100  -23.3800 O.co2     3 ASP3        0.0000 
     16 OD1        38.4800   13.4600  -23.3100 O.co2     3 ASP3        0.0000 
     17 OD1        40.3100   13.1800  -21.4900 O.co2     3 ASP3        0.0000 
     18 OD1        39.4000   14.5400  -22.8400 O.co2     3 ASP3        0.0000 
     19 OD1        40.3300   15.6300  -22.3700 O.co2     3 ASP3        0.0000 
     20 OD1        39.4200   16.9900  -23.7200 O.co2     3 ASP3        0.0000 
     21 NZ         42.9800   17.1100  -30.9700 N.4       4 LYS4        0.0000 
     22 NZ         43.9000   18.2000  -30.5000 N.4       4 LYS4        0.0000 
     23 CZ         41.0700   16.8500  -26.6300 C.ar      5 PHE5        0.0000 
     24 CZ         43.1500   16.9800  -26.2300 C.ar      5 PHE5        0.0000 
     25 CZ         43.4000   17.3800  -27.6500 C.ar      5 PHE5        0.0000 
     26 CZ         43.6500   17.7900  -29.0700 C.ar      5 PHE5        0.0000 
     27 CZ         41.7500   17.5300  -24.7400 C.ar      5 PHE5        0.0000 
     28 CZ         42.0000   17.9300  -26.1600 C.ar      5 PHE5        0.0000 
     29 CZ         40.8400   18.8900  -26.0900 C.ar      5 PHE5        0.0000 
     30 CZ         42.6700   18.6100  -24.2700 C.ar      5 PHE5        0.0000 
     31 CA         40.1200   10.8800  -25.3400 C.3       6 GLY6        0.0000 
     32 CA         40.3700   11.2800  -26.7700 C.3       6 GLY6        0.0000 
     33 CA         40.6200   11.6900  -28.1900 C.3       6 GLY6        0.0000 
     34 CA         41.2900   12.3700  -26.2900 C.3       6 GLY6        0.0000 
     35 CA         43.6200   12.9000  -27.3100 C.3       6 GLY6        0.0000 
     36 CA         41.4600   12.2300  -21.5600 C.3       6 GLY6        0.0000 
     37 CA         41.7100   12.6400  -22.9800 C.3       6 GLY6        0.0000 
     38 CA         42.7100   14.2600  -28.6700 C.3       6 GLY6        0.0000 
     39 CA         42.9600   14.6700  -30.0900 C.3       6 GLY6        0.0000 
     40 CA         41.8100   15.6200  -30.0200 C.3       6 GLY6        0.0000 
     41 CA         42.0600   16.0300  -31.4400 C.3       6 GLY6        0.0000 
     42 CA         44.0400   13.1700  -24.0000 C.3       6 GLY6        0.0000 
     43 CA         44.5400   13.9900  -26.8400 C.3       6 GLY6        0.0000 
     44 CA         42.6400   13.7200  -22.5100 C.3       6 GLY6        0.0000 
     45 CA         42.8900   14.1300  -23.9300 C.3       6 GLY6        0.0000 
     46 CA         43.1400   14.5300  -25.3500 C.3       6 GLY6        0.0000 
     47 CA         43.3900   14.9400  -26.7700 C.3       6 GLY6        0.0000 
     48 CA         43.6300   15.3500  -28.1900 C.3       6 GLY6        0.0000 
     49 CA         43.8800   15.7500  -29.6200 C.3       6 GLY6        0.0000 
     50 CA         43.8100   15.2100  -23.4600 C.3       6 GLY6        0.0000 
     51 CA         44.0600   15.6200  -24.8800 C.3       6 GLY6        0.0000 
     52 CA         44.3100   16.0200  -26.3000 C.3       6 GLY6        0.0000 
     53 CA         44.5600   16.4300  -27.7200 C.3       6 GLY6        0.0000 
     54 CA         44.8100   16.8400  -29.1400 C.3       6 GLY6        0.0000 
     55 CA         42.4000   15.7600  -21.9600 C.3       6 GLY6        0.0000 
     56 CA         41.2500   16.7100  -21.8900 C.3       6 GLY6        0.0000 
     57 DU         40.7900   11.5500  -23.4500 H         7 CUB7        0.0000 
     58 DU         39.8800   12.9100  -24.8000 H         7 CUB7        0.0000 
     59 DU         41.9600   13.0400  -24.4000 H         7 CUB7        0.0000 
     60 DU         42.2100   13.4500  -25.8200 H         7 CUB7        0.0000 
     61 DU         42.4600   13.8600  -27.2400 H         7 CUB7        0.0000 
     62 DU         40.5600   13.5900  -22.9100 H         7 CUB7        0.0000 
     63 DU         41.5600   15.2200  -28.6000 H         7 CUB7        0.0000 
     64 DU         41.4800   14.6700  -22.4400 H         7 CUB7        0.0000 
     65 DU         41.7300   15.0800  -23.8600 H         7 CUB7        0.0000 
     66 DU         41.9800   15.4900  -25.2800 H         7 CUB7        0.0000 
     67 DU         42.2300   15.8900  -26.7000 H         7 CUB7        0.0000 
     68 DU         42.4800   16.3000  -28.1200 H         7 CUB7        0.0000 
     69 DU         42.7300   16.7100  -29.5500 H         7 CUB7        0.0000 
     70 DU         40.5700   16.0300  -23.7900 H         7 CUB7        0.0000 
     71 DU         40.8200   16.4400  -25.2100 H         7 CUB7        0.0000 
     72 DU         42.6500   16.1600  -23.3900 H         7 CUB7        0.0000 
     73 DU         42.9000   16.5700  -24.8100 H         7 CUB7        0.0000 
@<TRIPOS>BOND
@<TRIPOS>SUBSTRUCTURE
     1 SER1        1 GROUP   
     2 ALA2        8 GROUP   
     3 ASP3       14 GROUP   
     4 LYS4       21 GROUP   
     5 PHE5       23 GROUP   
     6 GLY6       31 GROUP   
     7 CUB7       57 GROUP   
@<TRIPOS>SET

