#    Name: 5urh_3_NAP
#    Modification time : Fri May 22 19:18:06 2020

@<TRIPOS>MOLECULE
5urh_3_NAP
   40    43     1     0     1
SMALL
NO_CHARGES


@<TRIPOS>ATOM
      1 PA         40.1340   13.5830  -22.8680 P.3       1 NAP703      0.0000 
      2 O1A        39.9710   13.9320  -21.4400 O.co2     1 NAP703      0.0000 
      3 O2A        38.9510   13.6240  -23.7560 O.co2     1 NAP703      0.0000 
      4 O5B        41.2980   14.4910  -23.5050 O.3       1 NAP703      0.0000 
      5 C5B        42.5160   14.6720  -22.7800 C.3       1 NAP703      0.0000 
      6 C4B        43.1000   16.0290  -23.1720 C.3       1 NAP703      0.0000 
      7 O4B        43.3570   15.9830  -24.5870 O.3       1 NAP703      0.0000 
      8 C3B        42.0420   17.1030  -22.9600 C.3       1 NAP703      0.0000 
      9 O3B        42.6460   18.2860  -22.4190 O.3       1 NAP703      0.0000 
     10 C2B        41.5180   17.3630  -24.3620 C.3       1 NAP703      0.0000 
     11 O2B        41.1120   18.7380  -24.4490 O.3       1 NAP703      0.0000 
     12 C1B        42.8210   17.2010  -25.1220 C.3       1 NAP703      0.0000 
     13 N9A        42.6430   17.1000  -26.5880 N.pl3     1 NAP703      0.0000 
     14 C8A        41.4860   17.0790  -27.2420 C.2       1 NAP703      0.0000 
     15 N7A        41.7580   17.1000  -28.5440 N.2       1 NAP703      0.0000 
     16 C5A        43.0790   17.1430  -28.6930 C.ar      1 NAP703      0.0000 
     17 C6A        43.8340   17.3150  -29.7770 C.ar      1 NAP703      0.0000 
     18 N6A        43.2300   17.1290  -30.9480 N.pl3     1 NAP703      0.0000 
     19 N1A        45.1640   17.4600  -29.6990 N.ar      1 NAP703      0.0000 
     20 C2A        45.7760   17.3970  -28.4420 C.ar      1 NAP703      0.0000 
     21 N3A        44.9560   17.2030  -27.3240 N.ar      1 NAP703      0.0000 
     22 C4A        43.6290   17.1030  -27.4810 C.ar      1 NAP703      0.0000 
     23 O3         40.7990   12.1230  -22.9940 O.3       1 NAP703      0.0000 
     24 PN         40.5060   10.6200  -22.5060 P.3       1 NAP703      0.0000 
     25 O1N        40.0220   10.6710  -21.1080 O.co2     1 NAP703      0.0000 
     26 O2N        41.6770    9.7720  -22.8220 O.co2     1 NAP703      0.0000 
     27 O5D        39.2890   10.1940  -23.4700 O.3       1 NAP703      0.0000 
     28 C5D        37.9520   10.1880  -22.9630 C.3       1 NAP703      0.0000 
     29 C4D        36.9520    9.8420  -24.0690 C.3       1 NAP703      0.0000 
     30 O4D        36.9550   10.8850  -25.0630 O.3       1 NAP703      0.0000 
     31 C3D        37.3830    8.5710  -24.7870 C.3       1 NAP703      0.0000 
     32 O3D        36.2390    7.7600  -25.0900 O.3       1 NAP703      0.0000 
     33 C2D        37.9820    9.1150  -26.0700 C.3       1 NAP703      0.0000 
     34 O2D        37.9130    8.1290  -27.1110 O.3       1 NAP703      0.0000 
     35 C1D        36.9610   10.2080  -26.3290 C.3       1 NAP703      0.0000 
     36 N1N        37.3430   11.1100  -27.4390 N.pl3     1 NAP703      0.0000 
     37 P2B        39.5770   19.1650  -24.6850 P.3       1 NAP703      0.0000 
     38 O1X        38.7990   17.9590  -24.3260 O.co2     1 NAP703      0.0000 
     39 O2X        39.5310   19.5260  -26.1190 O.co2     1 NAP703      0.0000 
     40 O3X        39.3950   20.3070  -23.7610 O.co2     1 NAP703      0.0000 
@<TRIPOS>BOND
     1    1    2 ar   
     2    1    3 ar   
     3    1    4 1    
     4    1   23 1    
     5    4    5 1    
     6    5    6 1    
     7    6    7 1    
     8    6    8 1    
     9    7   12 1    
    10    8    9 1    
    11    8   10 1    
    12   10   11 1    
    13   10   12 1    
    14   11   37 1    
    15   12   13 1    
    16   13   14 1    
    17   13   22 1    
    18   14   15 2    
    19   15   16 1    
    20   16   17 ar   
    21   16   22 ar   
    22   17   18 1    
    23   17   19 ar   
    24   19   20 ar   
    25   20   21 ar   
    26   21   22 ar   
    27   23   24 1    
    28   24   25 ar   
    29   24   26 ar   
    30   24   27 1    
    31   27   28 1    
    32   28   29 1    
    33   29   30 1    
    34   29   31 1    
    35   30   35 1    
    36   31   32 1    
    37   31   33 1    
    38   33   34 1    
    39   33   35 1    
    40   35   36 1    
    41   37   38 ar   
    42   37   39 ar   
    43   37   40 ar   
@<TRIPOS>SUBSTRUCTURE
     1 NAP703      1 GROUP   
@<TRIPOS>SET
ATOM$ORANGE STATIC     ATOMS   COLORGROUP SYSTEM 
30 5 5 6 6 8 8 10 10 12 12 14 14 16 16 17 17 20 \
20 22 22 28 28 29 29 31 31 33 33 35 35 

