#    Name: 5urh_4_FMN_CAVITY_N1_12
#    Modification time : Fri May 22 19:18:19 2020

@<TRIPOS>MOLECULE
5urh_4_FMN_CAVITY_N1_12
   71     0     6     0     0
SMALL
NO_CHARGES


@<TRIPOS>ATOM
      1 OG          3.4900   26.3200  -36.8500 O.3       1 SER1        0.0000 
      2 OG          6.7300   25.4900  -36.5200 O.3       1 SER1        0.0000 
      3 OG          6.9800   25.9000  -37.9400 O.3       1 SER1        0.0000 
      4 OG          5.5700   26.4500  -36.4500 O.3       1 SER1        0.0000 
      5 OG          5.8200   26.8500  -37.8700 O.3       1 SER1        0.0000 
      6 OG          4.1700   27.0000  -34.9600 O.3       1 SER1        0.0000 
      7 OG          4.4200   27.4000  -36.3800 O.3       1 SER1        0.0000 
      8 OG          8.8200   28.0700  -37.0000 O.3       1 SER1        0.0000 
      9 OG          9.0700   28.4800  -38.4200 O.3       1 SER1        0.0000 
     10 OG          9.3200   28.8800  -39.8400 O.3       1 SER1        0.0000 
     11 OG          7.6700   29.0200  -36.9300 O.3       1 SER1        0.0000 
     12 OG         11.4000   29.0100  -39.4400 O.3       1 SER1        0.0000 
     13 OG          9.7500   29.1500  -36.5200 O.3       1 SER1        0.0000 
     14 OG         10.0000   29.5600  -37.9500 O.3       1 SER1        0.0000 
     15 OG         10.2400   29.9700  -39.3700 O.3       1 SER1        0.0000 
     16 OG         13.4800   29.1400  -39.0400 O.3       1 SER1        0.0000 
     17 OG         12.0700   29.6900  -37.5400 O.3       1 SER1        0.0000 
     18 OG         12.3200   30.1000  -38.9700 O.3       1 SER1        0.0000 
     19 OG         11.1700   31.0500  -38.9000 O.3       1 SER1        0.0000 
     20 N           4.7200   25.9100  -43.0800 N.am      2 ALA2        0.0000 
     21 N           3.3200   26.4500  -41.5900 N.am      2 ALA2        0.0000 
     22 O           1.6600   26.5900  -38.6700 O.2       2 ALA2        0.0000 
     23 N           5.4000   26.5800  -41.1900 N.am      2 ALA2        0.0000 
     24 N           3.9900   27.1300  -39.6900 N.am      2 ALA2        0.0000 
     25 O           2.3400   27.2700  -36.7800 O.2       2 ALA2        0.0000 
     26 N           6.0700   27.2600  -39.2900 N.am      2 ALA2        0.0000 
     27 N           4.9100   28.2200  -39.2200 N.am      2 ALA2        0.0000 
     28 O           3.5100   28.7600  -37.7300 O.2       2 ALA2        0.0000 
     29 N           9.8000   27.2500  -41.8000 N.am      2 ALA2        0.0000 
     30 N           8.4000   27.8000  -40.3100 N.am      2 ALA2        0.0000 
     31 N           8.6500   28.2000  -41.7300 N.am      2 ALA2        0.0000 
     32 N           7.2400   28.7500  -40.2400 N.am      2 ALA2        0.0000 
     33 N           9.5700   29.2900  -41.2600 N.am      2 ALA2        0.0000 
     34 NZ          9.0500   26.0300  -37.5400 N.4       3 LYS4        0.0000 
     35 NZ          9.3000   26.4400  -38.9600 N.4       3 LYS4        0.0000 
     36 NZ         10.2300   27.5200  -38.4900 N.4       3 LYS4        0.0000 
     37 NZ         12.3100   27.6500  -38.0900 N.4       3 LYS4        0.0000 
     38 NZ         12.5600   28.0600  -39.5100 N.4       3 LYS4        0.0000 
     39 CZ          4.2200   25.0900  -40.2400 C.ar      4 PHE5        0.0000 
     40 CZ          4.4700   25.5000  -41.6600 C.ar      4 PHE5        0.0000 
     41 CZ          3.0700   26.0500  -40.1700 C.ar      4 PHE5        0.0000 
     42 CZ          6.3000   25.2200  -39.8300 C.ar      4 PHE5        0.0000 
     43 CZ          4.9000   25.7700  -38.3400 C.ar      4 PHE5        0.0000 
     44 CZ          5.1500   26.1800  -39.7600 C.ar      4 PHE5        0.0000 
     45 CZ          3.7400   26.7200  -38.2700 C.ar      4 PHE5        0.0000 
     46 CZ          8.1300   24.9500  -38.0100 C.ar      4 PHE5        0.0000 
     47 CZ          4.6600   27.8100  -37.8000 C.ar      4 PHE5        0.0000 
     48 CZ          6.4900   27.5300  -35.9800 C.ar      4 PHE5        0.0000 
     49 CZ          6.7400   27.9400  -37.4000 C.ar      4 PHE5        0.0000 
     50 CZ          6.9900   28.3500  -38.8200 C.ar      4 PHE5        0.0000 
     51 CZ          5.8400   29.3000  -38.7500 C.ar      4 PHE5        0.0000 
     52 CZ          8.1700   29.8400  -39.7700 C.ar      4 PHE5        0.0000 
     53 CA          2.3900   25.3700  -42.0600 C.3       5 GLY6        0.0000 
     54 CA          6.5500   25.6300  -41.2600 C.3       5 GLY6        0.0000 
     55 CA          8.3800   25.3500  -39.4300 C.3       5 GLY6        0.0000 
     56 CA          8.6300   25.7600  -40.8500 C.3       5 GLY6        0.0000 
     57 CA          7.4800   26.7100  -40.7800 C.3       5 GLY6        0.0000 
     58 CA          9.5500   26.8400  -40.3800 C.3       5 GLY6        0.0000 
     59 CA         11.8800   27.3800  -41.4000 C.3       5 GLY6        0.0000 
     60 CA         10.7300   28.3400  -41.3300 C.3       5 GLY6        0.0000 
     61 CA         11.6500   29.4200  -40.8600 C.3       5 GLY6        0.0000 
     62 CA         10.4900   30.3700  -40.7900 C.3       5 GLY6        0.0000 
     63 CA         12.5700   30.5000  -40.3900 C.3       5 GLY6        0.0000 
     64 CA         11.4200   31.4600  -40.3200 C.3       5 GLY6        0.0000 
     65 DU          7.2300   26.3100  -39.3600 H         6 CUB7        0.0000 
     66 DU          7.9000   26.9900  -37.4700 H         6 CUB7        0.0000 
     67 DU          8.1500   27.3900  -38.8900 H         6 CUB7        0.0000 
     68 DU          9.9800   27.1200  -37.0700 H         6 CUB7        0.0000 
     69 DU         10.4800   27.9300  -39.9100 H         6 CUB7        0.0000 
     70 DU         10.9000   28.2000  -36.5900 H         6 CUB7        0.0000 
     71 DU         11.1500   28.6100  -38.0200 H         6 CUB7        0.0000 
@<TRIPOS>BOND
@<TRIPOS>SUBSTRUCTURE
     1 SER1        1 GROUP   
     2 ALA2       20 GROUP   
     3 LYS4       34 GROUP   
     4 PHE5       39 GROUP   
     5 GLY6       53 GROUP   
     6 CUB7       65 GROUP   
@<TRIPOS>SET

