#    Name: 6t9o_3_CLR_CAVITY_N1_6
#    Modification time : Fri May 22 19:29:32 2020

@<TRIPOS>MOLECULE
6t9o_3_CLR_CAVITY_N1_6
   16     0     3     0     0
SMALL
NO_CHARGES


@<TRIPOS>ATOM
      1 O          94.9100   62.0100   97.8300 O.2       1 ALA2        0.0000 
      2 O          95.7000   60.2900   98.8000 O.2       1 ALA2        0.0000 
      3 O          94.5500   61.2200   99.0500 O.2       1 ALA2        0.0000 
      4 O          96.5800   61.1700   99.6400 O.2       1 ALA2        0.0000 
      5 O          94.2700   63.0200  100.1300 O.2       1 ALA2        0.0000 
      6 O          96.2100   60.3800  100.8600 O.2       1 ALA2        0.0000 
      7 O          95.0600   61.3000  101.1000 O.2       1 ALA2        0.0000 
      8 N          95.1500   63.9000  100.9700 N.am      1 ALA2        0.0000 
      9 N          94.7800   63.1000  102.1900 N.am      1 ALA2        0.0000 
     10 CA         95.7900   62.8900   98.6600 C.3       2 GLY6        0.0000 
     11 CA         95.4300   62.1000   99.8800 C.3       2 GLY6        0.0000 
     12 CA         93.9000   62.2300  101.3500 C.3       2 GLY6        0.0000 
     13 CA         97.4600   62.0500  100.4700 C.3       2 GLY6        0.0000 
     14 CA         96.3100   62.9700  100.7200 C.3       2 GLY6        0.0000 
     15 DU         97.0900   61.2600  101.6900 H         3 CUB7        0.0000 
     16 DU         95.9400   62.1800  101.9400 H         3 CUB7        0.0000 
@<TRIPOS>BOND
@<TRIPOS>SUBSTRUCTURE
     1 ALA2        1 GROUP   
     2 GLY6       10 GROUP   
     3 CUB7       15 GROUP   
@<TRIPOS>SET

