#    Name: 6t9o_3_CLR
#    Modification time : Fri May 22 19:29:31 2020

@<TRIPOS>MOLECULE
6t9o_3_CLR
   24    27     1     0     0
SMALL
NO_CHARGES


@<TRIPOS>ATOM
      1 C1         93.7700   59.4700   93.7060 C.3       1 CLR805      0.0000 
      2 C2         93.5190   59.3570   95.1850 C.3       1 CLR805      0.0000 
      3 C3         94.6510   60.0430   95.9020 C.3       1 CLR805      0.0000 
      4 C4         94.5320   61.5180   95.5990 C.3       1 CLR805      0.0000 
      5 C5         94.5760   61.7510   94.1290 C.2       1 CLR805      0.0000 
      6 C6         95.2260   62.8140   93.6990 C.2       1 CLR805      0.0000 
      7 C7         95.5540   63.0070   92.2790 C.3       1 CLR805      0.0000 
      8 C8         94.4630   62.4270   91.4010 C.3       1 CLR805      0.0000 
      9 C9         94.1640   60.9850   91.7970 C.3       1 CLR805      0.0000 
     10 C10        93.6920   60.9150   93.2560 C.3       1 CLR805      0.0000 
     11 C11        93.1410   60.3720   90.8590 C.3       1 CLR805      0.0000 
     12 C12        93.6270   60.4000   89.4230 C.3       1 CLR805      0.0000 
     13 C13        93.9770   61.8270   88.9720 C.3       1 CLR805      0.0000 
     14 C14        94.9930   62.4090   89.9840 C.3       1 CLR805      0.0000 
     15 C15        95.3600   63.7350   89.3630 C.3       1 CLR805      0.0000 
     16 C16        95.5250   63.3510   87.8960 C.3       1 CLR805      0.0000 
     17 C17        94.8130   61.9740   87.6790 C.3       1 CLR805      0.0000 
     18 C18        92.7360   62.7220   88.8840 C.3       1 CLR805      0.0000 
     19 C19        92.2780   61.4250   93.3980 C.3       1 CLR805      0.0000 
     20 C20        94.0270   61.9190   86.3250 C.3       1 CLR805      0.0000 
     21 C21        93.8330   60.4940   85.8200 C.3       1 CLR805      0.0000 
     22 C22        94.7500   62.6980   85.2260 C.3       1 CLR805      0.0000 
     23 C23        93.7800   63.6610   84.5780 Du        1 CLR805      0.0000 
     24 O1         94.4540   59.8240   97.2580 O.3       1 CLR805      0.0000 
@<TRIPOS>BOND
     1    1    2 1    
     2    1   10 1    
     3    2    3 1    
     4    3    4 1    
     5    3   24 1    
     6    4    5 1    
     7    5    6 2    
     8    5   10 1    
     9    6    7 1    
    10    7    8 1    
    11    8    9 1    
    12    8   14 1    
    13    9   10 1    
    14    9   11 1    
    15   10   19 1    
    16   11   12 1    
    17   12   13 1    
    18   13   14 1    
    19   13   17 1    
    20   13   18 1    
    21   14   15 1    
    22   15   16 1    
    23   16   17 1    
    24   17   20 1    
    25   20   21 1    
    26   20   22 1    
    27   22   23 du   
@<TRIPOS>SUBSTRUCTURE
     1 CLR805      1 GROUP   
@<TRIPOS>SET

