#    Name: 6t9o_3_CLR_CAVITY_N1_4
#    Modification time : Fri May 22 19:29:32 2020

@<TRIPOS>MOLECULE
6t9o_3_CLR_CAVITY_N1_4
    6     0     2     0     0
SMALL
NO_CHARGES


@<TRIPOS>ATOM
      1 O          94.9100   62.0100   97.8300 O.2       1 ALA2        0.0000 
      2 O          95.7000   60.2900   98.8000 O.2       1 ALA2        0.0000 
      3 O          94.5500   61.2200   99.0500 O.2       1 ALA2        0.0000 
      4 O          96.5800   61.1700   99.6400 O.2       1 ALA2        0.0000 
      5 CA         95.7900   62.8900   98.6600 C.3       2 GLY6        0.0000 
      6 CA         95.4300   62.1000   99.8800 C.3       2 GLY6        0.0000 
@<TRIPOS>BOND
@<TRIPOS>SUBSTRUCTURE
     1 ALA2        1 GROUP   
     2 GLY6        5 GROUP   
@<TRIPOS>SET

