#    Name: 6t9o_3_CLR_CAVITY_N1_8
#    Modification time : Fri May 22 19:29:32 2020

@<TRIPOS>MOLECULE
6t9o_3_CLR_CAVITY_N1_8
   32     0     4     0     0
SMALL
NO_CHARGES


@<TRIPOS>ATOM
      1 O          94.9100   62.0100   97.8300 O.2       1 ALA2        0.0000 
      2 O          95.7000   60.2900   98.8000 O.2       1 ALA2        0.0000 
      3 O          94.5500   61.2200   99.0500 O.2       1 ALA2        0.0000 
      4 O          96.5800   61.1700   99.6400 O.2       1 ALA2        0.0000 
      5 O          94.2700   63.0200  100.1300 O.2       1 ALA2        0.0000 
      6 O          96.2100   60.3800  100.8600 O.2       1 ALA2        0.0000 
      7 O          95.0600   61.3000  101.1000 O.2       1 ALA2        0.0000 
      8 N          95.1500   63.9000  100.9700 N.am      1 ALA2        0.0000 
      9 N          94.7800   63.1000  102.1900 N.am      1 ALA2        0.0000 
     10 N          95.6600   63.9800  103.0300 N.am      1 ALA2        0.0000 
     11 N          94.5000   64.9100  103.2700 N.am      1 ALA2        0.0000 
     12 CZ         96.7200   60.4700  102.9100 C.ar      2 PHE5        0.0000 
     13 CZ         95.2000   60.6000  104.3800 C.ar      2 PHE5        0.0000 
     14 CZ         98.3400   62.9300  101.3100 C.ar      2 PHE5        0.0000 
     15 CZ         97.1900   63.8500  101.5600 C.ar      2 PHE5        0.0000 
     16 CZ         97.9700   62.1400  102.5300 C.ar      2 PHE5        0.0000 
     17 CZ         96.8200   63.0600  102.7800 C.ar      2 PHE5        0.0000 
     18 CZ         97.6000   61.3500  103.7500 C.ar      2 PHE5        0.0000 
     19 CA         88.3000   62.4400  101.6400 C.3       3 GLY6        0.0000 
     20 CA         95.7900   62.8900   98.6600 C.3       3 GLY6        0.0000 
     21 CA         95.4300   62.1000   99.8800 C.3       3 GLY6        0.0000 
     22 CA         93.9000   62.2300  101.3500 C.3       3 GLY6        0.0000 
     23 CA         97.4600   62.0500  100.4700 C.3       3 GLY6        0.0000 
     24 CA         96.3100   62.9700  100.7200 C.3       3 GLY6        0.0000 
     25 CA         94.4100   62.3100  103.4100 C.3       3 GLY6        0.0000 
     26 CA         93.2500   63.2300  103.6600 C.3       3 GLY6        0.0000 
     27 CA         94.0400   61.5200  104.6300 C.3       3 GLY6        0.0000 
     28 DU         97.0900   61.2600  101.6900 H         4 CUB7        0.0000 
     29 DU         95.9400   62.1800  101.9400 H         4 CUB7        0.0000 
     30 DU         95.5700   61.3900  103.1600 H         4 CUB7        0.0000 
     31 DU         96.4500   62.2700  104.0000 H         4 CUB7        0.0000 
     32 DU         95.2900   63.1900  104.2500 H         4 CUB7        0.0000 
@<TRIPOS>BOND
@<TRIPOS>SUBSTRUCTURE
     1 ALA2        1 GROUP   
     2 PHE5       12 GROUP   
     3 GLY6       19 GROUP   
     4 CUB7       28 GROUP   
@<TRIPOS>SET

