#    Name: 6t9o_3_CLR_CAVITY_N1_12
#    Modification time : Fri May 22 19:29:32 2020

@<TRIPOS>MOLECULE
6t9o_3_CLR_CAVITY_N1_12
   75     0     5     0     0
SMALL
NO_CHARGES


@<TRIPOS>ATOM
      1 OG         86.5000   64.3700  104.1900 O.3       1 SER1        0.0000 
      2 O          86.7700   62.5700  103.1100 O.2       2 ALA2        0.0000 
      3 O          94.9100   62.0100   97.8300 O.2       2 ALA2        0.0000 
      4 O          95.7000   60.2900   98.8000 O.2       2 ALA2        0.0000 
      5 O          94.5500   61.2200   99.0500 O.2       2 ALA2        0.0000 
      6 N          88.3900   65.0300  101.5100 N.am      2 ALA2        0.0000 
      7 N          88.0200   64.2400  102.7300 N.am      2 ALA2        0.0000 
      8 N          86.8600   65.1600  102.9700 N.am      2 ALA2        0.0000 
      9 O          87.6500   63.4500  103.9500 O.2       2 ALA2        0.0000 
     10 O          96.5800   61.1700   99.6400 O.2       2 ALA2        0.0000 
     11 O          94.2700   63.0200  100.1300 O.2       2 ALA2        0.0000 
     12 O          96.2100   60.3800  100.8600 O.2       2 ALA2        0.0000 
     13 O          95.0600   61.3000  101.1000 O.2       2 ALA2        0.0000 
     14 O          89.2700   65.9100  102.3400 O.2       2 ALA2        0.0000 
     15 N          88.9000   65.1200  103.5600 N.am      2 ALA2        0.0000 
     16 N          87.7400   66.0400  103.8100 N.am      2 ALA2        0.0000 
     17 O          89.6900   63.4100  104.5300 O.2       2 ALA2        0.0000 
     18 O          88.5300   64.3300  104.7800 O.2       2 ALA2        0.0000 
     19 N          95.1500   63.9000  100.9700 N.am      2 ALA2        0.0000 
     20 N          94.7800   63.1000  102.1900 N.am      2 ALA2        0.0000 
     21 N          90.9400   65.0800  104.1500 N.am      2 ALA2        0.0000 
     22 O          90.5700   64.2900  105.3700 O.2       2 ALA2        0.0000 
     23 O          89.4100   65.2100  105.6200 O.2       2 ALA2        0.0000 
     24 N          95.6600   63.9800  103.0300 N.am      2 ALA2        0.0000 
     25 N          94.5000   64.9100  103.2700 N.am      2 ALA2        0.0000 
     26 N          93.3500   65.8300  103.5200 N.am      2 ALA2        0.0000 
     27 N          92.9800   65.0400  104.7400 N.am      2 ALA2        0.0000 
     28 O          94.9200   62.4000  105.4700 O.2       2 ALA2        0.0000 
     29 O          93.7600   63.3200  105.7100 O.2       2 ALA2        0.0000 
     30 O          92.6100   64.2400  105.9600 O.2       2 ALA2        0.0000 
     31 N          91.4500   65.1700  106.2100 N.am      2 ALA2        0.0000 
     32 O          95.3800   65.7900  104.1100 O.2       2 ALA2        0.0000 
     33 N          93.8600   65.9200  105.5800 N.am      2 ALA2        0.0000 
     34 O          95.8000   63.2800  106.3000 O.2       2 ALA2        0.0000 
     35 O          94.6400   64.2000  106.5500 O.2       2 ALA2        0.0000 
     36 O          93.4900   65.1200  106.8000 O.2       2 ALA2        0.0000 
     37 CZ         96.7200   60.4700  102.9100 C.ar      3 PHE5        0.0000 
     38 CZ         95.2000   60.6000  104.3800 C.ar      3 PHE5        0.0000 
     39 CZ         98.3400   62.9300  101.3100 C.ar      3 PHE5        0.0000 
     40 CZ         97.1900   63.8500  101.5600 C.ar      3 PHE5        0.0000 
     41 CZ         97.9700   62.1400  102.5300 C.ar      3 PHE5        0.0000 
     42 CZ         96.8200   63.0600  102.7800 C.ar      3 PHE5        0.0000 
     43 CZ         97.6000   61.3500  103.7500 C.ar      3 PHE5        0.0000 
     44 CZ         98.3900   59.6400  104.7200 C.ar      3 PHE5        0.0000 
     45 CZ         97.2400   60.5600  104.9700 C.ar      3 PHE5        0.0000 
     46 CZ         96.5400   64.8600  103.8600 C.ar      3 PHE5        0.0000 
     47 CZ         98.4800   62.2300  104.5900 C.ar      3 PHE5        0.0000 
     48 CZ         97.3300   63.1500  104.8400 C.ar      3 PHE5        0.0000 
     49 CA         88.3000   62.4400  101.6400 C.3       4 GLY6        0.0000 
     50 CA         87.1400   63.3600  101.8900 C.3       4 GLY6        0.0000 
     51 CA         89.1800   63.3200  102.4800 C.3       4 GLY6        0.0000 
     52 CA         88.8100   62.5300  103.7000 C.3       4 GLY6        0.0000 
     53 CA         95.7900   62.8900   98.6600 C.3       4 GLY6        0.0000 
     54 CA         95.4300   62.1000   99.8800 C.3       4 GLY6        0.0000 
     55 CA         93.9000   62.2300  101.3500 C.3       4 GLY6        0.0000 
     56 CA         90.0600   64.2000  103.3200 C.3       4 GLY6        0.0000 
     57 CA         87.3800   65.2500  105.0300 C.3       4 GLY6        0.0000 
     58 CA         97.4600   62.0500  100.4700 C.3       4 GLY6        0.0000 
     59 CA         96.3100   62.9700  100.7200 C.3       4 GLY6        0.0000 
     60 CA         94.4100   62.3100  103.4100 C.3       4 GLY6        0.0000 
     61 CA         93.2500   63.2300  103.6600 C.3       4 GLY6        0.0000 
     62 CA         92.1000   64.1600  103.9000 C.3       4 GLY6        0.0000 
     63 CA         94.0400   61.5200  104.6300 C.3       4 GLY6        0.0000 
     64 CA         91.7300   63.3600  105.1200 C.3       4 GLY6        0.0000 
     65 CA         98.1200   61.4400  105.8100 C.3       4 GLY6        0.0000 
     66 DU         97.0900   61.2600  101.6900 H         5 CUB7        0.0000 
     67 DU         95.9400   62.1800  101.9400 H         5 CUB7        0.0000 
     68 DU         95.5700   61.3900  103.1600 H         5 CUB7        0.0000 
     69 DU         96.4500   62.2700  104.0000 H         5 CUB7        0.0000 
     70 DU         95.2900   63.1900  104.2500 H         5 CUB7        0.0000 
     71 DU         94.1300   64.1100  104.4900 H         5 CUB7        0.0000 
     72 DU         96.0800   61.4800  105.2200 H         5 CUB7        0.0000 
     73 DU         96.1700   64.0700  105.0800 H         5 CUB7        0.0000 
     74 DU         95.0100   64.9900  105.3300 H         5 CUB7        0.0000 
     75 DU         96.9600   62.3600  106.0500 H         5 CUB7        0.0000 
@<TRIPOS>BOND
@<TRIPOS>SUBSTRUCTURE
     1 SER1        1 GROUP   
     2 ALA2        2 GROUP   
     3 PHE5       37 GROUP   
     4 GLY6       49 GROUP   
     5 CUB7       66 GROUP   
@<TRIPOS>SET

