#    Name: 6cu5_2_SAH
#    Modification time : Fri May 22 19:28:51 2020

@<TRIPOS>MOLECULE
6cu5_2_SAH
   26    28     1     0     0
SMALL
NO_CHARGES


@<TRIPOS>ATOM
      1 N           0.2990   -0.8070    1.4730 N.4       1 SAH401      0.0000 
      2 CA          0.2620   -1.8160    2.5360 C.3       1 SAH401      0.0000 
      3 CB          1.3200   -1.5680    3.6120 C.3       1 SAH401      0.0000 
      4 CG          1.3930   -0.1790    4.2550 C.3       1 SAH401      0.0000 
      5 SD          2.6320   -0.0890    5.5820 S.3       1 SAH401      0.0000 
      6 C          -1.1140   -1.9080    3.1870 C.2       1 SAH401      0.0000 
      7 O          -1.9610   -1.0310    3.0200 O.co2     1 SAH401      0.0000 
      8 OXT        -1.4090   -2.8960    3.8610 O.co2     1 SAH401      0.0000 
      9 C5'         3.9230    0.7960    4.6760 C.3       1 SAH401      0.0000 
     10 C4'         5.0190   -0.1350    4.1720 C.3       1 SAH401      0.0000 
     11 O4'         5.9240    0.5990    3.3770 O.3       1 SAH401      0.0000 
     12 C3'         5.8700   -0.8070    5.2470 C.3       1 SAH401      0.0000 
     13 O3'         5.6730   -2.1970    5.1630 O.3       1 SAH401      0.0000 
     14 C2'         7.3040   -0.4770    4.8740 C.3       1 SAH401      0.0000 
     15 O2'         8.0900   -1.6390    4.8820 O.3       1 SAH401      0.0000 
     16 C1'         7.2020    0.0200    3.4470 C.3       1 SAH401      0.0000 
     17 N9          8.1390    1.1040    3.1340 N.pl3     1 SAH401      0.0000 
     18 C8          8.2380    2.2830    3.8360 C.2       1 SAH401      0.0000 
     19 N7          9.1850    3.0540    3.2560 N.2       1 SAH401      0.0000 
     20 C5          9.6900    2.3850    2.1910 C.ar      1 SAH401      0.0000 
     21 C6         10.6740    2.7160    1.2600 C.ar      1 SAH401      0.0000 
     22 N6         11.3090    3.8890    1.3310 N.pl3     1 SAH401      0.0000 
     23 N1         10.9790    1.8080    0.2570 N.ar      1 SAH401      0.0000 
     24 C2         10.3240    0.5920    0.1920 C.ar      1 SAH401      0.0000 
     25 N3          9.3550    0.2730    1.1210 N.ar      1 SAH401      0.0000 
     26 C4          9.0380    1.1530    2.1010 C.ar      1 SAH401      0.0000 
@<TRIPOS>BOND
     1    1    2 1    
     2    2    3 1    
     3    2    6 1    
     4    3    4 1    
     5    4    5 1    
     6    5    9 1    
     7    6    7 ar   
     8    6    8 ar   
     9    9   10 1    
    10   10   11 1    
    11   10   12 1    
    12   11   16 1    
    13   12   13 1    
    14   12   14 1    
    15   14   15 1    
    16   14   16 1    
    17   16   17 1    
    18   17   18 1    
    19   17   26 1    
    20   18   19 2    
    21   19   20 1    
    22   20   21 ar   
    23   20   26 ar   
    24   21   22 1    
    25   21   23 ar   
    26   23   24 ar   
    27   24   25 ar   
    28   25   26 ar   
@<TRIPOS>SUBSTRUCTURE
     1 SAH401      1 GROUP   
@<TRIPOS>SET

