#    Name: 6cu5_2_SAH_CAVITY_N1_4
#    Modification time : Fri May 22 19:28:52 2020

@<TRIPOS>MOLECULE
6cu5_2_SAH_CAVITY_N1_4
   62     0     7     0     0
SMALL
NO_CHARGES


@<TRIPOS>ATOM
      1 OG          0.6800   -3.1600    4.2000 O.3       1 SER1        0.0000 
      2 OG          1.1200   -2.3100    5.3600 O.3       1 SER1        0.0000 
      3 OG          1.5700   -1.4600    6.5100 O.3       1 SER1        0.0000 
      4 N          -0.6000   -2.2900    2.1100 N.am      2 ALA2        0.0000 
      5 N           1.1800   -2.1200    3.2400 N.am      2 ALA2        0.0000 
      6 N          -0.1600   -1.4500    3.2700 N.am      2 ALA2        0.0000 
      7 N           3.4700   -0.9000    3.4200 N.am      2 ALA2        0.0000 
      8 N           2.1300   -0.2300    3.4400 N.am      2 ALA2        0.0000 
      9 N           1.6300   -1.2700    4.4000 N.am      2 ALA2        0.0000 
     10 N           3.0800    1.6600    3.6400 N.am      2 ALA2        0.0000 
     11 N           3.9100   -0.0500    4.5800 N.am      2 ALA2        0.0000 
     12 N           2.5700    0.6200    4.6000 N.am      2 ALA2        0.0000 
     13 N           3.5200    2.5100    4.8000 N.am      2 ALA2        0.0000 
     14 N           3.0200    1.4600    5.7600 N.am      2 ALA2        0.0000 
     15 OD1        -1.5000   -0.7800    3.2900 O.co2     3 ASP3        0.0000 
     16 OD1        -2.0000   -1.8200    4.2500 O.co2     3 ASP3        0.0000 
     17 OD1        -2.5100   -2.8600    5.2000 O.co2     3 ASP3        0.0000 
     18 NZ          6.6000   -1.3900    4.5300 N.4       4 LYS4        0.0000 
     19 NZ          5.2600   -0.7200    4.5500 N.4       4 LYS4        0.0000 
     20 NZ          7.0400   -0.5500    5.6900 N.4       4 LYS4        0.0000 
     21 CZ          2.9700   -1.9400    4.3800 C.ar      5 PHE5        0.0000 
     22 CZ          4.7500   -1.7600    5.5100 C.ar      5 PHE5        0.0000 
     23 CZ          3.4100   -1.0900    5.5300 C.ar      5 PHE5        0.0000 
     24 CZ          6.5400   -1.5900    6.6400 C.ar      5 PHE5        0.0000 
     25 CZ          5.2000   -0.9200    6.6700 C.ar      5 PHE5        0.0000 
     26 CZ          3.8500   -0.2500    6.6900 C.ar      5 PHE5        0.0000 
     27 CZ          3.3500   -1.2900    7.6400 C.ar      5 PHE5        0.0000 
     28 CA         -1.1100   -3.3400    3.0700 C.3       6 GLY6        0.0000 
     29 CA         -2.4500   -2.6700    3.0900 C.3       6 GLY6        0.0000 
     30 CA         -1.6100   -4.3800    4.0200 C.3       6 GLY6        0.0000 
     31 CA         -1.1700   -3.5300    5.1800 C.3       6 GLY6        0.0000 
     32 CA          0.7900    0.4400    3.4700 C.3       6 GLY6        0.0000 
     33 CA          0.2800   -0.6000    4.4200 C.3       6 GLY6        0.0000 
     34 CA         -0.2200   -1.6400    5.3800 C.3       6 GLY6        0.0000 
     35 CA         -1.5600   -0.9700    5.4000 C.3       6 GLY6        0.0000 
     36 CA          5.7600    0.3200    3.6000 C.3       6 GLY6        0.0000 
     37 CA          4.4200    0.9900    3.6200 C.3       6 GLY6        0.0000 
     38 CA          1.2300    1.2900    4.6200 C.3       6 GLY6        0.0000 
     39 CA          2.0700   -0.4200    5.5600 C.3       6 GLY6        0.0000 
     40 CA          0.7300    0.2500    5.5800 C.3       6 GLY6        0.0000 
     41 CA          6.2000    1.1700    4.7500 C.3       6 GLY6        0.0000 
     42 CA          4.8600    1.8400    4.7800 C.3       6 GLY6        0.0000 
     43 CA          1.6700    2.1300    5.7800 C.3       6 GLY6        0.0000 
     44 CA          2.5100    0.4200    6.7100 C.3       6 GLY6        0.0000 
     45 CA          2.0100   -0.6200    7.6700 C.3       6 GLY6        0.0000 
     46 CA          6.6500    2.0100    5.9100 C.3       6 GLY6        0.0000 
     47 CA          5.3000    2.6800    5.9300 C.3       6 GLY6        0.0000 
     48 CA          3.9600    3.3500    5.9600 C.3       6 GLY6        0.0000 
     49 CA          1.6100    1.9400    7.8900 C.3       6 GLY6        0.0000 
     50 CA          3.7900   -0.4400    8.8000 C.3       6 GLY6        0.0000 
     51 CA          2.4500    0.2300    8.8200 C.3       6 GLY6        0.0000 
     52 CA          1.1100    0.9000    8.8500 C.3       6 GLY6        0.0000 
     53 DU         -0.6600   -2.4900    4.2200 H         7 CUB7        0.0000 
     54 DU          5.7000    0.1200    5.7100 H         7 CUB7        0.0000 
     55 DU          4.3600    0.7900    5.7300 H         7 CUB7        0.0000 
     56 DU          6.1400    0.9700    6.8700 H         7 CUB7        0.0000 
     57 DU          4.8000    1.6400    6.8900 H         7 CUB7        0.0000 
     58 DU          3.4600    2.3100    6.9100 H         7 CUB7        0.0000 
     59 DU          5.6400   -0.0700    7.8200 H         7 CUB7        0.0000 
     60 DU          4.3000    0.6000    7.8400 H         7 CUB7        0.0000 
     61 DU          2.9600    1.2700    7.8700 H         7 CUB7        0.0000 
     62 DU          5.2400    2.4900    8.0400 H         7 CUB7        0.0000 
@<TRIPOS>BOND
@<TRIPOS>SUBSTRUCTURE
     1 SER1        1 GROUP   
     2 ALA2        4 GROUP   
     3 ASP3       15 GROUP   
     4 LYS4       18 GROUP   
     5 PHE5       21 GROUP   
     6 GLY6       28 GROUP   
     7 CUB7       53 GROUP   
@<TRIPOS>SET

