#    Name: 6cu5_1_SAH
#    Modification time : Fri May 22 19:28:46 2020

@<TRIPOS>MOLECULE
6cu5_1_SAH
   26    28     1     0     0
SMALL
NO_CHARGES


@<TRIPOS>ATOM
      1 N          13.9440    2.8670   38.1290 N.4       1 SAH401      0.0000 
      2 CA         13.1160    3.8130   37.3920 C.3       1 SAH401      0.0000 
      3 CB         13.2650    3.5960   35.9030 C.3       1 SAH401      0.0000 
      4 CG         12.9690    2.1600   35.4800 C.3       1 SAH401      0.0000 
      5 SD         13.0460    1.9370   33.6830 S.3       1 SAH401      0.0000 
      6 C          11.6210    3.7310   37.7370 C.2       1 SAH401      0.0000 
      7 O          10.8650    4.6880   37.4900 O.co2     1 SAH401      0.0000 
      8 OXT        11.1290    2.7130   38.2440 O.co2     1 SAH401      0.0000 
      9 C5'        14.6070    1.0460   33.5520 C.3       1 SAH401      0.0000 
     10 C4'        15.7640    1.9430   33.2110 C.3       1 SAH401      0.0000 
     11 O4'        16.9280    1.1640   33.2090 O.3       1 SAH401      0.0000 
     12 C3'        15.7180    2.6140   31.8500 C.3       1 SAH401      0.0000 
     13 O3'        15.6870    4.0130   32.0550 O.3       1 SAH401      0.0000 
     14 C2'        17.0380    2.2490   31.1880 C.3       1 SAH401      0.0000 
     15 O2'        17.6370    3.4140   30.6580 O.3       1 SAH401      0.0000 
     16 C1'        17.8740    1.7130   32.3380 C.3       1 SAH401      0.0000 
     17 N9         18.7800    0.6320   31.9360 N.pl3     1 SAH401      0.0000 
     18 C8         18.4330   -0.5280   31.2980 C.2       1 SAH401      0.0000 
     19 N7         19.5530   -1.2630   31.1210 N.2       1 SAH401      0.0000 
     20 C5         20.6100   -0.5980   31.6420 C.ar      1 SAH401      0.0000 
     21 C6         21.9720   -0.8920   31.7350 C.ar      1 SAH401      0.0000 
     22 N6         22.4840   -2.0270   31.2570 N.pl3     1 SAH401      0.0000 
     23 N1         22.8050    0.0210   32.3400 N.ar      1 SAH401      0.0000 
     24 C2         22.3050    1.2000   32.8460 C.ar      1 SAH401      0.0000 
     25 N3         20.9620    1.4810   32.7620 N.ar      1 SAH401      0.0000 
     26 C4         20.1290    0.6000   32.1630 C.ar      1 SAH401      0.0000 
@<TRIPOS>BOND
     1    1    2 1    
     2    2    3 1    
     3    2    6 1    
     4    3    4 1    
     5    4    5 1    
     6    5    9 1    
     7    6    7 ar   
     8    6    8 ar   
     9    9   10 1    
    10   10   11 1    
    11   10   12 1    
    12   11   16 1    
    13   12   13 1    
    14   12   14 1    
    15   14   15 1    
    16   14   16 1    
    17   16   17 1    
    18   17   18 1    
    19   17   26 1    
    20   18   19 2    
    21   19   20 1    
    22   20   21 ar   
    23   20   26 ar   
    24   21   22 1    
    25   21   23 ar   
    26   23   24 ar   
    27   24   25 ar   
    28   25   26 ar   
@<TRIPOS>SUBSTRUCTURE
     1 SAH401      1 GROUP   
@<TRIPOS>SET

