#    Name: 6cu5_1_SAH_CAVITY_N1_8
#    Modification time : Fri May 22 19:28:47 2020

@<TRIPOS>MOLECULE
6cu5_1_SAH_CAVITY_N1_8
   70     0     7     0     0
SMALL
NO_CHARGES


@<TRIPOS>ATOM
      1 OG         14.6400    3.7100   30.8000 O.3       1 SER1        0.0000 
      2 OG         14.1300    2.6700   31.7600 O.3       1 SER1        0.0000 
      3 OG         12.7900    3.3400   31.7800 O.3       1 SER1        0.0000 
      4 OG         14.5800    3.5200   32.9100 O.3       1 SER1        0.0000 
      5 OG         11.4400    7.2300   35.2900 O.3       1 SER1        0.0000 
      6 OG         10.9300    6.1900   36.2500 O.3       1 SER1        0.0000 
      7 OG         11.3800    7.0300   37.4000 O.3       1 SER1        0.0000 
      8 N          13.1300    0.5900   33.6700 N.am      2 ALA2        0.0000 
      9 N          15.4100    1.8100   33.8400 N.am      2 ALA2        0.0000 
     10 N          14.0700    2.4800   33.8700 N.am      2 ALA2        0.0000 
     11 N          14.9100    0.7700   34.8000 N.am      2 ALA2        0.0000 
     12 N          13.5700    1.4400   34.8200 N.am      2 ALA2        0.0000 
     13 N          14.5200    3.3300   35.0200 N.am      2 ALA2        0.0000 
     14 N          12.6700    2.9600   36.0000 N.am      2 ALA2        0.0000 
     15 N          13.6200    4.8500   36.2000 N.am      2 ALA2        0.0000 
     16 N          12.2800    5.5200   36.2200 N.am      2 ALA2        0.0000 
     17 N          13.1100    3.8000   37.1600 N.am      2 ALA2        0.0000 
     18 N          12.7200    6.3600   37.3800 N.am      2 ALA2        0.0000 
     19 N          13.5600    4.6500   38.3100 N.am      2 ALA2        0.0000 
     20 OD1        10.8300    2.5900   36.9800 O.co2     3 ASP3        0.0000 
     21 OD1        10.4300    5.1400   37.2000 O.co2     3 ASP3        0.0000 
     22 OD1        11.2700    3.4300   38.1400 O.co2     3 ASP3        0.0000 
     23 NZ         15.9800    3.0400   30.7800 N.4       4 LYS4        0.0000 
     24 NZ         16.4200    3.8900   31.9300 N.4       4 LYS4        0.0000 
     25 NZ         17.2600    2.1800   32.8600 N.4       4 LYS4        0.0000 
     26 NZ         15.9200    2.8500   32.8900 N.4       4 LYS4        0.0000 
     27 CZ         11.4500    4.0100   31.8000 C.ar      5 PHE5        0.0000 
     28 CZ         12.7300    3.1500   33.8900 C.ar      5 PHE5        0.0000 
     29 CZ         11.3900    3.8200   33.9100 C.ar      5 PHE5        0.0000 
     30 CZ         13.1700    4.0000   35.0500 C.ar      5 PHE5        0.0000 
     31 CZ         11.8300    4.6700   35.0700 C.ar      5 PHE5        0.0000 
     32 CZ         12.7800    6.5600   35.2700 C.ar      5 PHE5        0.0000 
     33 CA         11.9000    1.6500   29.4700 C.3       6 GLY6        0.0000 
     34 CA         11.4000    0.6100   30.4200 C.3       6 GLY6        0.0000 
     35 CA         14.9200   -2.4400   31.3100 C.3       6 GLY6        0.0000 
     36 CA         13.5800   -1.7700   31.3300 C.3       6 GLY6        0.0000 
     37 CA         10.9000   -0.4300   31.3800 C.3       6 GLY6        0.0000 
     38 CA         12.8500    3.5400   29.6700 C.3       6 GLY6        0.0000 
     39 CA         12.3500    2.5000   30.6200 C.3       6 GLY6        0.0000 
     40 CA         15.8700   -0.5500   31.5100 C.3       6 GLY6        0.0000 
     41 CA         14.5300    0.1200   31.5300 C.3       6 GLY6        0.0000 
     42 CA         10.5000    2.1300   31.6000 C.3       6 GLY6        0.0000 
     43 CA         14.0200   -0.9200   32.4900 C.3       6 GLY6        0.0000 
     44 CA         11.3400    0.4200   32.5300 C.3       6 GLY6        0.0000 
     45 CA         16.8200    1.3300   31.7100 C.3       6 GLY6        0.0000 
     46 CA         16.3100    0.2900   32.6600 C.3       6 GLY6        0.0000 
     47 CA         14.9700    0.9600   32.6900 C.3       6 GLY6        0.0000 
     48 CA         12.2900    2.3000   32.7300 C.3       6 GLY6        0.0000 
     49 CA         10.9500    2.9700   32.7600 C.3       6 GLY6        0.0000 
     50 CA         14.4700   -0.0800   33.6400 C.3       6 GLY6        0.0000 
     51 CA         11.7800    1.2600   33.6900 C.3       6 GLY6        0.0000 
     52 CA         16.7600    1.1400   33.8200 C.3       6 GLY6        0.0000 
     53 CA         12.2300    2.1100   34.8500 C.3       6 GLY6        0.0000 
     54 CA         15.0200    4.3700   34.0700 C.3       6 GLY6        0.0000 
     55 CA         11.3300    3.6300   36.0300 C.3       6 GLY6        0.0000 
     56 CA         12.1700    1.9200   36.9600 C.3       6 GLY6        0.0000 
     57 CA         11.7700    4.4700   37.1800 C.3       6 GLY6        0.0000 
     58 CA         12.6100    2.7600   38.1100 C.3       6 GLY6        0.0000 
     59 CA         12.2200    5.3200   38.3400 C.3       6 GLY6        0.0000 
     60 DU         13.2500    0.9800   29.4400 H         7 CUB7        0.0000 
     61 DU         14.0800   -0.7300   30.3800 H         7 CUB7        0.0000 
     62 DU         12.2400   -1.1000   31.3600 H         7 CUB7        0.0000 
     63 DU         16.3700    0.4900   30.5500 H         7 CUB7        0.0000 
     64 DU         15.0300    1.1600   30.5800 H         7 CUB7        0.0000 
     65 DU         13.6900    1.8300   30.6000 H         7 CUB7        0.0000 
     66 DU         13.1900    0.7900   31.5600 H         7 CUB7        0.0000 
     67 DU         11.8400    1.4600   31.5800 H         7 CUB7        0.0000 
     68 DU         12.6800   -0.2500   32.5100 H         7 CUB7        0.0000 
     69 DU         15.4700    2.0000   31.7300 H         7 CUB7        0.0000 
     70 DU         13.6300    1.6300   32.7100 H         7 CUB7        0.0000 
@<TRIPOS>BOND
@<TRIPOS>SUBSTRUCTURE
     1 SER1        1 GROUP   
     2 ALA2        8 GROUP   
     3 ASP3       20 GROUP   
     4 LYS4       23 GROUP   
     5 PHE5       27 GROUP   
     6 GLY6       33 GROUP   
     7 CUB7       60 GROUP   
@<TRIPOS>SET

