#    Name: 6cyj_2_SCA
#    Modification time : Fri May 22 19:24:30 2020

@<TRIPOS>MOLECULE
6cyj_2_SCA
   90    92     1     0     1
SMALL
NO_CHARGES


@<TRIPOS>ATOM
      1 C8        -45.5690   20.2950   -3.8320 C.2       1 SCA502      0.0000 
      2 N9        -45.3720   19.5150   -4.9340 N.pl3     1 SCA502      0.0000 
      3 C4        -44.8400   18.4250   -4.7590 C.ar      1 SCA502      0.0000 
      4 C5        -44.6140   18.3950   -3.3470 C.ar      1 SCA502      0.0000 
      5 N7        -45.0960   19.6200   -2.7710 N.2       1 SCA502      0.0000 
      6 N3        -44.4700   17.3720   -5.5180 N.ar      1 SCA502      0.0000 
      7 C2        -43.9110   16.3630   -4.8750 C.ar      1 SCA502      0.0000 
      8 N1        -43.6640   16.2580   -3.5770 N.ar      1 SCA502      0.0000 
      9 C6        -44.0090   17.2720   -2.7990 C.ar      1 SCA502      0.0000 
     10 N6        -43.7790   17.1780   -1.4800 N.pl3     1 SCA502      0.0000 
     11 C1'       -45.7970   20.0550   -6.1790 C.3       1 SCA502      0.0000 
     12 C2'       -47.2790   19.9930   -6.3930 C.3       1 SCA502      0.0000 
     13 O2'       -47.6920   18.7030   -6.9150 O.3       1 SCA502      0.0000 
     14 C3'       -47.4280   21.0910   -7.4540 C.3       1 SCA502      0.0000 
     15 O3'       -47.3580   20.5330   -8.7890 O.3       1 SCA502      0.0000 
     16 C4'       -46.2950   22.0270   -7.2400 C.3       1 SCA502      0.0000 
     17 O4'       -45.4070   21.4090   -6.2720 O.3       1 SCA502      0.0000 
     18 C5'       -46.8220   23.3110   -6.7070 C.3       1 SCA502      0.0000 
     19 O5'       -47.6660   23.0290   -5.6280 O.3       1 SCA502      0.0000 
     20 P1        -47.4770   23.9270   -4.2680 P.3       1 SCA502      0.0000 
     21 O11       -46.1810   23.5570   -3.5910 O.co2     1 SCA502      0.0000 
     22 O12       -48.6200   23.6610   -3.3160 O.co2     1 SCA502      0.0000 
     23 O6        -47.4560   25.5110   -4.7040 O.3       1 SCA502      0.0000 
     24 P2        -47.4850   26.8360   -3.7440 P.3       1 SCA502      0.0000 
     25 O21       -48.9140   27.1800   -3.3960 O.co2     1 SCA502      0.0000 
     26 O22       -46.8070   27.9990   -4.4270 O.co2     1 SCA502      0.0000 
     27 O7        -46.6670   26.3530   -2.4020 O.3       1 SCA502      0.0000 
     28 CPB       -46.4120   27.2180   -1.3380 C.3       1 SCA502      0.0000 
     29 CPA       -45.8970   26.3790   -0.1690 C.3       1 SCA502      0.0000 
     30 CP7       -46.4320   24.9360   -0.2790 C.3       1 SCA502      0.0000 
     31 CP9       -44.3710   26.3790   -0.2050 C.3       1 SCA502      0.0000 
     32 CP8       -46.3770   27.0330    1.1260 C.3       1 SCA502      0.0000 
     33 OP3       -45.6870   24.2240   -1.2370 O.3       1 SCA502      0.0000 
     34 CP6       -46.3750   24.1970    1.0610 C.2       1 SCA502      0.0000 
     35 OP2       -47.1790   24.4680    1.9540 O.2       1 SCA502      0.0000 
     36 NP2       -45.4650   23.2480    1.2620 N.am      1 SCA502      0.0000 
     37 CP5       -45.4060   22.5430    2.5330 C.3       1 SCA502      0.0000 
     38 CP4       -44.7780   23.4250    3.6200 C.3       1 SCA502      0.0000 
     39 CP3       -43.2510   23.3680    3.5270 C.2       1 SCA502      0.0000 
     40 OP1       -42.6930   22.3510    3.2740 O.2       1 SCA502      0.0000 
     41 NP1       -42.5760   24.5000    3.7420 N.am      1 SCA502      0.0000 
     42 CP2       -41.1210   24.5290    3.6670 C.3       1 SCA502      0.0000 
     43 CP1       -40.6830   25.0940    2.3140 C.3       1 SCA502      0.0000 
     44 P3        -48.0530   21.3050   -9.9950 P.3       1 SCA502      0.0000 
     45 O31       -47.5450   22.7260  -10.0570 O.co2     1 SCA502      0.0000 
     46 O32       -47.7310   20.5990  -11.2930 O.co2     1 SCA502      0.0000 
     47 O33       -49.5500   21.3070   -9.7960 O.co2     1 SCA502      0.0000 
     48 S         -38.9660   25.7020    2.3900 S.3       1 SCA502      0.0000 
     49 CS1       -39.1690   27.4560    2.5040 C.2       1 SCA502      0.0000 
     50 OS1       -40.1070   28.0080    2.0270 O.2       1 SCA502      0.0000 
     51 CS2       -38.0830   28.1760    3.2660 C.3       1 SCA502      0.0000 
     52 CS3       -36.9470   28.6450    2.3470 C.3       1 SCA502      0.0000 
     53 CS4       -36.2870   29.9270    2.8790 C.2       1 SCA502      0.0000 
     54 OS4       -35.3650   30.4830    2.2210 O.co2     1 SCA502      0.0000 
     55 OS5       -36.6590   30.4430    3.9680 O.co2     1 SCA502      0.0000 
     56 H8        -45.9480   21.1450   -3.8110 H         1 SCA502      0.0000 
     57 H2        -43.6500   15.6400   -5.4020 H         1 SCA502      0.0000 
     58 HN61      -43.4680   16.4410   -1.1430 H         1 SCA502      0.0000 
     59 HN62      -43.9640   17.8460   -0.9570 H         1 SCA502      0.0000 
     60 H1'       -45.3750   19.5820   -6.8640 H         1 SCA502      0.0000 
     61 H2'       -47.7420   20.2170   -5.6110 H         1 SCA502      0.0000 
     62 HO2'      -48.2750   18.8130   -7.5020 H         1 SCA502      0.0000 
     63 H3'       -48.2490   21.5320   -7.3370 H         1 SCA502      0.0000 
     64 H4'       -45.8420   22.1610   -8.0480 H         1 SCA502      0.0000 
     65 H5'1      -46.1050   23.8460   -6.4160 H         1 SCA502      0.0000 
     66 H5'2      -47.3060   23.7590   -7.3780 H         1 SCA502      0.0000 
     67 HPB1      -45.7610   27.8450   -1.5910 H         1 SCA502      0.0000 
     68 HPB2      -47.2000   27.6630   -1.0940 H         1 SCA502      0.0000 
     69 H7        -47.3260   24.9690   -0.5580 H         1 SCA502      0.0000 
     70 H91       -44.0780   26.0560   -1.0370 H         1 SCA502      0.0000 
     71 H92       -44.0400   25.8280    0.4790 H         1 SCA502      0.0000 
     72 H93       -44.0550   27.2550   -0.0830 H         1 SCA502      0.0000 
     73 H81       -45.8420   26.7460    1.8420 H         1 SCA502      0.0000 
     74 H82       -46.3120   27.9670    1.0450 H         1 SCA502      0.0000 
     75 H83       -47.2700   26.7970    1.2870 H         1 SCA502      0.0000 
     76 HO3       -44.9260   24.0690   -0.9420 H         1 SCA502      0.0000 
     77 HN2       -44.9010   23.0510    0.6350 H         1 SCA502      0.0000 
     78 H51       -46.2770   22.3090    2.7940 H         1 SCA502      0.0000 
     79 H52       -44.8930   21.7640    2.4300 H         1 SCA502      0.0000 
     80 H41       -45.0660   24.3120    3.5070 H         1 SCA502      0.0000 
     81 H42       -45.0470   23.1150    4.4640 H         1 SCA502      0.0000 
     82 HN1       -43.0090   25.2300    3.9250 H         1 SCA502      0.0000 
     83 H21       -40.7880   25.0770    4.3520 H         1 SCA502      0.0000 
     84 H22       -40.7790   23.6600    3.7670 H         1 SCA502      0.0000 
     85 H11       -40.7390   24.4160    1.6650 H         1 SCA502      0.0000 
     86 H12       -41.2530   25.8010    2.0760 H         1 SCA502      0.0000 
     87 HS21      -38.4610   28.9240    3.6910 H         1 SCA502      0.0000 
     88 HS22      -37.7290   27.5990    3.9170 H         1 SCA502      0.0000 
     89 HS31      -36.2970   27.9690    2.2930 H         1 SCA502      0.0000 
     90 HS32      -37.2910   28.8100    1.4890 H         1 SCA502      0.0000 
@<TRIPOS>BOND
     1    1    2 1    
     2    1    5 2    
     3    2    3 1    
     4    1   56 1    
     5    2   11 1    
     6    3    4 ar   
     7    3    6 ar   
     8    4    5 1    
     9    4    9 ar   
    10    6    7 ar   
    11    7    8 ar   
    12    8    9 ar   
    13    7   57 1    
    14    9   10 1    
    15   11   12 1    
    16   10   58 1    
    17   10   59 1    
    18   11   17 1    
    19   12   13 1    
    20   11   60 1    
    21   12   14 1    
    22   14   15 1    
    23   12   61 1    
    24   13   62 1    
    25   14   16 1    
    26   15   44 1    
    27   14   63 1    
    28   16   17 1    
    29   16   18 1    
    30   18   19 1    
    31   16   64 1    
    32   19   20 1    
    33   18   66 1    
    34   18   65 1    
    35   20   21 ar   
    36   20   22 ar   
    37   20   23 1    
    38   23   24 1    
    39   24   25 ar   
    40   24   26 ar   
    41   24   27 1    
    42   27   28 1    
    43   28   29 1    
    44   29   30 1    
    45   28   67 1    
    46   28   68 1    
    47   29   31 1    
    48   29   32 1    
    49   30   33 1    
    50   30   34 1    
    51   34   35 2    
    52   30   69 1    
    53   33   76 1    
    54   31   70 1    
    55   31   71 1    
    56   31   72 1    
    57   32   73 1    
    58   32   74 1    
    59   32   75 1    
    60   34   36 am   
    61   36   37 1    
    62   37   38 1    
    63   36   77 1    
    64   38   39 1    
    65   37   78 1    
    66   37   79 1    
    67   39   40 2    
    68   38   80 1    
    69   38   81 1    
    70   39   41 am   
    71   41   42 1    
    72   42   43 1    
    73   41   82 1    
    74   43   48 1    
    75   42   83 1    
    76   42   84 1    
    77   44   45 ar   
    78   43   85 1    
    79   43   86 1    
    80   44   46 ar   
    81   44   47 ar   
    82   48   49 1    
    83   49   50 2    
    84   49   51 1    
    85   51   52 1    
    86   52   53 1    
    87   51   87 1    
    88   51   88 1    
    89   53   54 ar   
    90   52   89 1    
    91   52   90 1    
    92   53   55 ar   
@<TRIPOS>SUBSTRUCTURE
     1 SCA502      1 GROUP   
@<TRIPOS>SET
ATOM$ORANGE STATIC     ATOMS   COLORGROUP SYSTEM 
50 1 1 3 3 4 4 7 7 9 9 11 11 12 12 14 14 16 \
16 18 18 28 28 29 29 30 30 31 31 32 32 34 34 37 37 38 \
38 39 39 42 42 43 43 49 49 51 51 52 52 53 53 

