#    Name: 6cyj_1_SCA
#    Modification time : Fri May 22 19:24:20 2020

@<TRIPOS>MOLECULE
6cyj_1_SCA
   90    92     1     0     1
SMALL
NO_CHARGES


@<TRIPOS>ATOM
      1 C8        -21.2370   55.8890  -12.7370 C.2       1 SCA502      0.0000 
      2 N9        -21.7790   56.3620  -13.8990 N.pl3     1 SCA502      0.0000 
      3 C4        -22.2880   57.4790  -13.8580 C.ar      1 SCA502      0.0000 
      4 C5        -22.0850   57.8850  -12.4990 C.ar      1 SCA502      0.0000 
      5 N7        -21.3980   56.8350  -11.7940 N.2       1 SCA502      0.0000 
      6 N3        -22.9160   58.3200  -14.7110 N.ar      1 SCA502      0.0000 
      7 C2        -23.3010   59.4830  -14.2150 C.ar      1 SCA502      0.0000 
      8 N1        -23.1550   59.9280  -12.9780 N.ar      1 SCA502      0.0000 
      9 C6        -22.5470   59.1370  -12.1060 C.ar      1 SCA502      0.0000 
     10 N6        -22.3760   59.5810  -10.8510 N.pl3     1 SCA502      0.0000 
     11 C1'       -21.7300   55.4850  -15.0190 C.3       1 SCA502      0.0000 
     12 C2'       -20.4120   55.3560  -15.7240 C.3       1 SCA502      0.0000 
     13 O2'       -20.2620   56.3460  -16.7750 O.3       1 SCA502      0.0000 
     14 C3'       -20.5600   53.9500  -16.3330 C.3       1 SCA502      0.0000 
     15 O3'       -21.0800   54.0370  -17.6890 O.3       1 SCA502      0.0000 
     16 C4'       -21.5200   53.2240  -15.4660 C.3       1 SCA502      0.0000 
     17 O4'       -22.0920   54.2000  -14.5580 O.3       1 SCA502      0.0000 
     18 C5'       -20.8090   52.1980  -14.6670 C.3       1 SCA502      0.0000 
     19 O5'       -19.6830   52.7830  -14.0780 O.3       1 SCA502      0.0000 
     20 P1        -19.2830   52.2890  -12.5620 P.3       1 SCA502      0.0000 
     21 O11       -20.2010   52.9580  -11.5690 O.co2     1 SCA502      0.0000 
     22 O12       -17.8490   52.6530  -12.2510 O.co2     1 SCA502      0.0000 
     23 O6        -19.4910   50.6550  -12.5190 O.3       1 SCA502      0.0000 
     24 P2        -19.1660   49.5480  -11.3530 P.3       1 SCA502      0.0000 
     25 O21       -17.8490   48.8760  -11.6700 O.co2     1 SCA502      0.0000 
     26 O22       -20.2740   48.5210  -11.3070 O.co2     1 SCA502      0.0000 
     27 O7        -19.0410   50.3490   -9.9140 O.3       1 SCA502      0.0000 
     28 CPB       -19.8340   50.0000   -8.8110 C.3       1 SCA502      0.0000 
     29 CPA       -19.8900   51.1420   -7.7830 C.3       1 SCA502      0.0000 
     30 CP7       -19.4480   52.4770   -8.4140 C.3       1 SCA502      0.0000 
     31 CP9       -21.3250   51.2910   -7.2800 C.3       1 SCA502      0.0000 
     32 CP8       -19.0170   50.7800   -6.5800 C.3       1 SCA502      0.0000 
     33 OP3       -20.5020   52.9480   -9.2210 O.3       1 SCA502      0.0000 
     34 CP6       -19.0720   53.5580   -7.3900 C.2       1 SCA502      0.0000 
     35 OP2       -18.0840   53.4050   -6.6680 O.2       1 SCA502      0.0000 
     36 NP2       -19.8050   54.6720   -7.3050 N.am      1 SCA502      0.0000 
     37 CP5       -19.4970   55.7500   -6.3690 C.3       1 SCA502      0.0000 
     38 CP4       -19.7690   55.3920   -4.9050 C.3       1 SCA502      0.0000 
     39 CP3       -21.2710   55.3250   -4.6110 C.2       1 SCA502      0.0000 
     40 OP1       -22.0310   56.1340   -5.0380 O.2       1 SCA502      0.0000 
     41 NP1       -21.6790   54.3170   -3.8380 N.am      1 SCA502      0.0000 
     42 CP2       -23.0790   54.1550   -3.4940 C.3       1 SCA502      0.0000 
     43 CP1       -23.7620   53.2700   -4.5380 C.3       1 SCA502      0.0000 
     44 P3        -20.6030   53.0450  -18.8460 P.3       1 SCA502      0.0000 
     45 O31       -20.6560   51.6080  -18.3740 O.co2     1 SCA502      0.0000 
     46 O32       -21.5180   53.1650  -20.0400 O.co2     1 SCA502      0.0000 
     47 O33       -19.2120   53.4480  -19.2770 O.co2     1 SCA502      0.0000 
     48 S         -25.4800   52.9300   -4.0420 S.3       1 SCA502      0.0000 
     49 CS1       -25.3120   51.4370   -3.1200 C.2       1 SCA502      0.0000 
     50 OS1       -24.3610   50.7360   -3.2210 O.2       1 SCA502      0.0000 
     51 CS2       -26.4690   51.1560   -2.2020 C.3       1 SCA502      0.0000 
     52 CS3       -27.1720   49.8560   -2.6020 C.3       1 SCA502      0.0000 
     53 CS4       -27.8070   49.2050   -1.3700 C.2       1 SCA502      0.0000 
     54 OS4       -28.9850   49.5020   -1.0420 O.co2     1 SCA502      0.0000 
     55 OS5       -27.1610   48.3690   -0.6830 O.co2     1 SCA502      0.0000 
     56 H8        -20.8310   55.0610  -12.6090 H         1 SCA502      0.0000 
     57 H2        -23.7380   60.0550  -14.8070 H         1 SCA502      0.0000 
     58 HN61      -22.6520   60.3720  -10.6250 H         1 SCA502      0.0000 
     59 HN62      -21.9730   59.0830  -10.2640 H         1 SCA502      0.0000 
     60 H1'       -22.3650   55.7690  -15.6400 H         1 SCA502      0.0000 
     61 H2'       -19.7040   55.3840  -15.1160 H         1 SCA502      0.0000 
     62 HO2'      -19.7640   56.0410  -17.3740 H         1 SCA502      0.0000 
     63 H3'       -19.7270   53.5190  -16.3390 H         1 SCA502      0.0000 
     64 H4'       -22.1880   52.8350  -15.9920 H         1 SCA502      0.0000 
     65 H5'1      -21.3810   51.8790  -13.9900 H         1 SCA502      0.0000 
     66 H5'2      -20.5440   51.4910  -15.2260 H         1 SCA502      0.0000 
     67 HPB1      -20.7010   49.8030   -9.1100 H         1 SCA502      0.0000 
     68 HPB2      -19.4670   49.2330   -8.4080 H         1 SCA502      0.0000 
     69 H7        -18.6940   52.3320   -8.9520 H         1 SCA502      0.0000 
     70 H91       -21.9090   51.3670   -8.0120 H         1 SCA502      0.0000 
     71 H92       -21.3930   52.0600   -6.7460 H         1 SCA502      0.0000 
     72 H93       -21.5610   50.5360   -6.7710 H         1 SCA502      0.0000 
     73 H81       -19.2820   51.2910   -5.8360 H         1 SCA502      0.0000 
     74 H82       -19.1150   49.8680   -6.3750 H         1 SCA502      0.0000 
     75 H83       -18.1170   50.9590   -6.7750 H         1 SCA502      0.0000 
     76 HO3       -21.1070   53.2560   -8.7400 H         1 SCA502      0.0000 
     77 HN2       -20.4870   54.7630   -7.8310 H         1 SCA502      0.0000 
     78 H51       -18.5900   55.9720   -6.4600 H         1 SCA502      0.0000 
     79 H52       -20.0180   56.4990   -6.5950 H         1 SCA502      0.0000 
     80 H41       -19.3750   54.5630   -4.7090 H         1 SCA502      0.0000 
     81 H42       -19.3870   56.0520   -4.3580 H         1 SCA502      0.0000 
     82 HN1       -21.0980   53.7440   -3.5400 H         1 SCA502      0.0000 
     83 H21       -23.1440   53.7460   -2.6520 H         1 SCA502      0.0000 
     84 H22       -23.4990   54.9940   -3.4690 H         1 SCA502      0.0000 
     85 H11       -23.7610   53.7120   -5.3680 H         1 SCA502      0.0000 
     86 H12       -23.2920   52.4610   -4.6150 H         1 SCA502      0.0000 
     87 HS21      -26.1550   51.0800   -1.3200 H         1 SCA502      0.0000 
     88 HS22      -27.0820   51.8650   -2.2530 H         1 SCA502      0.0000 
     89 HS31      -27.8430   50.0480   -3.2320 H         1 SCA502      0.0000 
     90 HS32      -26.5480   49.2660   -2.9800 H         1 SCA502      0.0000 
@<TRIPOS>BOND
     1    1    2 1    
     2    1    5 2    
     3    2    3 1    
     4    1   56 1    
     5    2   11 1    
     6    3    4 ar   
     7    3    6 ar   
     8    4    5 1    
     9    4    9 ar   
    10    6    7 ar   
    11    7    8 ar   
    12    8    9 ar   
    13    7   57 1    
    14    9   10 1    
    15   11   12 1    
    16   10   58 1    
    17   10   59 1    
    18   11   17 1    
    19   12   13 1    
    20   11   60 1    
    21   12   14 1    
    22   14   15 1    
    23   12   61 1    
    24   13   62 1    
    25   14   16 1    
    26   15   44 1    
    27   14   63 1    
    28   16   17 1    
    29   16   18 1    
    30   18   19 1    
    31   16   64 1    
    32   19   20 1    
    33   18   66 1    
    34   18   65 1    
    35   20   21 ar   
    36   20   22 ar   
    37   20   23 1    
    38   23   24 1    
    39   24   25 ar   
    40   24   26 ar   
    41   24   27 1    
    42   27   28 1    
    43   28   29 1    
    44   29   30 1    
    45   28   67 1    
    46   28   68 1    
    47   29   31 1    
    48   29   32 1    
    49   30   33 1    
    50   30   34 1    
    51   34   35 2    
    52   30   69 1    
    53   33   76 1    
    54   31   70 1    
    55   31   71 1    
    56   31   72 1    
    57   32   73 1    
    58   32   74 1    
    59   32   75 1    
    60   34   36 am   
    61   36   37 1    
    62   37   38 1    
    63   36   77 1    
    64   38   39 1    
    65   37   78 1    
    66   37   79 1    
    67   39   40 2    
    68   38   80 1    
    69   38   81 1    
    70   39   41 am   
    71   41   42 1    
    72   42   43 1    
    73   41   82 1    
    74   43   48 1    
    75   42   83 1    
    76   42   84 1    
    77   44   45 ar   
    78   43   85 1    
    79   43   86 1    
    80   44   46 ar   
    81   44   47 ar   
    82   48   49 1    
    83   49   50 2    
    84   49   51 1    
    85   51   52 1    
    86   52   53 1    
    87   51   87 1    
    88   51   88 1    
    89   53   54 ar   
    90   52   89 1    
    91   52   90 1    
    92   53   55 ar   
@<TRIPOS>SUBSTRUCTURE
     1 SCA502      1 GROUP   
@<TRIPOS>SET
ATOM$ORANGE STATIC     ATOMS   COLORGROUP SYSTEM 
50 1 1 3 3 4 4 7 7 9 9 11 11 12 12 14 14 16 \
16 18 18 28 28 29 29 30 30 31 31 32 32 34 34 37 37 38 \
38 39 39 42 42 43 43 49 49 51 51 52 52 53 53 

