#    Name: 6ahf_3_AGS_CAVITY_N1_4
#    Modification time : Fri May 22 19:25:57 2020

@<TRIPOS>MOLECULE
6ahf_3_AGS_CAVITY_N1_4
   70     0     6     0     0
SMALL
NO_CHARGES


@<TRIPOS>ATOM
      1 OG        189.1600  145.4600  111.0900 O.3       1 SER1        0.0000 
      2 OG        190.0800  145.0300  109.9800 O.3       1 SER1        0.0000 
      3 OG        189.0100  147.8700  112.0700 O.3       1 SER1        0.0000 
      4 OG        189.3800  146.6400  112.8400 O.3       1 SER1        0.0000 
      5 OG        189.1900  149.8900  109.4000 O.3       1 SER1        0.0000 
      6 OG        189.5600  148.6700  110.1800 O.3       1 SER1        0.0000 
      7 OG        189.9200  147.4400  110.9600 O.3       1 SER1        0.0000 
      8 OG        190.4700  148.2400  109.0700 O.3       1 SER1        0.0000 
      9 OG        190.8400  147.0100  109.8500 O.3       1 SER1        0.0000 
     10 OG        191.2100  145.7800  110.6300 O.3       1 SER1        0.0000 
     11 OG        190.1400  148.6200  112.7100 O.3       1 SER1        0.0000 
     12 OG        190.3200  150.6400  110.0400 O.3       1 SER1        0.0000 
     13 OG        190.6900  149.4100  110.8200 O.3       1 SER1        0.0000 
     14 OG        191.0500  148.1900  111.6000 O.3       1 SER1        0.0000 
     15 OG        191.6000  148.9800  109.7100 O.3       1 SER1        0.0000 
     16 OG        191.6400  148.1300  114.1300 O.3       1 SER1        0.0000 
     17 OG        191.4500  151.3900  110.6900 O.3       1 SER1        0.0000 
     18 OG        191.8200  150.1600  111.4600 O.3       1 SER1        0.0000 
     19 O         189.8600  143.8600  108.2300 O.2       2 ALA2        0.0000 
     20 O         189.3400  147.4900  108.4300 O.2       2 ALA2        0.0000 
     21 O         189.7100  146.2600  109.2000 O.2       2 ALA2        0.0000 
     22 O         190.6200  145.8300  108.1000 O.2       2 ALA2        0.0000 
     23 O         190.9900  144.6100  108.8800 O.2       2 ALA2        0.0000 
     24 O         192.1200  145.3500  109.5200 O.2       2 ALA2        0.0000 
     25 OD1       187.2700  142.7400  110.5800 O.co2     3 ASP3        0.0000 
     26 OD1       188.1800  142.3100  109.4800 O.co2     3 ASP3        0.0000 
     27 OD1       188.5500  141.0900  110.2600 O.co2     3 ASP3        0.0000 
     28 OD1       188.3600  144.3400  106.8100 O.co2     3 ASP3        0.0000 
     29 OD1       188.7300  143.1100  107.5900 O.co2     3 ASP3        0.0000 
     30 OD1       189.6500  142.6800  106.4800 O.co2     3 ASP3        0.0000 
     31 OD1       188.4000  143.4900  111.2300 O.co2     3 ASP3        0.0000 
     32 OD1       188.7700  142.2600  112.0100 O.co2     3 ASP3        0.0000 
     33 OD1       192.1800  148.9300  112.2400 O.co2     3 ASP3        0.0000 
     34 OD1       192.7300  149.7300  110.3600 O.co2     3 ASP3        0.0000 
     35 OD1       193.8600  150.4800  111.0000 O.co2     3 ASP3        0.0000 
     36 NZ        188.3400  139.9100  108.5000 N.4       4 LYS4        0.0000 
     37 NZ        186.5300  145.2000  109.0300 N.4       4 LYS4        0.0000 
     38 NZ        187.4500  144.7700  107.9200 N.4       4 LYS4        0.0000 
     39 NZ        189.1000  141.8800  108.3700 N.4       4 LYS4        0.0000 
     40 NZ        189.4700  140.6600  109.1500 N.4       4 LYS4        0.0000 
     41 NZ        190.0100  141.4500  107.2600 N.4       4 LYS4        0.0000 
     42 NZ        188.2100  146.7400  107.7800 N.4       4 LYS4        0.0000 
     43 NZ        188.5800  145.5200  108.5600 N.4       4 LYS4        0.0000 
     44 NZ        190.2300  142.6300  109.0100 N.4       4 LYS4        0.0000 
     45 NZ        191.1400  142.2000  107.9000 N.4       4 LYS4        0.0000 
     46 NZ        188.0600  149.1500  108.7500 N.4       4 LYS4        0.0000 
     47 NZ        188.4300  147.9200  109.5300 N.4       4 LYS4        0.0000 
     48 NZ        192.9500  150.9100  112.1100 N.4       4 LYS4        0.0000 
     49 NZ        193.4900  151.7100  110.2200 N.4       4 LYS4        0.0000 
     50 CA        189.3100  143.0600  110.1200 C.3       5 GLY6        0.0000 
     51 CA        189.6800  141.8300  110.9000 C.3       5 GLY6        0.0000 
     52 CA        189.4900  145.0900  107.4500 C.3       5 GLY6        0.0000 
     53 CA        190.7800  143.4300  107.1200 C.3       5 GLY6        0.0000 
     54 CA        187.5100  148.3500  110.6400 C.3       5 GLY6        0.0000 
     55 CA        188.2500  145.8900  112.2000 C.3       5 GLY6        0.0000 
     56 CA        188.9700  148.7200  107.6500 C.3       5 GLY6        0.0000 
     57 CA        190.4400  143.8100  110.7600 C.3       5 GLY6        0.0000 
     58 CA        191.3600  143.3800  109.6500 C.3       5 GLY6        0.0000 
     59 CA        191.2700  149.3600  113.3500 C.3       5 GLY6        0.0000 
     60 CA        193.3100  149.6800  112.8900 C.3       5 GLY6        0.0000 
     61 DU        187.0500  141.5700  108.8300 H         6 CUB7        0.0000 
     62 DU        187.6000  142.3600  106.9400 H         6 CUB7        0.0000 
     63 DU        187.9700  141.1400  107.7200 H         6 CUB7        0.0000 
     64 DU        186.9000  143.9700  109.8100 H         6 CUB7        0.0000 
     65 DU        188.0300  144.7200  110.4500 H         6 CUB7        0.0000 
     66 DU        188.9500  144.2900  109.3400 H         6 CUB7        0.0000 
     67 DU        187.8800  147.1200  111.4200 H         6 CUB7        0.0000 
     68 DU        188.7900  146.6900  110.3100 H         6 CUB7        0.0000 
     69 DU        188.6400  149.1000  111.2900 H         6 CUB7        0.0000 
     70 DU        189.7700  149.8400  111.9300 H         6 CUB7        0.0000 
@<TRIPOS>BOND
@<TRIPOS>SUBSTRUCTURE
     1 SER1        1 GROUP   
     2 ALA2       19 GROUP   
     3 ASP3       25 GROUP   
     4 LYS4       36 GROUP   
     5 GLY6       50 GROUP   
     6 CUB7       61 GROUP   
@<TRIPOS>SET

