#    Name: 6ahf_3_AGS
#    Modification time : Fri May 22 19:25:56 2020

@<TRIPOS>MOLECULE
6ahf_3_AGS
   31    34     1     0     0
SMALL
NO_CHARGES


@<TRIPOS>ATOM
      1 PG        190.0730  147.9190  109.0820 Du        1 AGS1002     0.0000 
      2 S1G       188.4540  147.1160  109.7680 Du        1 AGS1002     0.0000 
      3 O2G       190.2860  147.4520  107.6210 Du        1 AGS1002     0.0000 
      4 O3G       189.9730  149.4580  109.1370 Du        1 AGS1002     0.0000 
      5 PB        192.4890  147.2340  109.0080 P.3       1 AGS1002     0.0000 
      6 O1B       191.9770  146.9420  107.6830 O.co2     1 AGS1002     0.0000 
      7 O2B       193.4710  148.3900  109.1580 O.co2     1 AGS1002     0.0000 
      8 O3B       191.2940  147.5110  109.9150 O.3       1 AGS1002     0.0000 
      9 PA        192.7460  145.5190  110.8520 P.3       1 AGS1002     0.0000 
     10 O1A       193.4540  144.3780  111.4120 O.co2     1 AGS1002     0.0000 
     11 O2A       192.7770  146.8150  111.6480 O.co2     1 AGS1002     0.0000 
     12 O3A       193.2280  145.9610  109.4900 O.3       1 AGS1002     0.0000 
     13 O5'       191.2650  145.1180  110.6580 O.3       1 AGS1002     0.0000 
     14 C5'       190.8720  144.0450  109.8320 C.3       1 AGS1002     0.0000 
     15 C4'       190.8590  144.4640  108.3950 C.3       1 AGS1002     0.0000 
     16 O4'       191.7850  143.6470  107.6390 O.3       1 AGS1002     0.0000 
     17 C3'       189.5140  144.3100  107.6930 C.3       1 AGS1002     0.0000 
     18 O3'       189.3770  145.3590  106.7450 O.3       1 AGS1002     0.0000 
     19 C2'       189.6310  142.9270  107.0760 C.3       1 AGS1002     0.0000 
     20 O2'       188.7670  142.6560  105.9850 O.3       1 AGS1002     0.0000 
     21 C1'       191.0860  142.9590  106.6180 C.3       1 AGS1002     0.0000 
     22 N9        191.6650  141.6740  106.3520 N.pl3     1 AGS1002     0.0000 
     23 C8        190.9730  140.5020  106.1210 C.2       1 AGS1002     0.0000 
     24 N7        191.7170  139.4640  105.8780 N.2       1 AGS1002     0.0000 
     25 C5        193.0240  139.9880  105.9180 C.ar      1 AGS1002     0.0000 
     26 C6        194.2650  139.3830  105.7330 C.ar      1 AGS1002     0.0000 
     27 N6        194.4410  138.0940  105.4640 N.pl3     1 AGS1002     0.0000 
     28 N1        195.3510  140.1700  105.8470 N.ar      1 AGS1002     0.0000 
     29 C2        195.1780  141.4580  106.1180 C.ar      1 AGS1002     0.0000 
     30 N3        194.0460  142.1330  106.3040 N.ar      1 AGS1002     0.0000 
     31 C4        192.9710  141.3170  106.1930 C.ar      1 AGS1002     0.0000 
@<TRIPOS>BOND
     1    1    2 du   
     2    1    3 du   
     3    1    4 du   
     4    1    8 du   
     5    3    6 du   
     6    5    6 ar   
     7    5    7 ar   
     8    5    8 1    
     9    5   12 1    
    10    9   10 ar   
    11    9   11 ar   
    12    9   12 1    
    13    9   13 1    
    14   13   14 1    
    15   14   15 1    
    16   15   16 1    
    17   15   17 1    
    18   16   21 1    
    19   17   18 1    
    20   17   19 1    
    21   19   20 1    
    22   19   21 1    
    23   21   22 1    
    24   22   23 1    
    25   22   31 1    
    26   23   24 2    
    27   24   25 1    
    28   25   26 ar   
    29   25   31 ar   
    30   26   27 1    
    31   26   28 ar   
    32   28   29 ar   
    33   29   30 ar   
    34   30   31 ar   
@<TRIPOS>SUBSTRUCTURE
     1 AGS1002     1 GROUP   
@<TRIPOS>SET

