#    Name: 6ahf_5_AGS
#    Modification time : Fri May 22 19:26:47 2020

@<TRIPOS>MOLECULE
6ahf_5_AGS
   31    33     1     0     0
SMALL
NO_CHARGES


@<TRIPOS>ATOM
      1 PG        215.3570  160.3780  130.6610 P.3       1 AGS1002     0.0000 
      2 S1G       215.2430  159.1060  129.1890 S.2       1 AGS1002     0.0000 
      3 O2G       214.8970  159.7250  131.9880 O.3       1 AGS1002     0.0000 
      4 O3G       216.8250  160.8590  130.8490 O.3       1 AGS1002     0.0000 
      5 PB        213.2120  161.8850  131.3290 P.3       1 AGS1002     0.0000 
      6 O1B       212.0450  161.0610  130.7880 O.co2     1 AGS1002     0.0000 
      7 O2B       213.0020  163.3420  131.4290 O.co2     1 AGS1002     0.0000 
      8 O3B       214.4510  161.6090  130.3870 O.3       1 AGS1002     0.0000 
      9 PA        212.8670  162.1110  133.9980 P.3       1 AGS1002     0.0000 
     10 O1A       211.5690  162.7140  133.4690 O.co2     1 AGS1002     0.0000 
     11 O2A       213.7980  163.1140  134.5540 O.co2     1 AGS1002     0.0000 
     12 O3A       213.5080  161.3410  132.7700 O.3       1 AGS1002     0.0000 
     13 O5'       212.6280  161.0780  135.1870 O.3       1 AGS1002     0.0000 
     14 C5'       212.1050  159.7460  135.0560 C.3       1 AGS1002     0.0000 
     15 C4'       213.1970  158.9530  134.4070 C.3       1 AGS1002     0.0000 
     16 O4'       214.1990  158.5590  135.3480 O.3       1 AGS1002     0.0000 
     17 C3'       212.8540  157.6670  133.6650 C.3       1 AGS1002     0.0000 
     18 O3'       212.5200  158.0100  132.3260 O.3       1 AGS1002     0.0000 
     19 C2'       214.1720  156.8740  133.7130 C.3       1 AGS1002     0.0000 
     20 O2'       214.7700  156.8160  132.4230 O.3       1 AGS1002     0.0000 
     21 C1'       215.0640  157.7630  134.5780 C.3       1 AGS1002     0.0000 
     22 N9        216.0370  157.1200  135.4310 N.pl3     1 AGS1002     0.0000 
     23 C8        215.8960  156.6190  136.7080 C.2       1 AGS1002     0.0000 
     24 N7        216.9950  156.1400  137.2100 N.2       1 AGS1002     0.0000 
     25 C5        217.9480  156.3350  136.2100 C.ar      1 AGS1002     0.0000 
     26 C6        219.3060  156.0390  136.1240 C.ar      1 AGS1002     0.0000 
     27 N6        220.0110  155.4670  137.1010 N.pl3     1 AGS1002     0.0000 
     28 N1        219.9490  156.3880  134.9880 N.ar      1 AGS1002     0.0000 
     29 C2        219.2570  156.9730  134.0110 C.ar      1 AGS1002     0.0000 
     30 N3        217.9700  157.3100  133.9840 N.ar      1 AGS1002     0.0000 
     31 C4        217.3490  156.9480  135.1270 C.ar      1 AGS1002     0.0000 
@<TRIPOS>BOND
     1    1    2 2    
     2    1    3 1    
     3    1    4 1    
     4    1    8 1    
     5    5    6 ar   
     6    5    7 ar   
     7    5    8 1    
     8    5   12 1    
     9    9   10 ar   
    10    9   11 ar   
    11    9   12 1    
    12    9   13 1    
    13   13   14 1    
    14   14   15 1    
    15   15   16 1    
    16   15   17 1    
    17   16   21 1    
    18   17   18 1    
    19   17   19 1    
    20   19   20 1    
    21   19   21 1    
    22   21   22 1    
    23   22   23 1    
    24   22   31 1    
    25   23   24 2    
    26   24   25 1    
    27   25   26 ar   
    28   25   31 ar   
    29   26   27 1    
    30   26   28 ar   
    31   28   29 ar   
    32   29   30 ar   
    33   30   31 ar   
@<TRIPOS>SUBSTRUCTURE
     1 AGS1002     1 GROUP   
@<TRIPOS>SET

