#    Name: 6ahf_1_AGS
#    Modification time : Fri May 22 19:24:51 2020

@<TRIPOS>MOLECULE
6ahf_1_AGS
   31    33     1     0     0
SMALL
NO_CHARGES


@<TRIPOS>ATOM
      1 PG        123.1180  137.0080  123.7540 P.3       1 AGS1001     0.0000 
      2 S1G       124.7700  136.8080  122.7800 S.2       1 AGS1001     0.0000 
      3 O2G       123.3510  137.3390  125.2420 O.3       1 AGS1001     0.0000 
      4 O3G       122.1000  137.9570  123.0870 O.3       1 AGS1001     0.0000 
      5 PB        122.4350  135.6890  121.9720 P.3       1 AGS1001     0.0000 
      6 O1B       123.6760  134.9650  121.4630 O.co2     1 AGS1001     0.0000 
      7 O2B       122.4170  137.0570  121.5040 O.co2     1 AGS1001     0.0000 
      8 O3B       122.4570  135.6720  123.5090 O.3       1 AGS1001     0.0000 
      9 PA        120.2760  136.3290  121.3840 P.3       1 AGS1001     0.0000 
     10 O1A       121.0240  137.1420  120.3320 O.co2     1 AGS1001     0.0000 
     11 O2A       120.4240  137.0430  122.6460 O.co2     1 AGS1001     0.0000 
     12 O3A       121.1280  135.0390  121.4860 O.3       1 AGS1001     0.0000 
     13 O5'       118.7550  136.0330  121.0160 O.3       1 AGS1001     0.0000 
     14 C5'       118.3410  135.0930  119.9930 C.3       1 AGS1001     0.0000 
     15 C4'       119.1230  135.4840  118.7790 C.3       1 AGS1001     0.0000 
     16 O4'       118.9860  134.5710  117.6780 O.3       1 AGS1001     0.0000 
     17 C3'       118.8000  136.8390  118.1760 C.3       1 AGS1001     0.0000 
     18 O3'       119.5580  137.8290  118.8570 O.3       1 AGS1001     0.0000 
     19 C2'       119.2860  136.6890  116.7320 C.3       1 AGS1001     0.0000 
     20 O2'       120.4450  137.4830  116.5650 O.3       1 AGS1001     0.0000 
     21 C1'       119.7130  135.2230  116.6660 C.3       1 AGS1001     0.0000 
     22 N9        119.5460  134.6050  115.3530 N.pl3     1 AGS1001     0.0000 
     23 C8        120.4830  134.6300  114.3650 C.2       1 AGS1001     0.0000 
     24 N7        120.1040  134.0440  113.2510 N.2       1 AGS1001     0.0000 
     25 C5        118.8220  133.6370  113.5320 C.ar      1 AGS1001     0.0000 
     26 C6        117.8590  132.9480  112.7590 C.ar      1 AGS1001     0.0000 
     27 N6        118.0640  132.5530  111.5030 N.pl3     1 AGS1001     0.0000 
     28 N1        116.6760  132.6700  113.3360 N.ar      1 AGS1001     0.0000 
     29 C2        116.4630  133.0700  114.5930 C.ar      1 AGS1001     0.0000 
     30 N3        117.2870  133.7200  115.4190 N.ar      1 AGS1001     0.0000 
     31 C4        118.4450  133.9700  114.8240 C.ar      1 AGS1001     0.0000 
@<TRIPOS>BOND
     1    1    2 2    
     2    1    3 1    
     3    1    4 1    
     4    1    8 1    
     5    5    6 ar   
     6    5    7 ar   
     7    5    8 1    
     8    5   12 1    
     9    9   10 ar   
    10    9   11 ar   
    11    9   12 1    
    12    9   13 1    
    13   13   14 1    
    14   14   15 1    
    15   15   16 1    
    16   15   17 1    
    17   16   21 1    
    18   17   18 1    
    19   17   19 1    
    20   19   20 1    
    21   19   21 1    
    22   21   22 1    
    23   22   23 1    
    24   22   31 1    
    25   23   24 2    
    26   24   25 1    
    27   25   26 ar   
    28   25   31 ar   
    29   26   27 1    
    30   26   28 ar   
    31   28   29 ar   
    32   29   30 ar   
    33   30   31 ar   
@<TRIPOS>SUBSTRUCTURE
     1 AGS1001     1 GROUP   
@<TRIPOS>SET

