#    Name: 6ahf_3_AGS_CAVITY_N1_8
#    Modification time : Fri May 22 19:25:57 2020

@<TRIPOS>MOLECULE
6ahf_3_AGS_CAVITY_N1_8
  117     0     6     0     0
SMALL
NO_CHARGES


@<TRIPOS>ATOM
      1 OG        189.1600  145.4600  111.0900 O.3       1 SER1        0.0000 
      2 OG        190.0800  145.0300  109.9800 O.3       1 SER1        0.0000 
      3 OG        189.0100  147.8700  112.0700 O.3       1 SER1        0.0000 
      4 OG        189.3800  146.6400  112.8400 O.3       1 SER1        0.0000 
      5 OG        189.1900  149.8900  109.4000 O.3       1 SER1        0.0000 
      6 OG        189.5600  148.6700  110.1800 O.3       1 SER1        0.0000 
      7 OG        189.9200  147.4400  110.9600 O.3       1 SER1        0.0000 
      8 OG        190.4700  148.2400  109.0700 O.3       1 SER1        0.0000 
      9 OG        190.8400  147.0100  109.8500 O.3       1 SER1        0.0000 
     10 OG        191.2100  145.7800  110.6300 O.3       1 SER1        0.0000 
     11 OG        189.5900  147.8200  114.6000 O.3       1 SER1        0.0000 
     12 OG        190.1400  148.6200  112.7100 O.3       1 SER1        0.0000 
     13 OG        190.3200  150.6400  110.0400 O.3       1 SER1        0.0000 
     14 OG        190.6900  149.4100  110.8200 O.3       1 SER1        0.0000 
     15 OG        191.0500  148.1900  111.6000 O.3       1 SER1        0.0000 
     16 OG        191.6000  148.9800  109.7100 O.3       1 SER1        0.0000 
     17 OG        189.0700  151.4500  114.7900 O.3       1 SER1        0.0000 
     18 OG        189.9900  151.0200  113.6800 O.3       1 SER1        0.0000 
     19 OG        191.6400  148.1300  114.1300 O.3       1 SER1        0.0000 
     20 OG        191.4500  151.3900  110.6900 O.3       1 SER1        0.0000 
     21 OG        191.8200  150.1600  111.4600 O.3       1 SER1        0.0000 
     22 OG        192.0300  151.3400  113.2200 O.3       1 SER1        0.0000 
     23 O         189.8600  143.8600  108.2300 O.2       2 ALA2        0.0000 
     24 O         189.3400  147.4900  108.4300 O.2       2 ALA2        0.0000 
     25 O         189.7100  146.2600  109.2000 O.2       2 ALA2        0.0000 
     26 O         190.6200  145.8300  108.1000 O.2       2 ALA2        0.0000 
     27 O         190.9900  144.6100  108.8800 O.2       2 ALA2        0.0000 
     28 O         192.1200  145.3500  109.5200 O.2       2 ALA2        0.0000 
     29 OD1       186.1400  141.9900  109.9400 O.co2     3 ASP3        0.0000 
     30 OD1       187.2700  142.7400  110.5800 O.co2     3 ASP3        0.0000 
     31 OD1       188.1800  142.3100  109.4800 O.co2     3 ASP3        0.0000 
     32 OD1       188.5500  141.0900  110.2600 O.co2     3 ASP3        0.0000 
     33 OD1       188.3600  144.3400  106.8100 O.co2     3 ASP3        0.0000 
     34 OD1       188.7300  143.1100  107.5900 O.co2     3 ASP3        0.0000 
     35 OD1       189.6500  142.6800  106.4800 O.co2     3 ASP3        0.0000 
     36 OD1       186.2000  145.5800  112.6700 O.co2     3 ASP3        0.0000 
     37 OD1       188.4000  143.4900  111.2300 O.co2     3 ASP3        0.0000 
     38 OD1       188.7700  142.2600  112.0100 O.co2     3 ASP3        0.0000 
     39 OD1       186.0500  147.9800  113.6400 O.co2     3 ASP3        0.0000 
     40 OD1       186.9600  147.5500  112.5300 O.co2     3 ASP3        0.0000 
     41 OD1       187.3300  146.3200  113.3100 O.co2     3 ASP3        0.0000 
     42 OD1       187.1800  148.7300  114.2800 O.co2     3 ASP3        0.0000 
     43 OD1       192.1800  148.9300  112.2400 O.co2     3 ASP3        0.0000 
     44 OD1       192.7300  149.7300  110.3600 O.co2     3 ASP3        0.0000 
     45 OD1       193.8600  150.4800  111.0000 O.co2     3 ASP3        0.0000 
     46 NZ        188.3400  139.9100  108.5000 N.4       4 LYS4        0.0000 
     47 NZ        186.5300  145.2000  109.0300 N.4       4 LYS4        0.0000 
     48 NZ        187.4500  144.7700  107.9200 N.4       4 LYS4        0.0000 
     49 NZ        189.1000  141.8800  108.3700 N.4       4 LYS4        0.0000 
     50 NZ        189.4700  140.6600  109.1500 N.4       4 LYS4        0.0000 
     51 NZ        190.0100  141.4500  107.2600 N.4       4 LYS4        0.0000 
     52 NZ        186.7500  146.3700  110.7800 N.4       4 LYS4        0.0000 
     53 NZ        188.2100  146.7400  107.7800 N.4       4 LYS4        0.0000 
     54 NZ        188.5800  145.5200  108.5600 N.4       4 LYS4        0.0000 
     55 NZ        190.2300  142.6300  109.0100 N.4       4 LYS4        0.0000 
     56 NZ        191.1400  142.2000  107.9000 N.4       4 LYS4        0.0000 
     57 NZ        188.0600  149.1500  108.7500 N.4       4 LYS4        0.0000 
     58 NZ        188.4300  147.9200  109.5300 N.4       4 LYS4        0.0000 
     59 NZ        192.9500  150.9100  112.1100 N.4       4 LYS4        0.0000 
     60 NZ        193.4900  151.7100  110.2200 N.4       4 LYS4        0.0000 
     61 NZ        194.0800  151.6600  112.7500 N.4       4 LYS4        0.0000 
     62 CA        187.4800  143.9200  112.3400 C.3       5 GLY6        0.0000 
     63 CA        189.3100  143.0600  110.1200 C.3       5 GLY6        0.0000 
     64 CA        189.6800  141.8300  110.9000 C.3       5 GLY6        0.0000 
     65 CA        189.4900  145.0900  107.4500 C.3       5 GLY6        0.0000 
     66 CA        190.7800  143.4300  107.1200 C.3       5 GLY6        0.0000 
     67 CA        185.6800  149.2100  112.8600 C.3       5 GLY6        0.0000 
     68 CA        186.6000  148.7800  111.7500 C.3       5 GLY6        0.0000 
     69 CA        187.7000  145.0900  114.0900 C.3       5 GLY6        0.0000 
     70 CA        187.5100  148.3500  110.6400 C.3       5 GLY6        0.0000 
     71 CA        188.2500  145.8900  112.2000 C.3       5 GLY6        0.0000 
     72 CA        188.9700  148.7200  107.6500 C.3       5 GLY6        0.0000 
     73 CA        190.4400  143.8100  110.7600 C.3       5 GLY6        0.0000 
     74 CA        191.3600  143.3800  109.6500 C.3       5 GLY6        0.0000 
     75 CA        186.2600  149.1600  115.3900 C.3       5 GLY6        0.0000 
     76 CA        186.4400  151.1800  112.7200 C.3       5 GLY6        0.0000 
     77 CA        187.5500  147.5000  115.0600 C.3       5 GLY6        0.0000 
     78 CA        187.3600  150.7500  111.6200 C.3       5 GLY6        0.0000 
     79 CA        188.4600  147.0700  113.9500 C.3       5 GLY6        0.0000 
     80 CA        187.0300  151.1300  115.2600 C.3       5 GLY6        0.0000 
     81 CA        187.3900  149.9000  116.0300 C.3       5 GLY6        0.0000 
     82 CA        188.3100  149.4700  114.9300 C.3       5 GLY6        0.0000 
     83 CA        189.4400  150.2200  115.5700 C.3       5 GLY6        0.0000 
     84 CA        190.3500  149.7900  114.4600 C.3       5 GLY6        0.0000 
     85 CA        191.2700  149.3600  113.3500 C.3       5 GLY6        0.0000 
     86 CA        189.8300  153.4200  114.6500 C.3       5 GLY6        0.0000 
     87 CA        190.3800  154.2200  112.7700 C.3       5 GLY6        0.0000 
     88 CA        193.3100  149.6800  112.8900 C.3       5 GLY6        0.0000 
     89 CA        194.4400  150.4300  113.5300 C.3       5 GLY6        0.0000 
     90 CA        194.9900  151.2300  111.6400 C.3       5 GLY6        0.0000 
     91 DU        185.9200  140.8200  108.1900 H         6 CUB7        0.0000 
     92 DU        185.7700  143.2200  109.1600 H         6 CUB7        0.0000 
     93 DU        187.0500  141.5700  108.8300 H         6 CUB7        0.0000 
     94 DU        187.6000  142.3600  106.9400 H         6 CUB7        0.0000 
     95 DU        187.9700  141.1400  107.7200 H         6 CUB7        0.0000 
     96 DU        186.9000  143.9700  109.8100 H         6 CUB7        0.0000 
     97 DU        187.1200  145.1500  111.5600 H         6 CUB7        0.0000 
     98 DU        188.0300  144.7200  110.4500 H         6 CUB7        0.0000 
     99 DU        188.9500  144.2900  109.3400 H         6 CUB7        0.0000 
    100 DU        187.8800  147.1200  111.4200 H         6 CUB7        0.0000 
    101 DU        188.7900  146.6900  110.3100 H         6 CUB7        0.0000 
    102 DU        185.9000  150.3800  114.6100 H         6 CUB7        0.0000 
    103 DU        186.8100  149.9500  113.5000 H         6 CUB7        0.0000 
    104 DU        187.7300  149.5300  112.3900 H         6 CUB7        0.0000 
    105 DU        188.0900  148.3000  113.1700 H         6 CUB7        0.0000 
    106 DU        188.6400  149.1000  111.2900 H         6 CUB7        0.0000 
    107 DU        187.5700  151.9300  113.3700 H         6 CUB7        0.0000 
    108 DU        187.9400  150.7000  114.1500 H         6 CUB7        0.0000 
    109 DU        188.4900  151.5000  112.2600 H         6 CUB7        0.0000 
    110 DU        188.8600  150.2700  113.0400 H         6 CUB7        0.0000 
    111 DU        189.2200  149.0400  113.8200 H         6 CUB7        0.0000 
    112 DU        189.4000  151.0700  111.1500 H         6 CUB7        0.0000 
    113 DU        189.7700  149.8400  111.9300 H         6 CUB7        0.0000 
    114 DU        188.3400  153.9000  113.2300 H         6 CUB7        0.0000 
    115 DU        188.7000  152.6800  114.0100 H         6 CUB7        0.0000 
    116 DU        189.6200  152.2500  112.9000 H         6 CUB7        0.0000 
    117 DU        190.9000  150.5900  112.5700 H         6 CUB7        0.0000 
@<TRIPOS>BOND
@<TRIPOS>SUBSTRUCTURE
     1 SER1        1 GROUP   
     2 ALA2       23 GROUP   
     3 ASP3       29 GROUP   
     4 LYS4       46 GROUP   
     5 GLY6       62 GROUP   
     6 CUB7       91 GROUP   
@<TRIPOS>SET

