#    Name: 6ahf_4_AGS
#    Modification time : Fri May 22 19:26:22 2020

@<TRIPOS>MOLECULE
6ahf_4_AGS
   31    33     1     0     0
SMALL
NO_CHARGES


@<TRIPOS>ATOM
      1 PG        182.4200  162.1430  169.5030 P.3       1 AGS1001     0.0000 
      2 S1G       180.9450  162.9740  170.4510 S.2       1 AGS1001     0.0000 
      3 O2G       182.0410  161.7910  168.0430 O.3       1 AGS1001     0.0000 
      4 O3G       183.6510  163.0920  169.4450 O.3       1 AGS1001     0.0000 
      5 PB        183.7550  159.8580  169.5140 P.3       1 AGS1001     0.0000 
      6 O1B       183.6120  160.0450  168.0620 O.co2     1 AGS1001     0.0000 
      7 O2B       185.1080  160.1780  170.1360 O.co2     1 AGS1001     0.0000 
      8 O3B       182.7760  160.8270  170.2340 O.3       1 AGS1001     0.0000 
      9 PA        182.7700  158.1300  171.2720 P.3       1 AGS1001     0.0000 
     10 O1A       181.5280  157.3910  171.0100 O.co2     1 AGS1001     0.0000 
     11 O2A       182.5690  159.5370  171.8430 O.co2     1 AGS1001     0.0000 
     12 O3A       183.5510  158.3680  169.9340 O.3       1 AGS1001     0.0000 
     13 O5'       183.6870  157.1970  172.1700 O.3       1 AGS1001     0.0000 
     14 C5'       184.2350  157.6380  173.4200 C.3       1 AGS1001     0.0000 
     15 C4'       185.1550  158.7610  173.0560 C.3       1 AGS1001     0.0000 
     16 O4'       185.7280  159.3610  174.2200 O.3       1 AGS1001     0.0000 
     17 C3'       186.3630  158.3760  172.2210 C.3       1 AGS1001     0.0000 
     18 O3'       185.9990  158.3610  170.8470 O.3       1 AGS1001     0.0000 
     19 C2'       187.3520  159.5090  172.5160 C.3       1 AGS1001     0.0000 
     20 O2'       187.4420  160.3780  171.3970 O.3       1 AGS1001     0.0000 
     21 C1'       186.7300  160.2160  173.7270 C.3       1 AGS1001     0.0000 
     22 N9        187.6780  160.4990  174.7930 N.pl3     1 AGS1001     0.0000 
     23 C8        188.7950  159.7770  175.0890 C.2       1 AGS1001     0.0000 
     24 N7        189.4810  160.2740  176.0880 N.2       1 AGS1001     0.0000 
     25 C5        188.7810  161.3960  176.4570 C.ar      1 AGS1001     0.0000 
     26 C6        188.9760  162.3540  177.4650 C.ar      1 AGS1001     0.0000 
     27 N6        190.0170  162.3280  178.3000 N.pl3     1 AGS1001     0.0000 
     28 N1        188.0740  163.3450  177.5800 N.ar      1 AGS1001     0.0000 
     29 C2        187.0360  163.3670  176.7390 C.ar      1 AGS1001     0.0000 
     30 N3        186.7390  162.5210  175.7510 N.ar      1 AGS1001     0.0000 
     31 C4        187.6430  161.5540  175.6670 C.ar      1 AGS1001     0.0000 
@<TRIPOS>BOND
     1    1    2 2    
     2    1    3 1    
     3    1    4 1    
     4    1    8 1    
     5    5    6 ar   
     6    5    7 ar   
     7    5    8 1    
     8    5   12 1    
     9    9   10 ar   
    10    9   11 ar   
    11    9   12 1    
    12    9   13 1    
    13   13   14 1    
    14   14   15 1    
    15   15   16 1    
    16   15   17 1    
    17   16   21 1    
    18   17   18 1    
    19   17   19 1    
    20   19   20 1    
    21   19   21 1    
    22   21   22 1    
    23   22   23 1    
    24   22   31 1    
    25   23   24 2    
    26   24   25 1    
    27   25   26 ar   
    28   25   31 ar   
    29   26   27 1    
    30   26   28 ar   
    31   28   29 ar   
    32   29   30 ar   
    33   30   31 ar   
@<TRIPOS>SUBSTRUCTURE
     1 AGS1001     1 GROUP   
@<TRIPOS>SET

