#    Name: 6ahf_2_AGS
#    Modification time : Fri May 22 19:25:26 2020

@<TRIPOS>MOLECULE
6ahf_2_AGS
   31    33     1     0     0
SMALL
NO_CHARGES


@<TRIPOS>ATOM
      1 PG        178.0180  133.7770  151.6920 P.3       1 AGS1001     0.0000 
      2 S1G       178.2100  135.5470  150.9450 S.2       1 AGS1001     0.0000 
      3 O2G       176.9530  133.7550  152.8080 O.3       1 AGS1001     0.0000 
      4 O3G       177.4720  132.8630  150.5960 O.3       1 AGS1001     0.0000 
      5 PB        178.8310  131.5980  152.0560 P.3       1 AGS1001     0.0000 
      6 O1B       178.8560  131.3550  150.5550 O.co2     1 AGS1001     0.0000 
      7 O2B       177.4420  131.4420  152.4890 O.co2     1 AGS1001     0.0000 
      8 O3B       179.2870  133.0590  152.1740 O.3       1 AGS1001     0.0000 
      9 PA        179.2030  129.2250  151.8610 P.3       1 AGS1001     0.0000 
     10 O1A       179.2620  129.5440  150.3690 O.co2     1 AGS1001     0.0000 
     11 O2A       177.8110  129.0300  152.2390 O.co2     1 AGS1001     0.0000 
     12 O3A       179.7750  130.4910  152.5870 O.3       1 AGS1001     0.0000 
     13 O5'       180.1110  127.9900  152.1240 O.3       1 AGS1001     0.0000 
     14 C5'       180.5390  127.2410  150.9830 C.3       1 AGS1001     0.0000 
     15 C4'       181.8470  127.8290  150.5560 C.3       1 AGS1001     0.0000 
     16 O4'       182.8830  127.4300  151.4720 O.3       1 AGS1001     0.0000 
     17 C3'       182.3230  127.4560  149.1570 C.3       1 AGS1001     0.0000 
     18 O3'       182.7750  128.6020  148.4600 O.3       1 AGS1001     0.0000 
     19 C2'       183.5460  126.5770  149.4060 C.3       1 AGS1001     0.0000 
     20 O2'       184.5560  126.8250  148.4410 O.3       1 AGS1001     0.0000 
     21 C1'       184.0380  127.0910  150.7450 C.3       1 AGS1001     0.0000 
     22 N9        184.7600  126.0800  151.4820 N.pl3     1 AGS1001     0.0000 
     23 C8        184.2730  124.8810  151.9260 C.2       1 AGS1001     0.0000 
     24 N7        185.1550  124.1450  152.5480 N.2       1 AGS1001     0.0000 
     25 C5        186.3140  124.9030  152.4970 C.ar      1 AGS1001     0.0000 
     26 C6        187.6110  124.6730  152.9630 C.ar      1 AGS1001     0.0000 
     27 N6        187.9730  123.5830  153.6390 N.pl3     1 AGS1001     0.0000 
     28 N1        188.5210  125.6480  152.7810 N.ar      1 AGS1001     0.0000 
     29 C2        188.1590  126.7480  152.1190 C.ar      1 AGS1001     0.0000 
     30 N3        186.9680  127.0690  151.6160 N.ar      1 AGS1001     0.0000 
     31 C4        186.0780  126.0960  151.8430 C.ar      1 AGS1001     0.0000 
@<TRIPOS>BOND
     1    1    2 2    
     2    1    3 1    
     3    1    4 1    
     4    1    8 1    
     5    5    6 ar   
     6    5    7 ar   
     7    5    8 1    
     8    5   12 1    
     9    9   10 ar   
    10    9   11 ar   
    11    9   12 1    
    12    9   13 1    
    13   13   14 1    
    14   14   15 1    
    15   15   16 1    
    16   15   17 1    
    17   16   21 1    
    18   17   18 1    
    19   17   19 1    
    20   19   20 1    
    21   19   21 1    
    22   21   22 1    
    23   22   23 1    
    24   22   31 1    
    25   23   24 2    
    26   24   25 1    
    27   25   26 ar   
    28   25   31 ar   
    29   26   27 1    
    30   26   28 ar   
    31   28   29 ar   
    32   29   30 ar   
    33   30   31 ar   
@<TRIPOS>SUBSTRUCTURE
     1 AGS1001     1 GROUP   
@<TRIPOS>SET

