#    Name: 6gvx_1_TAK
#    Modification time : Fri May 22 19:25:53 2020

@<TRIPOS>MOLECULE
6gvx_1_TAK
   30    34     1     0     0
SMALL
NO_CHARGES


@<TRIPOS>ATOM
      1 C1          8.1830   -0.7370    1.2910 C.3       1 TAK402      0.0000 
      2 C2          9.3370   -0.3470    2.2080 C.3       1 TAK402      0.0000 
      3 C3          8.9590   -0.5680    3.6680 C.3       1 TAK402      0.0000 
      4 C4          8.4610   -1.9920    3.8810 C.3       1 TAK402      0.0000 
      5 C5          7.3410   -2.3140    2.9000 C.3       1 TAK402      0.0000 
      6 N1          7.8350   -2.1460    1.5260 N.4       1 TAK402      0.0000 
      7 C6          6.7930   -2.5670    0.5790 C.3       1 TAK402      0.0000 
      8 C7          6.5130   -4.0480    0.8010 C.3       1 TAK402      0.0000 
      9 O1          5.4250   -4.4820   -0.0100 O.3       1 TAK402      0.0000 
     10 C8          4.7700   -5.6240    0.3640 C.ar      1 TAK402      0.0000 
     11 C9          3.4670   -5.5480    0.8410 C.ar      1 TAK402      0.0000 
     12 C10         2.8040   -6.7050    1.2300 C.ar      1 TAK402      0.0000 
     13 C11         5.4160   -6.8510    0.2850 C.ar      1 TAK402      0.0000 
     14 C12         4.7520   -8.0080    0.6740 C.ar      1 TAK402      0.0000 
     15 C13         3.4420   -7.9360    1.1340 C.ar      1 TAK402      0.0000 
     16 C14         2.7410   -9.1690    1.5750 C.2       1 TAK402      0.0000 
     17 C15         1.5340   -9.0550    2.2590 C.2       1 TAK402      0.0000 
     18 C16         3.2980  -10.4280    1.3430 C.2       1 TAK402      0.0000 
     19 N2          2.6560  -11.5240    1.7700 N.2       1 TAK402      0.0000 
     20 C17         1.4810  -11.3520    2.4210 C.2       1 TAK402      0.0000 
     21 N3          0.9390  -10.1770    2.6630 N.pl3     1 TAK402      0.0000 
     22 N4         -0.2670  -10.2450    3.3530 N.2       1 TAK402      0.0000 
     23 C18        -0.4490  -11.5810    3.5350 C.2       1 TAK402      0.0000 
     24 C19         0.6160  -12.2940    2.9670 C.2       1 TAK402      0.0000 
     25 C20         0.7740  -13.7770    2.9810 C.ar      1 TAK402      0.0000 
     26 C21         1.6230  -14.4320    2.0990 C.ar      1 TAK402      0.0000 
     27 C22         1.7390  -15.8160    2.1660 C.ar      1 TAK402      0.0000 
     28 N5          1.0460  -16.5150    3.0750 N.ar      1 TAK402      0.0000 
     29 C23         0.2270  -15.9070    3.9420 C.ar      1 TAK402      0.0000 
     30 C24         0.0730  -14.5260    3.9170 C.ar      1 TAK402      0.0000 
@<TRIPOS>BOND
     1    1    2 1    
     2    1    6 1    
     3    2    3 1    
     4    3    4 1    
     5    4    5 1    
     6    5    6 1    
     7    6    7 1    
     8    7    8 1    
     9    8    9 1    
    10    9   10 1    
    11   10   11 ar   
    12   10   13 ar   
    13   11   12 ar   
    14   12   15 ar   
    15   13   14 ar   
    16   14   15 ar   
    17   15   16 1    
    18   16   17 2    
    19   16   18 1    
    20   17   21 1    
    21   18   19 2    
    22   19   20 1    
    23   20   21 1    
    24   20   24 2    
    25   21   22 1    
    26   22   23 2    
    27   23   24 1    
    28   24   25 1    
    29   25   26 ar   
    30   25   30 ar   
    31   26   27 ar   
    32   27   28 ar   
    33   28   29 ar   
    34   29   30 ar   
@<TRIPOS>SUBSTRUCTURE
     1 TAK402      1 GROUP   
@<TRIPOS>SET

