#    Name: 6gvx_2_TAK
#    Modification time : Fri May 22 19:26:04 2020

@<TRIPOS>MOLECULE
6gvx_2_TAK
   30    34     1     0     0
SMALL
NO_CHARGES


@<TRIPOS>ATOM
      1 C1          1.4430   -2.5640  -10.1920 C.3       1 TAK402      0.0000 
      2 C2          0.3540   -2.0600  -11.1340 C.3       1 TAK402      0.0000 
      3 C3         -0.9780   -1.9510  -10.4050 C.3       1 TAK402      0.0000 
      4 C4         -0.8780   -0.9610   -9.2510 C.3       1 TAK402      0.0000 
      5 C5          0.4870   -1.0430   -8.5760 C.3       1 TAK402      0.0000 
      6 N1          1.0520   -2.3850   -8.7830 N.4       1 TAK402      0.0000 
      7 C6          2.2380   -2.5510   -7.9310 C.3       1 TAK402      0.0000 
      8 C7          2.8140   -3.9480   -8.1320 C.3       1 TAK402      0.0000 
      9 O1          4.2250   -3.9170   -7.9350 O.3       1 TAK402      0.0000 
     10 C8          5.0160   -4.7940   -8.6280 C.ar      1 TAK402      0.0000 
     11 C9          4.4780   -5.9790   -9.1240 C.ar      1 TAK402      0.0000 
     12 C10         5.2850   -6.8670   -9.8320 C.ar      1 TAK402      0.0000 
     13 C11         6.3560   -4.4990   -8.8370 C.ar      1 TAK402      0.0000 
     14 C12         7.1580   -5.3830   -9.5420 C.ar      1 TAK402      0.0000 
     15 C13         6.6290   -6.5670  -10.0360 C.ar      1 TAK402      0.0000 
     16 C14         7.5250   -7.4820  -10.7890 C.2       1 TAK402      0.0000 
     17 C15         8.5800   -6.9270  -11.5060 C.2       1 TAK402      0.0000 
     18 C16         7.3380   -8.8650  -10.7830 C.2       1 TAK402      0.0000 
     19 N2          8.1770   -9.6500  -11.4780 N.2       1 TAK402      0.0000 
     20 C17         9.1830   -9.0510  -12.1590 C.2       1 TAK402      0.0000 
     21 N3          9.3800   -7.7500  -12.1810 N.pl3     1 TAK402      0.0000 
     22 N4         10.4710   -7.3570  -12.9490 N.2       1 TAK402      0.0000 
     23 C18        10.9600   -8.5330  -13.4230 C.2       1 TAK402      0.0000 
     24 C19        10.1850   -9.6030  -12.9530 C.2       1 TAK402      0.0000 
     25 C20        10.4210  -11.0400  -13.2750 C.ar      1 TAK402      0.0000 
     26 C21         9.8720  -12.0600  -12.5100 C.ar      1 TAK402      0.0000 
     27 C22        10.1250  -13.3810  -12.8600 C.ar      1 TAK402      0.0000 
     28 N5         10.8880  -13.6720  -13.9230 N.ar      1 TAK402      0.0000 
     29 C23        11.4270  -12.7070  -14.6790 C.ar      1 TAK402      0.0000 
     30 C24        11.2070  -11.3700  -14.3720 C.ar      1 TAK402      0.0000 
@<TRIPOS>BOND
     1    1    2 1    
     2    1    6 1    
     3    2    3 1    
     4    3    4 1    
     5    4    5 1    
     6    5    6 1    
     7    6    7 1    
     8    7    8 1    
     9    8    9 1    
    10    9   10 1    
    11   10   11 ar   
    12   10   13 ar   
    13   11   12 ar   
    14   12   15 ar   
    15   13   14 ar   
    16   14   15 ar   
    17   15   16 1    
    18   16   17 2    
    19   16   18 1    
    20   17   21 1    
    21   18   19 2    
    22   19   20 1    
    23   20   21 1    
    24   20   24 2    
    25   21   22 1    
    26   22   23 2    
    27   23   24 1    
    28   24   25 1    
    29   25   26 ar   
    30   25   30 ar   
    31   26   27 ar   
    32   27   28 ar   
    33   28   29 ar   
    34   29   30 ar   
@<TRIPOS>SUBSTRUCTURE
     1 TAK402      1 GROUP   
@<TRIPOS>SET

