#    Name: 6jnu_4_NDP
#    Modification time : Fri May 22 19:35:19 2020

@<TRIPOS>MOLECULE
6jnu_4_NDP
   74    78     1     0     1
SMALL
NO_CHARGES


@<TRIPOS>ATOM
      1 PA         96.8270   42.9760  166.3770 P.3       1 NDP602      0.0000 
      2 O1A        97.2070   43.1530  167.8030 O.co2     1 NDP602      0.0000 
      3 O2A        97.8450   42.4890  165.3930 O.co2     1 NDP602      0.0000 
      4 O5B        96.1100   44.3780  165.8090 O.3       1 NDP602      0.0000 
      5 C5B        95.4460   44.9000  166.9320 C.3       1 NDP602      0.0000 
      6 C4B        94.7140   46.1310  166.4130 C.3       1 NDP602      0.0000 
      7 O4B        93.6830   46.5920  167.3240 O.3       1 NDP602      0.0000 
      8 C3B        95.6600   47.3200  166.1900 C.3       1 NDP602      0.0000 
      9 O3B        95.7950   47.5950  164.8230 O.3       1 NDP602      0.0000 
     10 C2B        94.9470   48.5800  166.8350 C.3       1 NDP602      0.0000 
     11 O2B        94.8980   49.6330  166.0440 O.3       1 NDP602      0.0000 
     12 C1B        93.4830   48.0160  167.0770 C.3       1 NDP602      0.0000 
     13 N9A        92.7810   48.6130  168.2160 N.pl3     1 NDP602      0.0000 
     14 C8A        93.2260   48.8080  169.5260 C.2       1 NDP602      0.0000 
     15 N7A        92.3230   49.4050  170.3340 N.2       1 NDP602      0.0000 
     16 C5A        91.2160   49.6230  169.4810 C.ar      1 NDP602      0.0000 
     17 C6A        89.9540   50.2060  169.6970 C.ar      1 NDP602      0.0000 
     18 N6A        89.6300   50.6940  170.9240 N.pl3     1 NDP602      0.0000 
     19 N1A        89.0190   50.3210  168.7070 N.ar      1 NDP602      0.0000 
     20 C2A        89.4300   49.8120  167.5000 C.ar      1 NDP602      0.0000 
     21 N3A        90.5730   49.2280  167.1080 N.ar      1 NDP602      0.0000 
     22 C4A        91.4850   49.1380  168.1540 C.ar      1 NDP602      0.0000 
     23 O3         95.7070   41.7320  166.5740 O.3       1 NDP602      0.0000 
     24 PN         95.2580   41.1400  165.1760 P.3       1 NDP602      0.0000 
     25 O1N        95.2180   39.6690  165.2780 O.co2     1 NDP602      0.0000 
     26 O2N        95.7550   41.8210  163.9200 O.co2     1 NDP602      0.0000 
     27 O5D        93.5420   41.4610  165.0460 O.3       1 NDP602      0.0000 
     28 C5D        92.9350   41.0390  166.2240 C.3       1 NDP602      0.0000 
     29 C4D        91.7260   41.9450  166.4730 C.3       1 NDP602      0.0000 
     30 O4D        92.0800   43.3010  166.4630 O.3       1 NDP602      0.0000 
     31 C3D        90.7890   41.6970  165.2410 C.3       1 NDP602      0.0000 
     32 O3D        89.9310   40.6540  165.5150 O.3       1 NDP602      0.0000 
     33 C2D        90.0490   43.0320  165.2560 C.3       1 NDP602      0.0000 
     34 O2D        88.8990   42.9780  166.1050 O.3       1 NDP602      0.0000 
     35 C1D        91.0200   44.0010  165.9150 C.3       1 NDP602      0.0000 
     36 N1N        91.5940   44.8660  164.8080 N.pl3     1 NDP602      0.0000 
     37 C2N        92.2380   44.2630  163.7200 C.2       1 NDP602      0.0000 
     38 C3N        92.6780   45.0220  162.6790 C.2       1 NDP602      0.0000 
     39 C7N        93.3090   44.3650  161.5670 C.2       1 NDP602      0.0000 
     40 O7N        93.0950   44.6100  160.3780 O.2       1 NDP602      0.0000 
     41 N7N        94.2110   43.4260  161.8100 N.am      1 NDP602      0.0000 
     42 C4N        92.5050   46.5090  162.6420 C.3       1 NDP602      0.0000 
     43 C5N        91.9090   47.0360  163.8820 C.2       1 NDP602      0.0000 
     44 C6N        91.4870   46.2510  164.8630 C.2       1 NDP602      0.0000 
     45 P2B        96.4090   50.7250  166.2500 P.3       1 NDP602      0.0000 
     46 O1X        96.8560   50.1610  167.5630 O.co2     1 NDP602      0.0000 
     47 O2X        95.8160   52.1400  166.2490 O.co2     1 NDP602      0.0000 
     48 O3X        97.1450   50.2710  165.0200 O.co2     1 NDP602      0.0000 
     49 H51A       94.8310   44.2540  167.3110 H         1 NDP602      0.0000 
     50 H52A       96.0710   45.1280  167.6380 H         1 NDP602      0.0000 
     51 H4B        94.3070   45.8200  165.5900 H         1 NDP602      0.0000 
     52 H3B        96.4990   47.1590  166.6500 H         1 NDP602      0.0000 
     53 HO3A       96.5910   47.3770  164.6220 H         1 NDP602      0.0000 
     54 H2B        95.3450   48.7150  167.7100 H         1 NDP602      0.0000 
     55 H1B        92.9000   48.1770  166.3180 H         1 NDP602      0.0000 
     56 H8A        94.0770   48.5370  169.7870 H         1 NDP602      0.0000 
     57 H61A       89.8370   50.2400  171.6250 H         1 NDP602      0.0000 
     58 H62A       89.2220   51.4490  170.9810 H         1 NDP602      0.0000 
     59 H2A        88.7830   49.8940  166.8370 H         1 NDP602      0.0000 
     60 H51N       93.5350   41.0780  166.9850 H         1 NDP602      0.0000 
     61 H52N       92.6460   40.1140  166.1810 H         1 NDP602      0.0000 
     62 H4D        91.3120   41.7670  167.3320 H         1 NDP602      0.0000 
     63 H3D        91.2850   41.5290  164.4250 H         1 NDP602      0.0000 
     64 HO3N       89.6440   40.3880  164.7610 H         1 NDP602      0.0000 
     65 H2D        89.8520   43.3200  164.3510 H         1 NDP602      0.0000 
     66 HO2N       88.3550   43.5500  165.7880 H         1 NDP602      0.0000 
     67 H1D        90.6000   44.5010  166.6320 H         1 NDP602      0.0000 
     68 H2N        92.3550   43.3400  163.7330 H         1 NDP602      0.0000 
     69 H71N       94.4010   43.2190  162.6220 H         1 NDP602      0.0000 
     70 H72N       94.6010   43.0290  161.1540 H         1 NDP602      0.0000 
     71 H41N       91.9430   46.7640  161.8940 H         1 NDP602      0.0000 
     72 H42N       93.3590   46.9440  162.4980 H         1 NDP602      0.0000 
     73 H5N        91.8290   47.9580  163.9750 H         1 NDP602      0.0000 
     74 H6N        91.0990   46.5970  165.6340 H         1 NDP602      0.0000 
@<TRIPOS>BOND
     1    1    2 ar   
     2    1    3 ar   
     3    1    4 1    
     4    1   23 1    
     5    4    5 1    
     6    5    6 1    
     7    5   49 1    
     8    5   50 1    
     9    6    7 1    
    10    6    8 1    
    11    6   51 1    
    12    7   12 1    
    13    8    9 1    
    14    8   10 1    
    15    8   52 1    
    16    9   53 1    
    17   10   11 1    
    18   10   12 1    
    19   10   54 1    
    20   11   45 1    
    21   12   13 1    
    22   12   55 1    
    23   13   14 1    
    24   13   22 1    
    25   14   15 2    
    26   14   56 1    
    27   15   16 1    
    28   16   17 ar   
    29   16   22 ar   
    30   17   18 1    
    31   17   19 ar   
    32   18   57 1    
    33   18   58 1    
    34   19   20 ar   
    35   20   21 ar   
    36   20   59 1    
    37   21   22 ar   
    38   23   24 1    
    39   24   25 ar   
    40   24   26 ar   
    41   24   27 1    
    42   27   28 1    
    43   28   29 1    
    44   28   60 1    
    45   28   61 1    
    46   29   30 1    
    47   29   31 1    
    48   29   62 1    
    49   30   35 1    
    50   31   32 1    
    51   31   33 1    
    52   31   63 1    
    53   32   64 1    
    54   34   66 1    
    55   33   34 1    
    56   33   35 1    
    57   33   65 1    
    58   35   36 1    
    59   35   67 1    
    60   36   37 1    
    61   36   44 1    
    62   37   38 2    
    63   37   68 1    
    64   38   39 1    
    65   38   42 1    
    66   39   40 2    
    67   39   41 am   
    68   41   69 1    
    69   41   70 1    
    70   42   43 1    
    71   42   71 1    
    72   42   72 1    
    73   43   44 2    
    74   43   73 1    
    75   44   74 1    
    76   45   46 ar   
    77   45   47 ar   
    78   45   48 ar   
@<TRIPOS>SUBSTRUCTURE
     1 NDP602      1 GROUP   
@<TRIPOS>SET
ATOM$ORANGE STATIC     ATOMS   COLORGROUP SYSTEM 
42 5 5 6 6 8 8 10 10 12 12 14 14 16 16 17 17 20 \
20 22 22 28 28 29 29 31 31 33 33 35 35 37 37 38 38 39 \
39 42 42 43 43 44 44 

