#    Name: 6jnu_1_NDP
#    Modification time : Fri May 22 19:35:05 2020

@<TRIPOS>MOLECULE
6jnu_1_NDP
   74    78     1     0     1
SMALL
NO_CHARGES


@<TRIPOS>ATOM
      1 PA         53.7520   97.4480  179.0490 P.3       1 NDP602      0.0000 
      2 O1A        54.2070   97.2360  180.4520 O.co2     1 NDP602      0.0000 
      3 O2A        52.3510   97.9050  178.7780 O.co2     1 NDP602      0.0000 
      4 O5B        54.0920   96.1140  178.1350 O.3       1 NDP602      0.0000 
      5 C5B        55.2720   95.6260  178.6960 C.3       1 NDP602      0.0000 
      6 C4B        55.4350   94.3080  178.0000 C.3       1 NDP602      0.0000 
      7 O4B        56.7970   93.7930  178.1500 O.3       1 NDP602      0.0000 
      8 C3B        54.5070   93.1810  178.4740 C.3       1 NDP602      0.0000 
      9 O3B        53.4280   93.0920  177.6340 O.3       1 NDP602      0.0000 
     10 C2B        55.3150   91.8740  178.3450 C.3       1 NDP602      0.0000 
     11 O2B        54.9590   91.0870  177.3330 O.3       1 NDP602      0.0000 
     12 C1B        56.7240   92.3460  177.8890 C.3       1 NDP602      0.0000 
     13 N9A        57.9270   91.7630  178.4770 N.pl3     1 NDP602      0.0000 
     14 C8A        58.2580   91.5200  179.8120 C.2       1 NDP602      0.0000 
     15 N7A        59.4630   90.9460  179.9670 N.2       1 NDP602      0.0000 
     16 C5A        59.9270   90.8250  178.6560 C.ar      1 NDP602      0.0000 
     17 C6A        61.1010   90.3370  178.1460 C.ar      1 NDP602      0.0000 
     18 N6A        62.0440   89.8550  178.9970 N.pl3     1 NDP602      0.0000 
     19 N1A        61.3710   90.3150  176.8050 N.ar      1 NDP602      0.0000 
     20 C2A        60.3680   90.8400  176.0290 C.ar      1 NDP602      0.0000 
     21 N3A        59.1860   91.3560  176.3420 N.ar      1 NDP602      0.0000 
     22 C4A        58.9910   91.3310  177.7140 C.ar      1 NDP602      0.0000 
     23 O3         54.7430   98.7340  178.6230 O.3       1 NDP602      0.0000 
     24 PN         54.3060   99.2630  177.1850 P.3       1 NDP602      0.0000 
     25 O1N        54.2610  100.7360  177.2510 O.co2     1 NDP602      0.0000 
     26 O2N        53.2340   98.4600  176.4840 O.co2     1 NDP602      0.0000 
     27 O5D        55.6700   99.0650  176.0210 O.3       1 NDP602      0.0000 
     28 C5D        56.8160   99.3900  176.7370 C.3       1 NDP602      0.0000 
     29 C4D        58.0200   98.6360  176.1400 C.3       1 NDP602      0.0000 
     30 O4D        57.6550   97.2110  176.3530 O.3       1 NDP602      0.0000 
     31 C3D        58.2090   98.8140  174.6700 C.3       1 NDP602      0.0000 
     32 O3D        59.1310   99.8320  174.4940 O.3       1 NDP602      0.0000 
     33 C2D        58.8230   97.4550  174.2830 C.3       1 NDP602      0.0000 
     34 O2D        60.2260   97.3750  174.4500 O.3       1 NDP602      0.0000 
     35 C1D        58.2400   96.4620  175.3050 C.3       1 NDP602      0.0000 
     36 N1N        57.1810   95.6250  174.6560 N.pl3     1 NDP602      0.0000 
     37 C2N        56.0390   96.2100  174.1700 C.2       1 NDP602      0.0000 
     38 C3N        55.0380   95.4630  173.6180 C.2       1 NDP602      0.0000 
     39 C7N        53.8550   96.1800  173.1460 C.2       1 NDP602      0.0000 
     40 O7N        53.1830   95.9090  172.1500 O.2       1 NDP602      0.0000 
     41 N7N        53.4340   97.2040  173.8700 N.am      1 NDP602      0.0000 
     42 C4N        55.1210   93.9630  173.5250 C.3       1 NDP602      0.0000 
     43 C5N        56.4000   93.4530  174.0640 C.2       1 NDP602      0.0000 
     44 C6N        57.3380   94.2450  174.5750 C.2       1 NDP602      0.0000 
     45 P2B        53.4430   90.1500  177.6740 P.3       1 NDP602      0.0000 
     46 O1X        53.1970   90.7020  179.0450 O.co2     1 NDP602      0.0000 
     47 O2X        53.8850   88.6860  177.5420 O.co2     1 NDP602      0.0000 
     48 O3X        52.6500   90.7410  176.5500 O.co2     1 NDP602      0.0000 
     49 H51A       56.0230   96.2180  178.5380 H         1 NDP602      0.0000 
     50 H52A       55.2030   95.5250  179.6580 H         1 NDP602      0.0000 
     51 H4B        55.2310   94.5480  177.0830 H         1 NDP602      0.0000 
     52 H3B        54.2760   93.2970  179.4080 H         1 NDP602      0.0000 
     53 HO3A       52.7510   93.2870  178.1100 H         1 NDP602      0.0000 
     54 H2B        55.3210   91.5390  179.2550 H         1 NDP602      0.0000 
     55 H1B        56.7880   92.0960  176.9540 H         1 NDP602      0.0000 
     56 H8A        57.6790   91.7460  180.5040 H         1 NDP602      0.0000 
     57 H61A       62.8710   90.0430  178.8580 H         1 NDP602      0.0000 
     58 H62A       61.7990   89.3690  179.6630 H         1 NDP602      0.0000 
     59 H2A        60.5660   90.8250  175.1200 H         1 NDP602      0.0000 
     60 H51N       56.9970  100.3430  176.7220 H         1 NDP602      0.0000 
     61 H52N       56.7340   99.1660  177.6770 H         1 NDP602      0.0000 
     62 H4D        58.8490   98.9380  176.5430 H         1 NDP602      0.0000 
     63 H3D        57.3710   98.9770  174.2110 H         1 NDP602      0.0000 
     64 HO3N       58.8920  100.2380  173.7860 H         1 NDP602      0.0000 
     65 H2D        58.5460   97.2500  173.3760 H         1 NDP602      0.0000 
     66 HO2N       60.3980   96.5460  174.5330 H         1 NDP602      0.0000 
     67 H1D        58.9280   95.8950  175.6860 H         1 NDP602      0.0000 
     68 H2N        55.9690   97.1360  174.2280 H         1 NDP602      0.0000 
     69 H71N       53.8690   97.4340  174.5760 H         1 NDP602      0.0000 
     70 H72N       52.7290   97.6340  173.6300 H         1 NDP602      0.0000 
     71 H41N       54.3880   93.5520  174.0100 H         1 NDP602      0.0000 
     72 H42N       55.0290   93.6740  172.6040 H         1 NDP602      0.0000 
     73 H5N        56.5500   92.5350  174.0430 H         1 NDP602      0.0000 
     74 H6N        58.1410   93.9070  174.9000 H         1 NDP602      0.0000 
@<TRIPOS>BOND
     1    1    2 ar   
     2    1    3 ar   
     3    1    4 1    
     4    1   23 1    
     5    4    5 1    
     6    5    6 1    
     7    5   49 1    
     8    5   50 1    
     9    6    7 1    
    10    6    8 1    
    11    6   51 1    
    12    7   12 1    
    13    8    9 1    
    14    8   10 1    
    15    8   52 1    
    16    9   53 1    
    17   10   11 1    
    18   10   12 1    
    19   10   54 1    
    20   11   45 1    
    21   12   13 1    
    22   12   55 1    
    23   13   14 1    
    24   13   22 1    
    25   14   15 2    
    26   14   56 1    
    27   15   16 1    
    28   16   17 ar   
    29   16   22 ar   
    30   17   18 1    
    31   17   19 ar   
    32   18   57 1    
    33   18   58 1    
    34   19   20 ar   
    35   20   21 ar   
    36   20   59 1    
    37   21   22 ar   
    38   23   24 1    
    39   24   25 ar   
    40   24   26 ar   
    41   24   27 1    
    42   27   28 1    
    43   28   29 1    
    44   28   60 1    
    45   28   61 1    
    46   29   30 1    
    47   29   31 1    
    48   29   62 1    
    49   30   35 1    
    50   31   32 1    
    51   31   33 1    
    52   31   63 1    
    53   32   64 1    
    54   34   66 1    
    55   33   34 1    
    56   33   35 1    
    57   33   65 1    
    58   35   36 1    
    59   35   67 1    
    60   36   37 1    
    61   36   44 1    
    62   37   38 2    
    63   37   68 1    
    64   38   39 1    
    65   38   42 1    
    66   39   40 2    
    67   39   41 am   
    68   41   69 1    
    69   41   70 1    
    70   42   43 1    
    71   42   71 1    
    72   42   72 1    
    73   43   44 2    
    74   43   73 1    
    75   44   74 1    
    76   45   46 ar   
    77   45   47 ar   
    78   45   48 ar   
@<TRIPOS>SUBSTRUCTURE
     1 NDP602      1 GROUP   
@<TRIPOS>SET
ATOM$ORANGE STATIC     ATOMS   COLORGROUP SYSTEM 
42 5 5 6 6 8 8 10 10 12 12 14 14 16 16 17 17 20 \
20 22 22 28 28 29 29 31 31 33 33 35 35 37 37 38 38 39 \
39 42 42 43 43 44 44 

