#    Name: 6jnu_2_NDP
#    Modification time : Fri May 22 19:35:10 2020

@<TRIPOS>MOLECULE
6jnu_2_NDP
   74    78     1     0     1
SMALL
NO_CHARGES


@<TRIPOS>ATOM
      1 PA         55.8850  105.5410  107.4440 P.3       1 NDP602      0.0000 
      2 O1A        55.4590  105.1570  106.0780 O.co2     1 NDP602      0.0000 
      3 O2A        56.8140  106.6950  107.6450 O.co2     1 NDP602      0.0000 
      4 O5B        56.4160  104.2240  108.3140 O.3       1 NDP602      0.0000 
      5 C5B        56.2780  103.1480  107.4420 C.3       1 NDP602      0.0000 
      6 C4B        57.0010  101.9740  108.1410 C.3       1 NDP602      0.0000 
      7 O4B        56.1810  100.7940  107.9260 O.3       1 NDP602      0.0000 
      8 C3B        58.3560  101.7060  107.6140 C.3       1 NDP602      0.0000 
      9 O3B        59.3150  101.8750  108.6530 O.3       1 NDP602      0.0000 
     10 C2B        58.4050  100.1960  107.2390 C.3       1 NDP602      0.0000 
     11 O2B        59.3960   99.4930  107.8000 O.3       1 NDP602      0.0000 
     12 C1B        57.0790   99.7120  107.8980 C.3       1 NDP602      0.0000 
     13 N9A        56.4380   98.6320  107.0860 N.pl3     1 NDP602      0.0000 
     14 C8A        56.2120   98.6130  105.6840 C.2       1 NDP602      0.0000 
     15 N7A        55.5900   97.4970  105.2340 N.2       1 NDP602      0.0000 
     16 C5A        55.4120   96.7420  106.4210 C.ar      1 NDP602      0.0000 
     17 C6A        54.8400   95.4950  106.6660 C.ar      1 NDP602      0.0000 
     18 N6A        54.3220   94.7660  105.6310 N.pl3     1 NDP602      0.0000 
     19 N1A        54.7810   94.9570  107.9230 N.ar      1 NDP602      0.0000 
     20 C2A        55.3210   95.7550  108.9130 C.ar      1 NDP602      0.0000 
     21 N3A        55.8940   96.9470  108.8710 N.ar      1 NDP602      0.0000 
     22 C4A        55.9340   97.4380  107.5770 C.ar      1 NDP602      0.0000 
     23 O3         54.4310  106.0430  108.0510 O.3       1 NDP602      0.0000 
     24 PN         54.6400  106.2600  109.6060 P.3       1 NDP602      0.0000 
     25 O1N        53.6690  107.2610  110.0890 O.co2     1 NDP602      0.0000 
     26 O2N        56.0610  106.1980  110.1200 O.co2     1 NDP602      0.0000 
     27 O5D        53.9740  104.8540  110.4570 O.3       1 NDP602      0.0000 
     28 C5D        52.6600  104.7780  109.9930 C.3       1 NDP602      0.0000 
     29 C4D        52.1400  103.4270  110.3860 C.3       1 NDP602      0.0000 
     30 O4D        53.1630  102.5300  109.8030 O.3       1 NDP602      0.0000 
     31 C3D        52.0590  103.1890  111.8680 C.3       1 NDP602      0.0000 
     32 O3D        50.7830  103.4910  112.2200 O.3       1 NDP602      0.0000 
     33 C2D        52.2940  101.6760  111.8320 C.3       1 NDP602      0.0000 
     34 O2D        51.0880  100.9740  111.5330 O.3       1 NDP602      0.0000 
     35 C1D        53.2470  101.4200  110.6480 C.3       1 NDP602      0.0000 
     36 N1N        54.6770  101.2870  111.1160 N.pl3     1 NDP602      0.0000 
     37 C2N        55.3070  102.3110  111.8180 C.2       1 NDP602      0.0000 
     38 C3N        56.6060  102.1830  112.2300 C.2       1 NDP602      0.0000 
     39 C7N        57.2070  103.2770  112.9620 C.2       1 NDP602      0.0000 
     40 O7N        58.0710  103.1690  113.8310 O.2       1 NDP602      0.0000 
     41 N7N        56.7630  104.4760  112.6150 N.am      1 NDP602      0.0000 
     42 C4N        57.4130  100.9670  111.9190 C.3       1 NDP602      0.0000 
     43 C5N        56.6480   99.9400  111.1820 C.2       1 NDP602      0.0000 
     44 C6N        55.3810  100.1060  110.8280 C.2       1 NDP602      0.0000 
     45 P2B        61.0350   99.6570  106.8400 P.3       1 NDP602      0.0000 
     46 O1X        60.3740  100.0430  105.5400 O.co2     1 NDP602      0.0000 
     47 O2X        61.5890   98.2370  107.0400 O.co2     1 NDP602      0.0000 
     48 O3X        61.5660  100.7510  107.7200 O.co2     1 NDP602      0.0000 
     49 H51A       55.3450  102.9430  107.2760 H         1 NDP602      0.0000 
     50 H52A       56.6710  103.3420  106.5760 H         1 NDP602      0.0000 
     51 H4B        57.0830  102.2070  109.0790 H         1 NDP602      0.0000 
     52 H3B        58.5060  102.2350  106.8150 H         1 NDP602      0.0000 
     53 HO3A       59.8810  102.4330  108.3530 H         1 NDP602      0.0000 
     54 H2B        58.3390  100.1610  106.2720 H         1 NDP602      0.0000 
     55 H1B        57.2370   99.3940  108.8000 H         1 NDP602      0.0000 
     56 H8A        56.4820   99.3240  105.1480 H         1 NDP602      0.0000 
     57 H61A       54.8180   94.1860  105.2360 H         1 NDP602      0.0000 
     58 H62A       53.5060   94.8990  105.3920 H         1 NDP602      0.0000 
     59 H2A        55.2650   95.3720  109.7590 H         1 NDP602      0.0000 
     60 H51N       52.0920  105.4710  110.3640 H         1 NDP602      0.0000 
     61 H52N       52.5960  104.8900  109.0310 H         1 NDP602      0.0000 
     62 H4D        51.2300  103.2800  110.0850 H         1 NDP602      0.0000 
     63 H3D        52.7100  103.6620  112.4100 H         1 NDP602      0.0000 
     64 HO3N       50.7860  103.5480  113.0680 H         1 NDP602      0.0000 
     65 H2D        52.7250  101.3940  112.6540 H         1 NDP602      0.0000 
     66 HO2N       51.3070  100.1540  111.4900 H         1 NDP602      0.0000 
     67 H1D        52.9910  100.6220  110.1600 H         1 NDP602      0.0000 
     68 H2N        54.8180  103.0820  111.9970 H         1 NDP602      0.0000 
     69 H71N       57.0850  105.1760  112.9950 H         1 NDP602      0.0000 
     70 H72N       56.1550  104.5460  112.0110 H         1 NDP602      0.0000 
     71 H41N       58.1930  101.2080  111.3940 H         1 NDP602      0.0000 
     72 H42N       57.7520  100.5720  112.7380 H         1 NDP602      0.0000 
     73 H5N        57.0780   99.1460  110.9600 H         1 NDP602      0.0000 
     74 H6N        54.9060   99.4470  110.3740 H         1 NDP602      0.0000 
@<TRIPOS>BOND
     1    1    2 ar   
     2    1    3 ar   
     3    1    4 1    
     4    1   23 1    
     5    4    5 1    
     6    5    6 1    
     7    5   49 1    
     8    5   50 1    
     9    6    7 1    
    10    6    8 1    
    11    6   51 1    
    12    7   12 1    
    13    8    9 1    
    14    8   10 1    
    15    8   52 1    
    16    9   53 1    
    17   10   11 1    
    18   10   12 1    
    19   10   54 1    
    20   11   45 1    
    21   12   13 1    
    22   12   55 1    
    23   13   14 1    
    24   13   22 1    
    25   14   15 2    
    26   14   56 1    
    27   15   16 1    
    28   16   17 ar   
    29   16   22 ar   
    30   17   18 1    
    31   17   19 ar   
    32   18   57 1    
    33   18   58 1    
    34   19   20 ar   
    35   20   21 ar   
    36   20   59 1    
    37   21   22 ar   
    38   23   24 1    
    39   24   25 ar   
    40   24   26 ar   
    41   24   27 1    
    42   27   28 1    
    43   28   29 1    
    44   28   60 1    
    45   28   61 1    
    46   29   30 1    
    47   29   31 1    
    48   29   62 1    
    49   30   35 1    
    50   31   32 1    
    51   31   33 1    
    52   31   63 1    
    53   32   64 1    
    54   34   66 1    
    55   33   34 1    
    56   33   35 1    
    57   33   65 1    
    58   35   36 1    
    59   35   67 1    
    60   36   37 1    
    61   36   44 1    
    62   37   38 2    
    63   37   68 1    
    64   38   39 1    
    65   38   42 1    
    66   39   40 2    
    67   39   41 am   
    68   41   69 1    
    69   41   70 1    
    70   42   43 1    
    71   42   71 1    
    72   42   72 1    
    73   43   44 2    
    74   43   73 1    
    75   44   74 1    
    76   45   46 ar   
    77   45   47 ar   
    78   45   48 ar   
@<TRIPOS>SUBSTRUCTURE
     1 NDP602      1 GROUP   
@<TRIPOS>SET
ATOM$ORANGE STATIC     ATOMS   COLORGROUP SYSTEM 
42 5 5 6 6 8 8 10 10 12 12 14 14 16 16 17 17 20 \
20 22 22 28 28 29 29 31 31 33 33 35 35 37 37 38 38 39 \
39 42 42 43 43 44 44 

