#    Name: 6jnu_3_NDP
#    Modification time : Fri May 22 19:35:15 2020

@<TRIPOS>MOLECULE
6jnu_3_NDP
   74    78     1     0     1
SMALL
NO_CHARGES


@<TRIPOS>ATOM
      1 PA         57.1800   35.1680  107.0780 P.3       1 NDP602      0.0000 
      2 O1A        56.7530   35.3610  105.6660 O.co2     1 NDP602      0.0000 
      3 O2A        56.7860   33.9350  107.8400 O.co2     1 NDP602      0.0000 
      4 O5B        56.7710   36.5160  107.9620 O.3       1 NDP602      0.0000 
      5 C5B        57.3700   37.5430  107.2800 C.3       1 NDP602      0.0000 
      6 C4B        56.9740   38.7960  108.0400 C.3       1 NDP602      0.0000 
      7 O4B        57.3940   39.9670  107.3500 O.3       1 NDP602      0.0000 
      8 C3B        55.4690   38.9300  108.2360 C.3       1 NDP602      0.0000 
      9 O3B        55.1730   38.6380  109.5690 O.3       1 NDP602      0.0000 
     10 C2B        55.1150   40.4240  107.9830 C.3       1 NDP602      0.0000 
     11 O2B        54.5870   41.0530  109.0380 O.3       1 NDP602      0.0000 
     12 C1B        56.5020   41.0060  107.7960 C.3       1 NDP602      0.0000 
     13 N9A        56.6020   42.0460  106.7680 N.pl3     1 NDP602      0.0000 
     14 C8A        56.0040   42.0780  105.5070 C.2       1 NDP602      0.0000 
     15 N7A        56.3020   43.1800  104.7960 N.2       1 NDP602      0.0000 
     16 C5A        57.1630   43.8930  105.6690 C.ar      1 NDP602      0.0000 
     17 C6A        57.8300   45.1210  105.5540 C.ar      1 NDP602      0.0000 
     18 N6A        57.6860   45.8680  104.4190 N.pl3     1 NDP602      0.0000 
     19 N1A        58.6190   45.6110  106.5550 N.ar      1 NDP602      0.0000 
     20 C2A        58.6960   44.7980  107.6690 C.ar      1 NDP602      0.0000 
     21 N3A        58.1390   43.6180  107.9460 N.ar      1 NDP602      0.0000 
     22 C4A        57.3550   43.1830  106.8940 C.ar      1 NDP602      0.0000 
     23 O3         58.8210   35.0970  106.8340 O.3       1 NDP602      0.0000 
     24 PN         59.4950   34.4160  108.0740 P.3       1 NDP602      0.0000 
     25 O1N        60.2280   33.2220  107.6160 O.co2     1 NDP602      0.0000 
     26 O2N        58.7540   34.4380  109.3920 O.co2     1 NDP602      0.0000 
     27 O5D        60.8620   35.4830  108.4940 O.3       1 NDP602      0.0000 
     28 C5D        61.6190   35.7940  107.3430 C.3       1 NDP602      0.0000 
     29 C4D        61.8370   37.2890  107.3090 C.3       1 NDP602      0.0000 
     30 O4D        60.7130   37.9800  107.7270 O.3       1 NDP602      0.0000 
     31 C3D        62.8940   37.5180  108.4340 C.3       1 NDP602      0.0000 
     32 O3D        64.1530   37.4290  107.8740 O.3       1 NDP602      0.0000 
     33 C2D        62.5660   38.9400  108.8770 C.3       1 NDP602      0.0000 
     34 O2D        63.4050   39.8990  108.2730 O.3       1 NDP602      0.0000 
     35 C1D        61.1870   39.1550  108.2910 C.3       1 NDP602      0.0000 
     36 N1N        60.2530   39.4300  109.4480 N.pl3     1 NDP602      0.0000 
     37 C2N        60.0310   38.4050  110.3700 C.2       1 NDP602      0.0000 
     38 C3N        59.2580   38.6120  111.4790 C.2       1 NDP602      0.0000 
     39 C7N        59.0710   37.5330  112.4190 C.2       1 NDP602      0.0000 
     40 O7N        58.5500   37.6400  113.5270 O.2       1 NDP602      0.0000 
     41 N7N        59.5210   36.3660  112.0120 N.am      1 NDP602      0.0000 
     42 C4N        58.6010   39.9210  111.7370 C.3       1 NDP602      0.0000 
     43 C5N        58.8760   40.9130  110.6830 C.2       1 NDP602      0.0000 
     44 C6N        59.6520   40.6600  109.6350 C.2       1 NDP602      0.0000 
     45 P2B        52.7180   41.1900  108.9340 P.3       1 NDP602      0.0000 
     46 O1X        52.6240   41.0940  107.4430 O.co2     1 NDP602      0.0000 
     47 O2X        52.4240   42.5480  109.5850 O.co2     1 NDP602      0.0000 
     48 O3X        52.4100   39.9510  109.7270 O.co2     1 NDP602      0.0000 
     49 H51A       58.3330   37.4340  107.2500 H         1 NDP602      0.0000 
     50 H52A       57.0720   37.5770  106.3570 H         1 NDP602      0.0000 
     51 H4B        57.4360   38.7060  108.8880 H         1 NDP602      0.0000 
     52 H3B        54.9800   38.4060  107.5820 H         1 NDP602      0.0000 
     53 HO3A       54.5730   38.0360  109.5440 H         1 NDP602      0.0000 
     54 H2B        54.6200   40.4510  107.1490 H         1 NDP602      0.0000 
     55 H1B        56.7740   41.3770  108.6500 H         1 NDP602      0.0000 
     56 H8A        55.4560   41.3860  105.2160 H         1 NDP602      0.0000 
     57 H61A       57.0700   46.4670  104.3860 H         1 NDP602      0.0000 
     58 H62A       58.2150   45.7290  103.7550 H         1 NDP602      0.0000 
     59 H2A        59.2370   45.1480  108.3390 H         1 NDP602      0.0000 
     60 H51N       61.1790   35.5120  106.5260 H         1 NDP602      0.0000 
     61 H52N       62.4770   35.3410  107.3340 H         1 NDP602      0.0000 
     62 H4D        62.0730   37.6020  106.4220 H         1 NDP602      0.0000 
     63 H3D        62.7790   36.8890  109.1640 H         1 NDP602      0.0000 
     64 HO3N       64.6110   36.9560  108.4110 H         1 NDP602      0.0000 
     65 H2D        62.5630   39.0090  109.8440 H         1 NDP602      0.0000 
     66 HO2N       64.1100   39.4780  108.0530 H         1 NDP602      0.0000 
     67 H1D        61.2100   39.8390  107.6030 H         1 NDP602      0.0000 
     68 H2N        60.4250   37.5790  110.2060 H         1 NDP602      0.0000 
     69 H71N       59.4420   35.6780  112.5220 H         1 NDP602      0.0000 
     70 H72N       59.8920   36.2980  111.2390 H         1 NDP602      0.0000 
     71 H41N       57.6410   39.8060  111.8120 H         1 NDP602      0.0000 
     72 H42N       58.8950   40.2830  112.5880 H         1 NDP602      0.0000 
     73 H5N        58.4850   41.7540  110.7600 H         1 NDP602      0.0000 
     74 H6N        59.8220   41.3010  108.9830 H         1 NDP602      0.0000 
@<TRIPOS>BOND
     1    1    2 ar   
     2    1    3 ar   
     3    1    4 1    
     4    1   23 1    
     5    4    5 1    
     6    5    6 1    
     7    5   49 1    
     8    5   50 1    
     9    6    7 1    
    10    6    8 1    
    11    6   51 1    
    12    7   12 1    
    13    8    9 1    
    14    8   10 1    
    15    8   52 1    
    16    9   53 1    
    17   10   11 1    
    18   10   12 1    
    19   10   54 1    
    20   11   45 1    
    21   12   13 1    
    22   12   55 1    
    23   13   14 1    
    24   13   22 1    
    25   14   15 2    
    26   14   56 1    
    27   15   16 1    
    28   16   17 ar   
    29   16   22 ar   
    30   17   18 1    
    31   17   19 ar   
    32   18   57 1    
    33   18   58 1    
    34   19   20 ar   
    35   20   21 ar   
    36   20   59 1    
    37   21   22 ar   
    38   23   24 1    
    39   24   25 ar   
    40   24   26 ar   
    41   24   27 1    
    42   27   28 1    
    43   28   29 1    
    44   28   60 1    
    45   28   61 1    
    46   29   30 1    
    47   29   31 1    
    48   29   62 1    
    49   30   35 1    
    50   31   32 1    
    51   31   33 1    
    52   31   63 1    
    53   32   64 1    
    54   34   66 1    
    55   33   34 1    
    56   33   35 1    
    57   33   65 1    
    58   35   36 1    
    59   35   67 1    
    60   36   37 1    
    61   36   44 1    
    62   37   38 2    
    63   37   68 1    
    64   38   39 1    
    65   38   42 1    
    66   39   40 2    
    67   39   41 am   
    68   41   69 1    
    69   41   70 1    
    70   42   43 1    
    71   42   71 1    
    72   42   72 1    
    73   43   44 2    
    74   43   73 1    
    75   44   74 1    
    76   45   46 ar   
    77   45   47 ar   
    78   45   48 ar   
@<TRIPOS>SUBSTRUCTURE
     1 NDP602      1 GROUP   
@<TRIPOS>SET
ATOM$ORANGE STATIC     ATOMS   COLORGROUP SYSTEM 
42 5 5 6 6 8 8 10 10 12 12 14 14 16 16 17 17 20 \
20 22 22 28 28 29 29 31 31 33 33 35 35 37 37 38 38 39 \
39 42 42 43 43 44 44 

