#    Name: 6bgo_6_GLY_GLN_TYR_LEU_CAVITY_N1_6
#    Modification time : Fri May 22 19:31:53 2020

@<TRIPOS>MOLECULE
6bgo_6_GLY_GLN_TYR_LEU_CAVITY_N1_6
   25     0     6     0     0
SMALL
NO_CHARGES


@<TRIPOS>ATOM
      1 OG        202.5600  247.3600  263.0500 O.3       1 SER1        0.0000 
      2 N         202.1700  244.5800  257.3400 N.am      2 ALA2        0.0000 
      3 OD1       200.5700  243.2600  256.9000 O.co2     3 ASP3        0.0000 
      4 OD1       199.6400  244.4300  256.7900 O.co2     3 ASP3        0.0000 
      5 CZ        202.6700  243.2600  259.5200 C.ar      4 PHE5        0.0000 
      6 CZ        203.2500  243.8500  260.7700 C.ar      4 PHE5        0.0000 
      7 CZ        203.9200  246.3400  261.0900 C.ar      4 PHE5        0.0000 
      8 CZ        202.9900  247.5100  260.9700 C.ar      4 PHE5        0.0000 
      9 CA        200.4800  241.3500  257.8400 C.3       5 GLY6        0.0000 
     10 CA        199.5500  242.5200  257.7200 C.3       5 GLY6        0.0000 
     11 CA        200.3900  239.4500  258.7700 C.3       5 GLY6        0.0000 
     12 CA        199.4600  240.6200  258.6600 C.3       5 GLY6        0.0000 
     13 CA        200.1300  243.1100  258.9800 C.3       5 GLY6        0.0000 
     14 CA        202.7600  245.1600  258.5900 C.3       5 GLY6        0.0000 
     15 CA        201.7400  244.4300  259.4100 C.3       5 GLY6        0.0000 
     16 CA        203.3400  245.7500  259.8400 C.3       5 GLY6        0.0000 
     17 CA        202.3200  245.0200  260.6600 C.3       5 GLY6        0.0000 
     18 DU        202.0800  242.6700  258.2700 H         6 CUB7        0.0000 
     19 DU        201.1500  243.8400  258.1600 H         6 CUB7        0.0000 
     20 DU        201.0600  241.9400  259.0900 H         6 CUB7        0.0000 
     21 DU        200.0400  241.2100  259.9100 H         6 CUB7        0.0000 
     22 DU        201.6500  242.5300  260.3400 H         6 CUB7        0.0000 
     23 DU        200.6300  241.7900  261.1600 H         6 CUB7        0.0000 
     24 DU        202.2300  243.1100  261.5900 H         6 CUB7        0.0000 
     25 DU        202.9000  245.6000  261.9100 H         6 CUB7        0.0000 
@<TRIPOS>BOND
@<TRIPOS>SUBSTRUCTURE
     1 SER1        1 GROUP   
     2 ALA2        2 GROUP   
     3 ASP3        3 GROUP   
     4 PHE5        5 GROUP   
     5 GLY6        9 GROUP   
     6 CUB7       18 GROUP   
@<TRIPOS>SET

