#    Name: 6bgo_3_GLY_GLN_TYR_LEU_CAVITY_N1_12
#    Modification time : Fri May 22 19:31:35 2020

@<TRIPOS>MOLECULE
6bgo_3_GLY_GLN_TYR_LEU_CAVITY_N1_12
   68     0     7     0     0
SMALL
NO_CHARGES


@<TRIPOS>ATOM
      1 OG        238.5400  211.6700  253.9800 O.3       1 SER1        0.0000 
      2 OG        237.5200  210.9400  254.8000 O.3       1 SER1        0.0000 
      3 OG        236.5900  212.1100  254.6900 O.3       1 SER1        0.0000 
      4 OG        236.1500  211.9700  256.7600 O.3       1 SER1        0.0000 
      5 OG        237.6700  211.3800  258.1300 O.3       1 SER1        0.0000 
      6 OG        236.7400  212.5500  258.0100 O.3       1 SER1        0.0000 
      7 OG        237.5800  209.4800  259.0600 O.3       1 SER1        0.0000 
      8 OG        236.5600  208.7500  259.8800 O.3       1 SER1        0.0000 
      9 OG        237.2300  211.2400  260.2000 O.3       1 SER1        0.0000 
     10 OG        237.1500  209.3300  261.1300 O.3       1 SER1        0.0000 
     11 OG        235.1900  209.7700  261.8400 O.3       1 SER1        0.0000 
     12 OG        236.8000  211.0900  262.2700 O.3       1 SER1        0.0000 
     13 OG        234.8500  211.5300  262.9700 O.3       1 SER1        0.0000 
     14 N         239.5600  212.4100  253.1600 N.am      2 ALA2        0.0000 
     15 N         240.1500  212.9900  254.4100 N.am      2 ALA2        0.0000 
     16 N         239.1300  212.2600  255.2300 N.am      2 ALA2        0.0000 
     17 O         238.1100  211.5300  256.0500 O.2       2 ALA2        0.0000 
     18 N         237.0900  210.8000  256.8700 N.am      2 ALA2        0.0000 
     19 N         239.7100  212.8500  256.4900 N.am      2 ALA2        0.0000 
     20 O         238.6900  212.1200  257.3100 O.2       2 ALA2        0.0000 
     21 N         238.5100  208.3100  259.1700 N.am      2 ALA2        0.0000 
     22 N         237.4900  207.5800  259.9900 N.am      2 ALA2        0.0000 
     23 N         238.0800  208.1600  261.2400 N.am      2 ALA2        0.0000 
     24 OD1       238.6000  210.2100  258.2400 O.co2     3 ASP3        0.0000 
     25 OD1       239.1000  208.9000  260.4200 O.co2     3 ASP3        0.0000 
     26 OD1       238.1700  210.0700  260.3100 O.co2     3 ASP3        0.0000 
     27 NZ        238.7800  214.0200  256.3700 N.4       4 LYS4        0.0000 
     28 NZ        237.7600  213.2900  257.1900 N.4       4 LYS4        0.0000 
     29 NZ        239.2700  212.7000  258.5600 N.4       4 LYS4        0.0000 
     30 NZ        238.3400  213.8700  258.4400 N.4       4 LYS4        0.0000 
     31 CZ        236.4700  206.8400  260.8100 C.ar      5 PHE5        0.0000 
     32 CZ        237.0600  207.4300  262.0600 C.ar      5 PHE5        0.0000 
     33 CZ        236.1200  208.6000  261.9500 C.ar      5 PHE5        0.0000 
     34 CZ        236.0400  206.7000  262.8800 C.ar      5 PHE5        0.0000 
     35 CZ        236.7100  209.1900  263.2000 C.ar      5 PHE5        0.0000 
     36 CZ        235.7800  210.3600  263.0900 C.ar      5 PHE5        0.0000 
     37 CZ        236.6200  207.2900  264.1300 C.ar      5 PHE5        0.0000 
     38 CZ        235.6900  208.4600  264.0200 C.ar      5 PHE5        0.0000 
     39 CZ        234.7600  209.6300  263.9100 C.ar      5 PHE5        0.0000 
     40 CZ        236.2700  209.0400  265.2700 C.ar      5 PHE5        0.0000 
     41 CA        239.4700  210.5000  254.1000 C.3       6 GLY6        0.0000 
     42 CA        238.2500  211.9700  259.3800 C.3       6 GLY6        0.0000 
     43 CA        237.3200  213.1400  259.2600 C.3       6 GLY6        0.0000 
     44 CA        236.9700  205.5300  263.0000 C.3       6 GLY6        0.0000 
     45 CA        238.8400  212.5600  260.6300 C.3       6 GLY6        0.0000 
     46 CA        239.6800  209.4800  261.6700 C.3       6 GLY6        0.0000 
     47 CA        238.7500  210.6500  261.5600 C.3       6 GLY6        0.0000 
     48 CA        237.8200  211.8200  261.4500 C.3       6 GLY6        0.0000 
     49 CA        238.5700  206.8500  263.4300 C.3       6 GLY6        0.0000 
     50 CA        236.4500  212.8500  263.4000 C.3       6 GLY6        0.0000 
     51 CA        236.3600  210.9400  264.3400 C.3       6 GLY6        0.0000 
     52 CA        235.4300  212.1100  264.2200 C.3       6 GLY6        0.0000 
     53 CA        235.3400  210.2100  265.1600 C.3       6 GLY6        0.0000 
     54 CA        237.0300  213.4300  264.6500 C.3       6 GLY6        0.0000 
     55 CA        237.8800  210.3600  265.7000 C.3       6 GLY6        0.0000 
     56 CA        236.9500  211.5300  265.5900 C.3       6 GLY6        0.0000 
     57 CA        236.8600  209.6300  266.5200 C.3       6 GLY6        0.0000 
     58 DU        238.1900  213.4300  255.1200 H         7 CUB7        0.0000 
     59 DU        237.1700  212.7000  255.9400 H         7 CUB7        0.0000 
     60 DU        238.6600  208.7500  262.4900 H         7 CUB7        0.0000 
     61 DU        237.7300  209.9200  262.3800 H         7 CUB7        0.0000 
     62 DU        237.6400  208.0200  263.3100 H         7 CUB7        0.0000 
     63 DU        239.2400  209.3400  263.7500 H         7 CUB7        0.0000 
     64 DU        238.3100  210.5100  263.6300 H         7 CUB7        0.0000 
     65 DU        237.3800  211.6800  263.5200 H         7 CUB7        0.0000 
     66 DU        237.2900  209.7700  264.4500 H         7 CUB7        0.0000 
     67 DU        237.2000  207.8700  265.3900 H         7 CUB7        0.0000 
     68 DU        237.7900  208.4600  266.6400 H         7 CUB7        0.0000 
@<TRIPOS>BOND
@<TRIPOS>SUBSTRUCTURE
     1 SER1        1 GROUP   
     2 ALA2       14 GROUP   
     3 ASP3       24 GROUP   
     4 LYS4       27 GROUP   
     5 PHE5       31 GROUP   
     6 GLY6       41 GROUP   
     7 CUB7       58 GROUP   
@<TRIPOS>SET

