#    Name: 6bgo_6_GLY_GLN_TYR_LEU_CAVITY_N1_ALL
#    Modification time : Fri May 22 19:31:53 2020

@<TRIPOS>MOLECULE
6bgo_6_GLY_GLN_TYR_LEU_CAVITY_N1_ALL
   83     0     7     0     0
SMALL
NO_CHARGES


@<TRIPOS>ATOM
      1 OG        198.9300  237.4000  249.6300 O.3       1 SER1        0.0000 
      2 OG        200.5300  238.7200  250.0600 O.3       1 SER1        0.0000 
      3 OG        199.6000  239.8900  249.9400 O.3       1 SER1        0.0000 
      4 OG        199.5100  237.9800  250.8800 O.3       1 SER1        0.0000 
      5 OG        198.4900  237.2500  251.7000 O.3       1 SER1        0.0000 
      6 OG        201.2000  241.2100  250.3700 O.3       1 SER1        0.0000 
      7 OG        201.1100  239.3000  251.3100 O.3       1 SER1        0.0000 
      8 OG        201.2600  239.7400  254.6300 O.3       1 SER1        0.0000 
      9 OG        200.2400  239.0100  255.4500 O.3       1 SER1        0.0000 
     10 OG        200.8300  239.6000  256.7000 O.3       1 SER1        0.0000 
     11 OG        201.5000  242.0900  257.0200 O.3       1 SER1        0.0000 
     12 OG        201.4100  240.1800  257.9500 O.3       1 SER1        0.0000 
     13 OG        203.0100  241.5000  258.3800 O.3       1 SER1        0.0000 
     14 OG        201.9900  240.7700  259.2000 O.3       1 SER1        0.0000 
     15 OG        203.5800  248.0900  262.2300 O.3       1 SER1        0.0000 
     16 OG        202.5600  247.3600  263.0500 O.3       1 SER1        0.0000 
     17 O         199.0100  239.3000  248.6900 O.2       2 ALA2        0.0000 
     18 N         197.9900  238.5700  249.5100 N.am      2 ALA2        0.0000 
     19 N         198.5800  239.1500  250.7600 N.am      2 ALA2        0.0000 
     20 O         200.1800  240.4700  251.1900 O.2       2 ALA2        0.0000 
     21 N         199.1600  239.7400  252.0100 N.am      2 ALA2        0.0000 
     22 N         198.1400  239.0100  252.8300 N.am      2 ALA2        0.0000 
     23 O         201.7000  239.8900  252.5600 O.2       2 ALA2        0.0000 
     24 O         200.7700  241.0600  252.4500 O.2       2 ALA2        0.0000 
     25 O         199.7500  240.3300  253.2700 O.2       2 ALA2        0.0000 
     26 O         200.3300  240.9100  254.5200 O.2       2 ALA2        0.0000 
     27 N         201.0000  243.4000  254.8300 N.am      2 ALA2        0.0000 
     28 N         202.5200  242.8200  256.2000 N.am      2 ALA2        0.0000 
     29 N         202.1700  244.5800  257.3400 N.am      2 ALA2        0.0000 
     30 N         203.4000  244.2900  264.0900 N.am      2 ALA2        0.0000 
     31 OD1       200.9200  241.5000  255.7700 O.co2     3 ASP3        0.0000 
     32 OD1       200.5700  243.2600  256.9000 O.co2     3 ASP3        0.0000 
     33 OD1       199.6400  244.4300  256.7900 O.co2     3 ASP3        0.0000 
     34 NZ        199.0700  237.8400  252.9500 N.4       4 LYS4        0.0000 
     35 NZ        199.6600  238.4200  254.2000 N.4       4 LYS4        0.0000 
     36 NZ        198.7300  239.5900  254.0900 N.4       4 LYS4        0.0000 
     37 CZ        203.1000  243.4100  257.4500 C.ar      5 PHE5        0.0000 
     38 CZ        203.6900  243.9900  258.7000 C.ar      5 PHE5        0.0000 
     39 CZ        203.6000  242.0900  259.6300 C.ar      5 PHE5        0.0000 
     40 CZ        202.6700  243.2600  259.5200 C.ar      5 PHE5        0.0000 
     41 CZ        202.5800  241.3600  260.4500 C.ar      5 PHE5        0.0000 
     42 CZ        204.2700  244.5800  259.9500 C.ar      5 PHE5        0.0000 
     43 CZ        203.2500  243.8500  260.7700 C.ar      5 PHE5        0.0000 
     44 CZ        203.1600  241.9400  261.7000 C.ar      5 PHE5        0.0000 
     45 CZ        205.8800  245.9000  260.3800 C.ar      5 PHE5        0.0000 
     46 CZ        204.8600  245.1700  261.2000 C.ar      5 PHE5        0.0000 
     47 CZ        203.9200  246.3400  261.0900 C.ar      5 PHE5        0.0000 
     48 CZ        202.9900  247.5100  260.9700 C.ar      5 PHE5        0.0000 
     49 CZ        204.7700  243.2600  262.1400 C.ar      5 PHE5        0.0000 
     50 CZ        203.8400  244.4300  262.0200 C.ar      5 PHE5        0.0000 
     51 CA        197.5600  238.4200  251.5800 C.3       6 GLY6        0.0000 
     52 CA        201.3500  241.6500  253.7000 C.3       6 GLY6        0.0000 
     53 CA        199.3100  240.1800  255.3400 C.3       6 GLY6        0.0000 
     54 CA        201.9400  242.2300  254.9500 C.3       6 GLY6        0.0000 
     55 CA        199.8900  240.7700  256.5900 C.3       6 GLY6        0.0000 
     56 CA        200.4800  241.3500  257.8400 C.3       6 GLY6        0.0000 
     57 CA        199.5500  242.5200  257.7200 C.3       6 GLY6        0.0000 
     58 CA        200.3900  239.4500  258.7700 C.3       6 GLY6        0.0000 
     59 CA        199.4600  240.6200  258.6600 C.3       6 GLY6        0.0000 
     60 CA        200.1300  243.1100  258.9800 C.3       6 GLY6        0.0000 
     61 CA        202.7600  245.1600  258.5900 C.3       6 GLY6        0.0000 
     62 CA        201.7400  244.4300  259.4100 C.3       6 GLY6        0.0000 
     63 CA        201.5600  240.6200  261.2700 C.3       6 GLY6        0.0000 
     64 CA        203.3400  245.7500  259.8400 C.3       6 GLY6        0.0000 
     65 CA        202.3200  245.0200  260.6600 C.3       6 GLY6        0.0000 
     66 CA        202.1400  241.2100  262.5200 C.3       6 GLY6        0.0000 
     67 CA        201.8000  242.9700  263.6600 C.3       6 GLY6        0.0000 
     68 CA        205.4400  245.7500  262.4500 C.3       6 GLY6        0.0000 
     69 CA        204.5100  246.9200  262.3400 C.3       6 GLY6        0.0000 
     70 CA        204.4200  245.0200  263.2700 C.3       6 GLY6        0.0000 
     71 CA        203.4900  246.1900  263.1600 C.3       6 GLY6        0.0000 
     72 CA        203.0500  246.0400  265.2300 C.3       6 GLY6        0.0000 
     73 DU        200.0900  238.5700  252.1300 H         7 CUB7        0.0000 
     74 DU        200.6800  239.1600  253.3800 H         7 CUB7        0.0000 
     75 DU        202.0800  242.6700  258.2700 H         7 CUB7        0.0000 
     76 DU        201.1500  243.8400  258.1600 H         7 CUB7        0.0000 
     77 DU        201.0600  241.9400  259.0900 H         7 CUB7        0.0000 
     78 DU        200.0400  241.2100  259.9100 H         7 CUB7        0.0000 
     79 DU        201.6500  242.5300  260.3400 H         7 CUB7        0.0000 
     80 DU        200.6300  241.7900  261.1600 H         7 CUB7        0.0000 
     81 DU        202.2300  243.1100  261.5900 H         7 CUB7        0.0000 
     82 DU        202.9000  245.6000  261.9100 H         7 CUB7        0.0000 
     83 DU        202.8200  243.7000  262.8400 H         7 CUB7        0.0000 
@<TRIPOS>BOND
@<TRIPOS>SUBSTRUCTURE
     1 SER1        1 GROUP   
     2 ALA2       17 GROUP   
     3 ASP3       31 GROUP   
     4 LYS4       34 GROUP   
     5 PHE5       37 GROUP   
     6 GLY6       51 GROUP   
     7 CUB7       73 GROUP   
@<TRIPOS>SET

