#    Name: 6bgo_5_GLY_GLN_TYR_LEU
#    Modification time : Fri May 22 19:31:43 2020

@<TRIPOS>MOLECULE
6bgo_5_GLY_GLN_TYR_LEU
   34    34     4     0     0
SMALL
NO_CHARGES


@<TRIPOS>ATOM
      1 N         225.1920  251.2090  259.3560 N.4       1 GLY171      0.0000 
      2 CA        225.5010  252.6250  259.4000 C.3       1 GLY171      0.0000 
      3 C         224.9670  253.3740  258.1960 C.2       1 GLY171      0.0000 
      4 O         224.1630  252.8380  257.4330 O.2       1 GLY171      0.0000 
      5 N         225.4080  254.6240  258.0470 N.am      2 GLN172      0.0000 
      6 CA        225.0090  255.4940  256.9400 C.3       2 GLN172      0.0000 
      7 C         223.4970  255.6550  256.8190 C.2       2 GLN172      0.0000 
      8 O         222.9510  255.6460  255.7190 O.2       2 GLN172      0.0000 
      9 CB        225.6310  255.0380  255.6110 C.3       2 GLN172      0.0000 
     10 CG        225.3070  255.9210  254.4200 C.3       2 GLN172      0.0000 
     11 CD        225.6670  257.3730  254.6560 C.2       2 GLN172      0.0000 
     12 OE1       225.6610  257.8510  255.7890 O.2       2 GLN172      0.0000 
     13 NE2       225.9860  258.0830  253.5800 N.am      2 GLN172      0.0000 
     14 N         222.8180  255.7990  257.9510 N.am      3 TYR173      0.0000 
     15 CA        221.3690  255.9650  257.9400 C.3       3 TYR173      0.0000 
     16 C         220.9610  257.2600  257.2490 C.2       3 TYR173      0.0000 
     17 O         221.5880  258.2990  257.4370 O.2       3 TYR173      0.0000 
     18 CB        220.8020  255.9010  259.3580 C.3       3 TYR173      0.0000 
     19 CG        220.5880  254.4870  259.8410 C.ar      3 TYR173      0.0000 
     20 CD1       221.6660  253.6600  260.1140 C.ar      3 TYR173      0.0000 
     21 CD2       219.3130  253.9740  260.0050 C.ar      3 TYR173      0.0000 
     22 CE1       221.4790  252.3630  260.5480 C.ar      3 TYR173      0.0000 
     23 CE2       219.1170  252.6770  260.4370 C.ar      3 TYR173      0.0000 
     24 CZ        220.2050  251.8770  260.7070 C.ar      3 TYR173      0.0000 
     25 OH        220.0160  250.5860  261.1390 O.3       3 TYR173      0.0000 
     26 N         219.8970  257.1850  256.4580 N.am      4 LEU174      0.0000 
     27 CA        219.3990  258.3380  255.7200 C.3       4 LEU174      0.0000 
     28 C         217.9640  258.1110  255.2600 C.2       4 LEU174      0.0000 
     29 O         217.3750  257.0570  255.5070 O.2       4 LEU174      0.0000 
     30 CB        220.2900  258.6130  254.5080 C.3       4 LEU174      0.0000 
     31 CG        221.7350  259.0340  254.7680 C.3       4 LEU174      0.0000 
     32 CD1       222.5000  259.1160  253.4570 C.3       4 LEU174      0.0000 
     33 CD2       221.7880  260.3610  255.5130 C.3       4 LEU174      0.0000 
     34 OXT       217.3590  258.9730  254.6220 O.3       4 LEU174      0.0000 
@<TRIPOS>BOND
     1    1    2 1    
     2    2    3 1    
     3    3    4 2    
     4    3    5 am   
     5    5    6 1    
     6    6    7 1    
     7    6    9 1    
     8    7    8 2    
     9    7   14 am   
    10    9   10 1    
    11   10   11 1    
    12   11   12 2    
    13   11   13 am   
    14   14   15 1    
    15   15   16 1    
    16   15   18 1    
    17   16   17 2    
    18   16   26 am   
    19   18   19 1    
    20   19   20 ar   
    21   19   21 ar   
    22   20   22 ar   
    23   21   23 ar   
    24   22   24 ar   
    25   23   24 ar   
    26   24   25 1    
    27   26   27 1    
    28   27   28 1    
    29   27   30 1    
    30   28   29 2    
    31   28   34 1    
    32   30   31 1    
    33   31   32 1    
    34   31   33 1    
@<TRIPOS>SUBSTRUCTURE
     1 GLY171      1 RESIDUE 
     2 GLN172      5 RESIDUE 
     3 TYR173     14 RESIDUE 
     4 LEU174     26 RESIDUE 
@<TRIPOS>SET

