#    Name: 6bgo_6_GLY_GLN_TYR_LEU_CAVITY_N1_4
#    Modification time : Fri May 22 19:31:53 2020

@<TRIPOS>MOLECULE
6bgo_6_GLY_GLN_TYR_LEU_CAVITY_N1_4
    1     0     1     0     0
SMALL
NO_CHARGES


@<TRIPOS>ATOM
      1 OD1       199.6400  244.4300  256.7900 O.co2     1 ASP3        0.0000 
@<TRIPOS>BOND
@<TRIPOS>SUBSTRUCTURE
     1 ASP3        1 GROUP   
@<TRIPOS>SET

