#    Name: 6bgo_3_GLY_GLN_TYR_LEU
#    Modification time : Fri May 22 19:31:34 2020

@<TRIPOS>MOLECULE
6bgo_3_GLY_GLN_TYR_LEU
   34    34     4     0     0
SMALL
NO_CHARGES


@<TRIPOS>ATOM
      1 N         243.2730  205.8950  263.2520 N.4       1 GLY171      0.0000 
      2 CA        244.5670  205.2620  263.0800 C.3       1 GLY171      0.0000 
      3 C         245.3030  205.7610  261.8530 C.2       1 GLY171      0.0000 
      4 O         244.9090  206.7630  261.2540 O.2       1 GLY171      0.0000 
      5 N         246.3820  205.0660  261.5020 N.am      2 GLN172      0.0000 
      6 CA        247.2120  205.3940  260.3410 C.3       2 GLN172      0.0000 
      7 C         247.7280  206.8300  260.3590 C.2       2 GLN172      0.0000 
      8 O         247.7450  207.5030  259.3320 O.2       2 GLN172      0.0000 
      9 CB        246.4870  205.0780  259.0230 C.3       2 GLN172      0.0000 
     10 CG        247.3030  205.3430  257.7690 C.3       2 GLN172      0.0000 
     11 CD        248.6360  204.6260  257.7790 C.2       2 GLN172      0.0000 
     12 OE1       249.2100  204.3710  258.8350 O.2       2 GLN172      0.0000 
     13 NE2       249.1360  204.2960  256.5950 N.am      2 GLN172      0.0000 
     14 N         248.1460  207.3000  261.5280 N.am      3 TYR173      0.0000 
     15 CA        248.6600  208.6590  261.6490 C.3       3 TYR173      0.0000 
     16 C         249.9420  208.8410  260.8450 C.2       3 TYR173      0.0000 
     17 O         250.8080  207.9710  260.8320 O.2       3 TYR173      0.0000 
     18 CB        248.8790  209.0320  263.1150 C.3       3 TYR173      0.0000 
     19 CG        247.6150  209.5020  263.7940 C.ar      3 TYR173      0.0000 
     20 CD1       246.5800  208.6210  264.0560 C.ar      3 TYR173      0.0000 
     21 CD2       247.4530  210.8280  264.1560 C.ar      3 TYR173      0.0000 
     22 CE1       245.4190  209.0430  264.6680 C.ar      3 TYR173      0.0000 
     23 CE2       246.2940  211.2620  264.7670 C.ar      3 TYR173      0.0000 
     24 CZ        245.2810  210.3650  265.0210 C.ar      3 TYR173      0.0000 
     25 OH        244.1250  210.7910  265.6320 O.3       3 TYR173      0.0000 
     26 N         250.0550  209.9880  260.1860 N.am      4 LEU174      0.0000 
     27 CA        251.2170  210.2980  259.3630 C.3       4 LEU174      0.0000 
     28 C         251.3060  211.7950  259.0890 C.2       4 LEU174      0.0000 
     29 O         250.4600  212.5750  259.5300 O.2       4 LEU174      0.0000 
     30 CB        251.1410  209.5360  258.0380 C.3       4 LEU174      0.0000 
     31 CG        251.2180  208.0110  258.0900 C.3       4 LEU174      0.0000 
     32 CD1       250.9790  207.4300  256.7070 C.3       4 LEU174      0.0000 
     33 CD2       252.5570  207.5540  258.6500 C.3       4 LEU174      0.0000 
     34 OXT       252.2230  212.2630  258.4140 O.3       4 LEU174      0.0000 
@<TRIPOS>BOND
     1    1    2 1    
     2    2    3 1    
     3    3    4 2    
     4    3    5 am   
     5    5    6 1    
     6    6    7 1    
     7    6    9 1    
     8    7    8 2    
     9    7   14 am   
    10    9   10 1    
    11   10   11 1    
    12   11   12 2    
    13   11   13 am   
    14   14   15 1    
    15   15   16 1    
    16   15   18 1    
    17   16   17 2    
    18   16   26 am   
    19   18   19 1    
    20   19   20 ar   
    21   19   21 ar   
    22   20   22 ar   
    23   21   23 ar   
    24   22   24 ar   
    25   23   24 ar   
    26   24   25 1    
    27   26   27 1    
    28   27   28 1    
    29   27   30 1    
    30   28   29 2    
    31   28   34 1    
    32   30   31 1    
    33   31   32 1    
    34   31   33 1    
@<TRIPOS>SUBSTRUCTURE
     1 GLY171      1 RESIDUE 
     2 GLN172      5 RESIDUE 
     3 TYR173     14 RESIDUE 
     4 LEU174     26 RESIDUE 
@<TRIPOS>SET

