#    Name: 6bgo_5_GLY_GLN_TYR_LEU_CAVITY_N1_6
#    Modification time : Fri May 22 19:31:44 2020

@<TRIPOS>MOLECULE
6bgo_5_GLY_GLN_TYR_LEU_CAVITY_N1_6
   33     0     6     0     0
SMALL
NO_CHARGES


@<TRIPOS>ATOM
      1 OG        228.2000  248.5600  263.1000 O.3       1 SER1        0.0000 
      2 N         224.3500  246.7900  256.7300 N.am      2 ALA2        0.0000 
      3 OD1       223.3300  246.0600  257.5500 O.co2     3 ASP3        0.0000 
      4 OD1       224.0000  248.5500  257.8700 O.co2     3 ASP3        0.0000 
      5 CZ        224.8500  245.4800  258.9200 C.ar      4 PHE5        0.0000 
      6 CZ        228.6400  248.7000  261.0300 C.ar      4 PHE5        0.0000 
      7 CZ        227.6200  247.9700  261.8500 C.ar      4 PHE5        0.0000 
      8 CA        221.3800  246.5000  258.2600 C.3       5 GLY6        0.0000 
      9 CA        220.3600  245.7700  259.0800 C.3       5 GLY6        0.0000 
     10 CA        219.4300  246.9400  258.9600 C.3       5 GLY6        0.0000 
     11 CA        219.3400  245.0300  259.9000 C.3       5 GLY6        0.0000 
     12 CA        225.8700  246.2100  258.1000 C.3       5 GLY6        0.0000 
     13 CA        224.9400  247.3800  257.9800 C.3       5 GLY6        0.0000 
     14 CA        221.9600  247.0900  259.5100 C.3       5 GLY6        0.0000 
     15 CA        219.9200  245.6200  261.1500 C.3       5 GLY6        0.0000 
     16 CA        225.5200  247.9700  259.2300 C.3       5 GLY6        0.0000 
     17 CA        225.4300  246.0600  260.1700 C.3       5 GLY6        0.0000 
     18 CA        224.5000  247.2300  260.0500 C.3       5 GLY6        0.0000 
     19 CA        221.4400  245.0400  262.5100 C.3       5 GLY6        0.0000 
     20 CA        220.5100  246.2100  262.4000 C.3       5 GLY6        0.0000 
     21 CA        227.0400  247.3800  260.6000 C.3       5 GLY6        0.0000 
     22 CA        226.1000  248.5500  260.4800 C.3       5 GLY6        0.0000 
     23 CA        226.0200  246.6500  261.4200 C.3       5 GLY6        0.0000 
     24 CA        222.0200  245.6200  263.7600 C.3       5 GLY6        0.0000 
     25 DU        223.9200  246.6500  258.8000 H         6 CUB7        0.0000 
     26 DU        222.9000  245.9200  259.6200 H         6 CUB7        0.0000 
     27 DU        221.8800  245.1800  260.4400 H         6 CUB7        0.0000 
     28 DU        220.9400  246.3500  260.3300 H         6 CUB7        0.0000 
     29 DU        222.4600  245.7700  261.6900 H         6 CUB7        0.0000 
     30 DU        221.5300  246.9400  261.5800 H         6 CUB7        0.0000 
     31 DU        225.0800  247.8200  261.3000 H         6 CUB7        0.0000 
     32 DU        223.0400  246.3600  262.9400 H         6 CUB7        0.0000 
     33 DU        226.6000  247.2400  262.6700 H         6 CUB7        0.0000 
@<TRIPOS>BOND
@<TRIPOS>SUBSTRUCTURE
     1 SER1        1 GROUP   
     2 ALA2        2 GROUP   
     3 ASP3        3 GROUP   
     4 PHE5        5 GROUP   
     5 GLY6        8 GROUP   
     6 CUB7       25 GROUP   
@<TRIPOS>SET

