#    Name: 6bgo_6_GLY_GLN_TYR_LEU_CAVITY_N1_8
#    Modification time : Fri May 22 19:31:53 2020

@<TRIPOS>MOLECULE
6bgo_6_GLY_GLN_TYR_LEU_CAVITY_N1_8
   60     0     7     0     0
SMALL
NO_CHARGES


@<TRIPOS>ATOM
      1 OG        200.2400  239.0100  255.4500 O.3       1 SER1        0.0000 
      2 OG        200.8300  239.6000  256.7000 O.3       1 SER1        0.0000 
      3 OG        201.5000  242.0900  257.0200 O.3       1 SER1        0.0000 
      4 OG        201.4100  240.1800  257.9500 O.3       1 SER1        0.0000 
      5 OG        203.0100  241.5000  258.3800 O.3       1 SER1        0.0000 
      6 OG        201.9900  240.7700  259.2000 O.3       1 SER1        0.0000 
      7 OG        203.5800  248.0900  262.2300 O.3       1 SER1        0.0000 
      8 OG        202.5600  247.3600  263.0500 O.3       1 SER1        0.0000 
      9 O         200.3300  240.9100  254.5200 O.2       2 ALA2        0.0000 
     10 N         201.0000  243.4000  254.8300 N.am      2 ALA2        0.0000 
     11 N         202.5200  242.8200  256.2000 N.am      2 ALA2        0.0000 
     12 N         202.1700  244.5800  257.3400 N.am      2 ALA2        0.0000 
     13 N         203.4000  244.2900  264.0900 N.am      2 ALA2        0.0000 
     14 OD1       200.9200  241.5000  255.7700 O.co2     3 ASP3        0.0000 
     15 OD1       200.5700  243.2600  256.9000 O.co2     3 ASP3        0.0000 
     16 OD1       199.6400  244.4300  256.7900 O.co2     3 ASP3        0.0000 
     17 NZ        198.7300  239.5900  254.0900 N.4       4 LYS4        0.0000 
     18 CZ        203.1000  243.4100  257.4500 C.ar      5 PHE5        0.0000 
     19 CZ        203.6900  243.9900  258.7000 C.ar      5 PHE5        0.0000 
     20 CZ        203.6000  242.0900  259.6300 C.ar      5 PHE5        0.0000 
     21 CZ        202.6700  243.2600  259.5200 C.ar      5 PHE5        0.0000 
     22 CZ        202.5800  241.3600  260.4500 C.ar      5 PHE5        0.0000 
     23 CZ        204.2700  244.5800  259.9500 C.ar      5 PHE5        0.0000 
     24 CZ        203.2500  243.8500  260.7700 C.ar      5 PHE5        0.0000 
     25 CZ        203.1600  241.9400  261.7000 C.ar      5 PHE5        0.0000 
     26 CZ        205.8800  245.9000  260.3800 C.ar      5 PHE5        0.0000 
     27 CZ        204.8600  245.1700  261.2000 C.ar      5 PHE5        0.0000 
     28 CZ        203.9200  246.3400  261.0900 C.ar      5 PHE5        0.0000 
     29 CZ        202.9900  247.5100  260.9700 C.ar      5 PHE5        0.0000 
     30 CZ        204.7700  243.2600  262.1400 C.ar      5 PHE5        0.0000 
     31 CZ        203.8400  244.4300  262.0200 C.ar      5 PHE5        0.0000 
     32 CA        199.3100  240.1800  255.3400 C.3       6 GLY6        0.0000 
     33 CA        201.9400  242.2300  254.9500 C.3       6 GLY6        0.0000 
     34 CA        199.8900  240.7700  256.5900 C.3       6 GLY6        0.0000 
     35 CA        200.4800  241.3500  257.8400 C.3       6 GLY6        0.0000 
     36 CA        199.5500  242.5200  257.7200 C.3       6 GLY6        0.0000 
     37 CA        200.3900  239.4500  258.7700 C.3       6 GLY6        0.0000 
     38 CA        199.4600  240.6200  258.6600 C.3       6 GLY6        0.0000 
     39 CA        200.1300  243.1100  258.9800 C.3       6 GLY6        0.0000 
     40 CA        202.7600  245.1600  258.5900 C.3       6 GLY6        0.0000 
     41 CA        201.7400  244.4300  259.4100 C.3       6 GLY6        0.0000 
     42 CA        201.5600  240.6200  261.2700 C.3       6 GLY6        0.0000 
     43 CA        203.3400  245.7500  259.8400 C.3       6 GLY6        0.0000 
     44 CA        202.3200  245.0200  260.6600 C.3       6 GLY6        0.0000 
     45 CA        202.1400  241.2100  262.5200 C.3       6 GLY6        0.0000 
     46 CA        201.8000  242.9700  263.6600 C.3       6 GLY6        0.0000 
     47 CA        205.4400  245.7500  262.4500 C.3       6 GLY6        0.0000 
     48 CA        204.5100  246.9200  262.3400 C.3       6 GLY6        0.0000 
     49 CA        204.4200  245.0200  263.2700 C.3       6 GLY6        0.0000 
     50 CA        203.4900  246.1900  263.1600 C.3       6 GLY6        0.0000 
     51 CA        203.0500  246.0400  265.2300 C.3       6 GLY6        0.0000 
     52 DU        202.0800  242.6700  258.2700 H         7 CUB7        0.0000 
     53 DU        201.1500  243.8400  258.1600 H         7 CUB7        0.0000 
     54 DU        201.0600  241.9400  259.0900 H         7 CUB7        0.0000 
     55 DU        200.0400  241.2100  259.9100 H         7 CUB7        0.0000 
     56 DU        201.6500  242.5300  260.3400 H         7 CUB7        0.0000 
     57 DU        200.6300  241.7900  261.1600 H         7 CUB7        0.0000 
     58 DU        202.2300  243.1100  261.5900 H         7 CUB7        0.0000 
     59 DU        202.9000  245.6000  261.9100 H         7 CUB7        0.0000 
     60 DU        202.8200  243.7000  262.8400 H         7 CUB7        0.0000 
@<TRIPOS>BOND
@<TRIPOS>SUBSTRUCTURE
     1 SER1        1 GROUP   
     2 ALA2        9 GROUP   
     3 ASP3       14 GROUP   
     4 LYS4       17 GROUP   
     5 PHE5       18 GROUP   
     6 GLY6       32 GROUP   
     7 CUB7       52 GROUP   
@<TRIPOS>SET

