#    Name: 6bgo_5_GLY_GLN_TYR_LEU_CAVITY_N1_8
#    Modification time : Fri May 22 19:31:44 2020

@<TRIPOS>MOLECULE
6bgo_5_GLY_GLN_TYR_LEU_CAVITY_N1_8
   61     0     6     0     0
SMALL
NO_CHARGES


@<TRIPOS>ATOM
      1 OG        223.6800  244.3000  256.4100 O.3       1 SER1        0.0000 
      2 OG        222.7500  245.4700  256.3000 O.3       1 SER1        0.0000 
      3 OG        221.7300  244.7400  257.1200 O.3       1 SER1        0.0000 
      4 OG        220.7100  244.0100  257.9400 O.3       1 SER1        0.0000 
      5 OG        223.2400  244.1600  258.4800 O.3       1 SER1        0.0000 
      6 OG        222.3100  245.3300  258.3700 O.3       1 SER1        0.0000 
      7 OG        222.2200  243.4300  259.3000 O.3       1 SER1        0.0000 
      8 OG        221.2900  244.6000  259.1900 O.3       1 SER1        0.0000 
      9 OG        228.2000  248.5600  263.1000 O.3       1 SER1        0.0000 
     10 N         223.7700  246.2100  255.4800 N.am      2 ALA2        0.0000 
     11 N         224.3500  246.7900  256.7300 N.am      2 ALA2        0.0000 
     12 OD1       221.2300  246.0600  254.9400 O.co2     3 ASP3        0.0000 
     13 OD1       223.3300  246.0600  257.5500 O.co2     3 ASP3        0.0000 
     14 OD1       224.0000  248.5500  257.8700 O.co2     3 ASP3        0.0000 
     15 CZ        224.2600  244.8900  257.6600 C.ar      4 PHE5        0.0000 
     16 CZ        224.8500  245.4800  258.9200 C.ar      4 PHE5        0.0000 
     17 CZ        223.8300  244.7400  259.7400 C.ar      4 PHE5        0.0000 
     18 CZ        222.8100  244.0100  260.5600 C.ar      4 PHE5        0.0000 
     19 CZ        224.4100  245.3300  260.9900 C.ar      4 PHE5        0.0000 
     20 CZ        228.6400  248.7000  261.0300 C.ar      4 PHE5        0.0000 
     21 CZ        227.6200  247.9700  261.8500 C.ar      4 PHE5        0.0000 
     22 CA        223.1800  245.6200  254.2300 C.3       5 GLY6        0.0000 
     23 CA        220.2100  245.3300  255.7600 C.3       5 GLY6        0.0000 
     24 CA        219.1900  244.5900  256.5800 C.3       5 GLY6        0.0000 
     25 CA        220.8000  245.9100  257.0100 C.3       5 GLY6        0.0000 
     26 CA        219.7800  245.1800  257.8300 C.3       5 GLY6        0.0000 
     27 CA        219.6900  243.2800  258.7600 C.3       5 GLY6        0.0000 
     28 CA        221.3800  246.5000  258.2600 C.3       5 GLY6        0.0000 
     29 CA        220.3600  245.7700  259.0800 C.3       5 GLY6        0.0000 
     30 CA        219.4300  246.9400  258.9600 C.3       5 GLY6        0.0000 
     31 CA        220.2700  243.8600  260.0100 C.3       5 GLY6        0.0000 
     32 CA        219.3400  245.0300  259.9000 C.3       5 GLY6        0.0000 
     33 CA        219.2500  243.1300  260.8300 C.3       5 GLY6        0.0000 
     34 CA        225.8700  246.2100  258.1000 C.3       5 GLY6        0.0000 
     35 CA        224.9400  247.3800  257.9800 C.3       5 GLY6        0.0000 
     36 CA        221.9600  247.0900  259.5100 C.3       5 GLY6        0.0000 
     37 CA        221.7900  243.2800  261.3800 C.3       5 GLY6        0.0000 
     38 CA        220.8600  244.4500  261.2600 C.3       5 GLY6        0.0000 
     39 CA        219.9200  245.6200  261.1500 C.3       5 GLY6        0.0000 
     40 CA        225.5200  247.9700  259.2300 C.3       5 GLY6        0.0000 
     41 CA        225.4300  246.0600  260.1700 C.3       5 GLY6        0.0000 
     42 CA        224.5000  247.2300  260.0500 C.3       5 GLY6        0.0000 
     43 CA        222.3700  243.8700  262.6300 C.3       5 GLY6        0.0000 
     44 CA        221.4400  245.0400  262.5100 C.3       5 GLY6        0.0000 
     45 CA        220.5100  246.2100  262.4000 C.3       5 GLY6        0.0000 
     46 CA        227.0400  247.3800  260.6000 C.3       5 GLY6        0.0000 
     47 CA        226.1000  248.5500  260.4800 C.3       5 GLY6        0.0000 
     48 CA        226.0200  246.6500  261.4200 C.3       5 GLY6        0.0000 
     49 CA        223.9800  245.1900  263.0600 C.3       5 GLY6        0.0000 
     50 CA        222.0200  245.6200  263.7600 C.3       5 GLY6        0.0000 
     51 DU        223.9200  246.6500  258.8000 H         6 CUB7        0.0000 
     52 DU        222.9000  245.9200  259.6200 H         6 CUB7        0.0000 
     53 DU        221.8800  245.1800  260.4400 H         6 CUB7        0.0000 
     54 DU        220.9400  246.3500  260.3300 H         6 CUB7        0.0000 
     55 DU        223.3900  244.6000  261.8100 H         6 CUB7        0.0000 
     56 DU        222.4600  245.7700  261.6900 H         6 CUB7        0.0000 
     57 DU        221.5300  246.9400  261.5800 H         6 CUB7        0.0000 
     58 DU        225.0800  247.8200  261.3000 H         6 CUB7        0.0000 
     59 DU        225.0000  245.9200  262.2400 H         6 CUB7        0.0000 
     60 DU        223.0400  246.3600  262.9400 H         6 CUB7        0.0000 
     61 DU        226.6000  247.2400  262.6700 H         6 CUB7        0.0000 
@<TRIPOS>BOND
@<TRIPOS>SUBSTRUCTURE
     1 SER1        1 GROUP   
     2 ALA2       10 GROUP   
     3 ASP3       12 GROUP   
     4 PHE5       15 GROUP   
     5 GLY6       22 GROUP   
     6 CUB7       51 GROUP   
@<TRIPOS>SET

