#    Name: 6bgo_3_GLY_GLN_TYR_LEU_CAVITY_N1_8
#    Modification time : Fri May 22 19:31:35 2020

@<TRIPOS>MOLECULE
6bgo_3_GLY_GLN_TYR_LEU_CAVITY_N1_8
   35     0     6     0     0
SMALL
NO_CHARGES


@<TRIPOS>ATOM
      1 OG        237.5800  209.4800  259.0600 O.3       1 SER1        0.0000 
      2 OG        237.1500  209.3300  261.1300 O.3       1 SER1        0.0000 
      3 N         238.5100  208.3100  259.1700 N.am      2 ALA2        0.0000 
      4 N         237.4900  207.5800  259.9900 N.am      2 ALA2        0.0000 
      5 N         238.0800  208.1600  261.2400 N.am      2 ALA2        0.0000 
      6 OD1       238.6000  210.2100  258.2400 O.co2     3 ASP3        0.0000 
      7 OD1       239.1000  208.9000  260.4200 O.co2     3 ASP3        0.0000 
      8 OD1       238.1700  210.0700  260.3100 O.co2     3 ASP3        0.0000 
      9 CZ        236.4700  206.8400  260.8100 C.ar      4 PHE5        0.0000 
     10 CZ        237.0600  207.4300  262.0600 C.ar      4 PHE5        0.0000 
     11 CZ        236.1200  208.6000  261.9500 C.ar      4 PHE5        0.0000 
     12 CZ        236.0400  206.7000  262.8800 C.ar      4 PHE5        0.0000 
     13 CZ        236.7100  209.1900  263.2000 C.ar      4 PHE5        0.0000 
     14 CZ        236.6200  207.2900  264.1300 C.ar      4 PHE5        0.0000 
     15 CZ        236.2700  209.0400  265.2700 C.ar      4 PHE5        0.0000 
     16 CA        236.9700  205.5300  263.0000 C.3       5 GLY6        0.0000 
     17 CA        238.8400  212.5600  260.6300 C.3       5 GLY6        0.0000 
     18 CA        239.6800  209.4800  261.6700 C.3       5 GLY6        0.0000 
     19 CA        238.7500  210.6500  261.5600 C.3       5 GLY6        0.0000 
     20 CA        237.8200  211.8200  261.4500 C.3       5 GLY6        0.0000 
     21 CA        238.5700  206.8500  263.4300 C.3       5 GLY6        0.0000 
     22 CA        236.3600  210.9400  264.3400 C.3       5 GLY6        0.0000 
     23 CA        237.0300  213.4300  264.6500 C.3       5 GLY6        0.0000 
     24 CA        237.8800  210.3600  265.7000 C.3       5 GLY6        0.0000 
     25 CA        236.9500  211.5300  265.5900 C.3       5 GLY6        0.0000 
     26 CA        236.8600  209.6300  266.5200 C.3       5 GLY6        0.0000 
     27 DU        238.6600  208.7500  262.4900 H         6 CUB7        0.0000 
     28 DU        237.7300  209.9200  262.3800 H         6 CUB7        0.0000 
     29 DU        237.6400  208.0200  263.3100 H         6 CUB7        0.0000 
     30 DU        239.2400  209.3400  263.7500 H         6 CUB7        0.0000 
     31 DU        238.3100  210.5100  263.6300 H         6 CUB7        0.0000 
     32 DU        237.3800  211.6800  263.5200 H         6 CUB7        0.0000 
     33 DU        237.2900  209.7700  264.4500 H         6 CUB7        0.0000 
     34 DU        237.2000  207.8700  265.3900 H         6 CUB7        0.0000 
     35 DU        237.7900  208.4600  266.6400 H         6 CUB7        0.0000 
@<TRIPOS>BOND
@<TRIPOS>SUBSTRUCTURE
     1 SER1        1 GROUP   
     2 ALA2        3 GROUP   
     3 ASP3        6 GROUP   
     4 PHE5        9 GROUP   
     5 GLY6       16 GROUP   
     6 CUB7       27 GROUP   
@<TRIPOS>SET

