#    Name: 6bgo_1_GLY_GLN_TYR_LEU
#    Modification time : Fri May 22 19:31:25 2020

@<TRIPOS>MOLECULE
6bgo_1_GLY_GLN_TYR_LEU
   34    34     4     0     0
SMALL
NO_CHARGES


@<TRIPOS>ATOM
      1 N         193.0580  199.4490  264.0250 N.4       1 GLY171      0.0000 
      2 CA        192.1650  198.3330  263.7810 C.3       1 GLY171      0.0000 
      3 C         192.5220  197.5620  262.5270 C.2       1 GLY171      0.0000 
      4 O         193.6000  197.7560  261.9620 O.2       1 GLY171      0.0000 
      5 N         191.6190  196.6760  262.1120 N.am      2 GLN172      0.0000 
      6 CA        191.7870  195.8490  260.9170 C.3       2 GLN172      0.0000 
      7 C         193.0780  195.0320  260.9300 C.2       2 GLN172      0.0000 
      8 O         193.7560  194.9160  259.9120 O.2       2 GLN172      0.0000 
      9 CB        191.6690  196.6830  259.6320 C.3       2 GLN172      0.0000 
     10 CG        191.7810  195.8880  258.3430 C.3       2 GLN172      0.0000 
     11 CD        190.7920  194.7430  258.2770 C.2       2 GLN172      0.0000 
     12 OE1       190.3930  194.1900  259.2990 O.2       2 GLN172      0.0000 
     13 NE2       190.3920  194.3800  257.0640 N.am      2 GLN172      0.0000 
     14 N         193.4170  194.4710  262.0840 N.am      3 TYR173      0.0000 
     15 CA        194.6290  193.6680  262.1960 C.3       3 TYR173      0.0000 
     16 C         194.5490  192.4150  261.3340 C.2       3 TYR173      0.0000 
     17 O         193.5140  191.7610  261.2640 O.2       3 TYR173      0.0000 
     18 CB        194.9100  193.3070  263.6550 C.3       3 TYR173      0.0000 
     19 CG        195.6260  194.4060  264.4030 C.ar      3 TYR173      0.0000 
     20 CD1       194.9840  195.5960  264.7030 C.ar      3 TYR173      0.0000 
     21 CD2       196.9480  194.2610  264.7910 C.ar      3 TYR173      0.0000 
     22 CE1       195.6320  196.6100  265.3780 C.ar      3 TYR173      0.0000 
     23 CE2       197.6060  195.2700  265.4650 C.ar      3 TYR173      0.0000 
     24 CZ        196.9440  196.4420  265.7550 C.ar      3 TYR173      0.0000 
     25 OH        197.5950  197.4480  266.4300 O.3       3 TYR173      0.0000 
     26 N         195.6610  192.0870  260.6840 N.am      4 LEU174      0.0000 
     27 CA        195.7320  190.9230  259.8100 C.3       4 LEU174      0.0000 
     28 C         197.1800  190.5230  259.5540 C.2       4 LEU174      0.0000 
     29 O         198.1140  191.1600  260.0460 O.2       4 LEU174      0.0000 
     30 CB        195.0380  191.2220  258.4820 C.3       4 LEU174      0.0000 
     31 CG        193.5320  191.4760  258.5080 C.3       4 LEU174      0.0000 
     32 CD1       193.0480  191.8970  257.1300 C.3       4 LEU174      0.0000 
     33 CD2       192.7810  190.2450  258.9940 C.3       4 LEU174      0.0000 
     34 OXT       197.4540  189.5570  258.8400 O.3       4 LEU174      0.0000 
@<TRIPOS>BOND
     1    1    2 1    
     2    2    3 1    
     3    3    4 2    
     4    3    5 am   
     5    5    6 1    
     6    6    7 1    
     7    6    9 1    
     8    7    8 2    
     9    7   14 am   
    10    9   10 1    
    11   10   11 1    
    12   11   12 2    
    13   11   13 am   
    14   14   15 1    
    15   15   16 1    
    16   15   18 1    
    17   16   17 2    
    18   16   26 am   
    19   18   19 1    
    20   19   20 ar   
    21   19   21 ar   
    22   20   22 ar   
    23   21   23 ar   
    24   22   24 ar   
    25   23   24 ar   
    26   24   25 1    
    27   26   27 1    
    28   27   28 1    
    29   27   30 1    
    30   28   29 2    
    31   28   34 1    
    32   30   31 1    
    33   31   32 1    
    34   31   33 1    
@<TRIPOS>SUBSTRUCTURE
     1 GLY171      1 RESIDUE 
     2 GLN172      5 RESIDUE 
     3 TYR173     14 RESIDUE 
     4 LEU174     26 RESIDUE 
@<TRIPOS>SET

