#    Name: 6bgo_5_GLY_GLN_TYR_LEU_CAVITY_N1_4
#    Modification time : Fri May 22 19:31:44 2020

@<TRIPOS>MOLECULE
6bgo_5_GLY_GLN_TYR_LEU_CAVITY_N1_4
    5     0     3     0     0
SMALL
NO_CHARGES


@<TRIPOS>ATOM
      1 OD1       224.0000  248.5500  257.8700 O.co2     1 ASP3        0.0000 
      2 CA        225.5200  247.9700  259.2300 C.3       2 GLY6        0.0000 
      3 CA        226.1000  248.5500  260.4800 C.3       2 GLY6        0.0000 
      4 DU        221.5300  246.9400  261.5800 H         3 CUB7        0.0000 
      5 DU        225.0800  247.8200  261.3000 H         3 CUB7        0.0000 
@<TRIPOS>BOND
@<TRIPOS>SUBSTRUCTURE
     1 ASP3        1 GROUP   
     2 GLY6        2 GROUP   
     3 CUB7        4 GROUP   
@<TRIPOS>SET

