#    Name: 6bgo_6_GLY_GLN_TYR_LEU
#    Modification time : Fri May 22 19:31:52 2020

@<TRIPOS>MOLECULE
6bgo_6_GLY_GLN_TYR_LEU
   34    34     4     0     0
SMALL
NO_CHARGES


@<TRIPOS>ATOM
      1 N         198.2800  246.9090  259.4090 N.4       1 GLY171      0.0000 
      2 CA        197.3380  248.0100  259.4700 C.3       1 GLY171      0.0000 
      3 C         196.5230  248.1490  258.2010 C.2       1 GLY171      0.0000 
      4 O         196.5250  247.2530  257.3550 O.2       1 GLY171      0.0000 
      5 N         195.8090  249.2680  258.0900 N.am      2 GLN172      0.0000 
      6 CA        194.9680  249.5800  256.9330 C.3       2 GLN172      0.0000 
      7 C         193.9390  248.4950  256.6310 C.2       2 GLN172      0.0000 
      8 O         193.7100  248.1550  255.4730 O.2       2 GLN172      0.0000 
      9 CB        195.8160  249.9070  255.6920 C.3       2 GLN172      0.0000 
     10 CG        195.0170  250.2930  254.4600 C.3       2 GLN172      0.0000 
     11 CD        194.0630  251.4390  254.7170 C.2       2 GLN172      0.0000 
     12 OE1       193.5860  251.6270  255.8350 O.2       2 GLN172      0.0000 
     13 NE2       193.7800  252.2150  253.6790 N.am      2 GLN172      0.0000 
     14 N         193.3230  247.9500  257.6720 N.am      3 TYR173      0.0000 
     15 CA        192.3200  246.9070  257.4850 C.3       3 TYR173      0.0000 
     16 C         191.1030  247.4330  256.7340 C.2       3 TYR173      0.0000 
     17 O         190.6400  248.5440  256.9810 O.2       3 TYR173      0.0000 
     18 CB        191.9110  246.2990  258.8270 C.3       3 TYR173      0.0000 
     19 CG        192.8650  245.2280  259.2990 C.ar      3 TYR173      0.0000 
     20 CD1       194.1480  245.5530  259.7090 C.ar      3 TYR173      0.0000 
     21 CD2       192.4890  243.8960  259.3180 C.ar      3 TYR173      0.0000 
     22 CE1       195.0290  244.5800  260.1350 C.ar      3 TYR173      0.0000 
     23 CE2       193.3650  242.9150  259.7400 C.ar      3 TYR173      0.0000 
     24 CZ        194.6320  243.2640  260.1480 C.ar      3 TYR173      0.0000 
     25 OH        195.5070  242.2920  260.5710 O.3       3 TYR173      0.0000 
     26 N         190.5860  246.6180  255.8230 N.am      4 LEU174      0.0000 
     27 CA        189.4320  246.9890  255.0160 C.3       4 LEU174      0.0000 
     28 C         188.7840  245.7580  254.3910 C.2       4 LEU174      0.0000 
     29 O         189.2460  244.6310  254.5810 O.2       4 LEU174      0.0000 
     30 CB        189.8520  247.9640  253.9150 C.3       4 LEU174      0.0000 
     31 CG        190.3650  249.3380  254.3400 C.3       4 LEU174      0.0000 
     32 CD1       190.8700  250.1050  253.1280 C.3       4 LEU174      0.0000 
     33 CD2       189.2830  250.1210  255.0690 C.3       4 LEU174      0.0000 
     34 OXT       187.7880  245.8590  253.6760 O.3       4 LEU174      0.0000 
@<TRIPOS>BOND
     1    1    2 1    
     2    2    3 1    
     3    3    4 2    
     4    3    5 am   
     5    5    6 1    
     6    6    7 1    
     7    6    9 1    
     8    7    8 2    
     9    7   14 am   
    10    9   10 1    
    11   10   11 1    
    12   11   12 2    
    13   11   13 am   
    14   14   15 1    
    15   15   16 1    
    16   15   18 1    
    17   16   17 2    
    18   16   26 am   
    19   18   19 1    
    20   19   20 ar   
    21   19   21 ar   
    22   20   22 ar   
    23   21   23 ar   
    24   22   24 ar   
    25   23   24 ar   
    26   24   25 1    
    27   26   27 1    
    28   27   28 1    
    29   27   30 1    
    30   28   29 2    
    31   28   34 1    
    32   30   31 1    
    33   31   32 1    
    34   31   33 1    
@<TRIPOS>SUBSTRUCTURE
     1 GLY171      1 RESIDUE 
     2 GLN172      5 RESIDUE 
     3 TYR173     14 RESIDUE 
     4 LEU174     26 RESIDUE 
@<TRIPOS>SET

