#    Name: 6qhe_3_NAD_CAVITY_N1_4
#    Modification time : Fri May 22 19:31:48 2020

@<TRIPOS>MOLECULE
6qhe_3_NAD_CAVITY_N1_4
   58     0     6     0     0
SMALL
NO_CHARGES


@<TRIPOS>ATOM
      1 OG         27.6900   32.7400  332.5200 O.3       1 SER1        0.0000 
      2 OG         26.8700   31.8000  333.3600 O.3       1 SER1        0.0000 
      3 OG         28.3300   33.2800  333.7600 O.3       1 SER1        0.0000 
      4 OG         27.5100   32.3400  334.6000 O.3       1 SER1        0.0000 
      5 OG         28.8400   29.3300  335.2200 O.3       1 SER1        0.0000 
      6 OG         27.7700   30.3700  335.3300 O.3       1 SER1        0.0000 
      7 OG         26.6900   31.4100  335.4300 O.3       1 SER1        0.0000 
      8 OG         28.1600   32.8900  335.8400 O.3       1 SER1        0.0000 
      9 OG         29.4900   29.8700  336.4600 O.3       1 SER1        0.0000 
     10 OG         28.4100   30.9100  336.5700 O.3       1 SER1        0.0000 
     11 OG         26.9000   33.5300  338.0200 O.3       1 SER1        0.0000 
     12 N          26.6100   33.7800  332.6300 N.am      2 ALA2        0.0000 
     13 N          25.5300   34.8200  332.7300 N.am      2 ALA2        0.0000 
     14 N          27.1200   29.8300  334.0900 N.am      2 ALA2        0.0000 
     15 N          26.0500   30.8700  334.1900 N.am      2 ALA2        0.0000 
     16 N          26.4300   33.3800  334.7000 N.am      2 ALA2        0.0000 
     17 N          25.3600   34.4200  334.8100 N.am      2 ALA2        0.0000 
     18 N          25.6100   32.4500  335.5400 N.am      2 ALA2        0.0000 
     19 N          28.0200   28.3900  336.0600 N.am      2 ALA2        0.0000 
     20 N          25.1800   34.0300  336.8900 N.am      2 ALA2        0.0000 
     21 N          30.3900   28.4400  338.4300 N.am      2 ALA2        0.0000 
     22 N          29.3100   29.4800  338.5400 N.am      2 ALA2        0.0000 
     23 N          28.4900   28.5400  339.3700 N.am      2 ALA2        0.0000 
     24 N          28.0600   30.1200  340.7200 N.am      2 ALA2        0.0000 
     25 N          29.7800   29.6200  341.8600 N.am      2 ALA2        0.0000 
     26 N          28.7000   30.6600  341.9600 N.am      2 ALA2        0.0000 
     27 OD1        29.7400   27.9000  337.1900 O.co2     3 ASP3        0.0000 
     28 OD1        28.6700   28.9300  337.3000 O.co2     3 ASP3        0.0000 
     29 CZ         27.8400   28.0000  338.1300 C.ar      4 PHE5        0.0000 
     30 CA         27.0000   36.3000  333.1400 C.3       5 GLY6        0.0000 
     31 CA         26.1800   35.3600  333.9800 C.3       5 GLY6        0.0000 
     32 CA         26.9400   29.4300  336.1600 C.3       5 GLY6        0.0000 
     33 CA         25.8700   30.4700  336.2700 C.3       5 GLY6        0.0000 
     34 CA         27.0800   33.9200  335.9500 C.3       5 GLY6        0.0000 
     35 CA         26.0000   34.9600  336.0500 C.3       5 GLY6        0.0000 
     36 CA         27.3300   31.9500  336.6800 C.3       5 GLY6        0.0000 
     37 CA         26.2600   32.9900  336.7800 C.3       5 GLY6        0.0000 
     38 CA         27.5900   29.9700  337.4000 C.3       5 GLY6        0.0000 
     39 CA         27.7200   34.4700  337.1900 C.3       5 GLY6        0.0000 
     40 CA         30.1300   30.4100  337.7100 C.3       5 GLY6        0.0000 
     41 CA         29.0500   31.4500  337.8100 C.3       5 GLY6        0.0000 
     42 CA         27.9800   32.4900  337.9200 C.3       5 GLY6        0.0000 
     43 CA         28.2300   30.5100  338.6500 C.3       5 GLY6        0.0000 
     44 CA         27.1600   31.5500  338.7500 C.3       5 GLY6        0.0000 
     45 CA         27.4100   29.5800  339.4800 C.3       5 GLY6        0.0000 
     46 CA         29.9500   30.0200  339.7800 C.3       5 GLY6        0.0000 
     47 CA         28.8800   31.0600  339.8900 C.3       5 GLY6        0.0000 
     48 CA         27.8000   32.0900  339.9900 C.3       5 GLY6        0.0000 
     49 CA         26.9800   31.1600  340.8300 C.3       5 GLY6        0.0000 
     50 CA         30.6000   30.5600  341.0200 C.3       5 GLY6        0.0000 
     51 CA         29.5200   31.6000  341.1300 C.3       5 GLY6        0.0000 
     52 CA         28.4400   32.6400  341.2400 C.3       5 GLY6        0.0000 
     53 CA         27.6200   31.7000  342.0700 C.3       5 GLY6        0.0000 
     54 CA         30.1700   32.1400  342.3700 C.3       5 GLY6        0.0000 
     55 CA         29.0900   33.1800  342.4800 C.3       5 GLY6        0.0000 
     56 CA         28.2700   32.2400  343.3100 C.3       5 GLY6        0.0000 
     57 DU         27.2600   34.3200  333.8700 H         6 CUB7        0.0000 
     58 DU         29.3400   31.2000  343.2100 H         6 CUB7        0.0000 
@<TRIPOS>BOND
@<TRIPOS>SUBSTRUCTURE
     1 SER1        1 GROUP   
     2 ALA2       12 GROUP   
     3 ASP3       27 GROUP   
     4 PHE5       29 GROUP   
     5 GLY6       30 GROUP   
     6 CUB7       57 GROUP   
@<TRIPOS>SET

