#    Name: 6qhe_1_NAD
#    Modification time : Fri May 22 19:31:36 2020

@<TRIPOS>MOLECULE
6qhe_1_NAD
   44    48     1     0     1
SMALL
NO_CHARGES


@<TRIPOS>ATOM
      1 PA         48.9540   12.7970  314.6740 P.3       1 NAD301      0.0000 
      2 O1A        49.4630   12.3630  316.0350 O.co2     1 NAD301      0.0000 
      3 O2A        48.8410   11.7640  313.5750 O.co2     1 NAD301      0.0000 
      4 O5B        49.7180   14.1150  314.1970 O.3       1 NAD301      0.0000 
      5 C5B        49.9190   15.0770  315.3090 C.3       1 NAD301      0.0000 
      6 C4B        51.0680   15.9920  314.9830 C.3       1 NAD301      0.0000 
      7 O4B        51.1380   16.9660  316.0500 O.3       1 NAD301      0.0000 
      8 C3B        52.4690   15.3290  314.8800 C.3       1 NAD301      0.0000 
      9 O3B        53.1630   15.7780  313.7140 O.3       1 NAD301      0.0000 
     10 C2B        53.1290   15.7180  316.2160 C.3       1 NAD301      0.0000 
     11 O2B        54.5530   15.7720  316.2320 O.3       1 NAD301      0.0000 
     12 C1B        52.4980   17.1030  316.4160 C.3       1 NAD301      0.0000 
     13 N9A        52.6060   17.5790  317.7820 N.pl3     1 NAD301      0.0000 
     14 C8A        52.2210   16.8840  318.9170 C.2       1 NAD301      0.0000 
     15 N7A        52.5290   17.5120  320.0280 N.2       1 NAD301      0.0000 
     16 C5A        53.1520   18.7010  319.6100 C.ar      1 NAD301      0.0000 
     17 C6A        53.7220   19.7890  320.3220 C.ar      1 NAD301      0.0000 
     18 N6A        53.7900   19.8380  321.6550 N.pl3     1 NAD301      0.0000 
     19 N1A        54.3480   20.7710  319.5960 N.ar      1 NAD301      0.0000 
     20 C2A        54.2820   20.7120  318.2450 C.ar      1 NAD301      0.0000 
     21 N3A        53.7550   19.7620  317.4560 N.ar      1 NAD301      0.0000 
     22 C4A        53.2280   18.7490  318.2120 C.ar      1 NAD301      0.0000 
     23 O3         47.4740   13.4210  314.9630 O.3       1 NAD301      0.0000 
     24 PN         46.2370   13.7010  313.9670 P.3       1 NAD301      0.0000 
     25 O1N        45.4420   12.4090  314.0150 O.co2     1 NAD301      0.0000 
     26 O2N        46.7070   14.3420  312.7360 O.co2     1 NAD301      0.0000 
     27 O5D        45.4610   14.7440  314.9810 O.3       1 NAD301      0.0000 
     28 C5D        45.3600   16.1530  314.6780 C.3       1 NAD301      0.0000 
     29 C4D        44.2980   16.7790  315.5550 C.3       1 NAD301      0.0000 
     30 O4D        42.9850   16.2020  315.2810 O.3       1 NAD301      0.0000 
     31 C3D        44.5330   16.5980  317.0570 C.3       1 NAD301      0.0000 
     32 O3D        44.1770   17.8030  317.7160 O.3       1 NAD301      0.0000 
     33 C2D        43.6310   15.4110  317.3710 C.3       1 NAD301      0.0000 
     34 O2D        43.3550   15.3650  318.7490 O.3       1 NAD301      0.0000 
     35 C1D        42.4080   15.7410  316.4980 C.3       1 NAD301      0.0000 
     36 N1N        41.5300   14.5520  316.2350 N.pl3     1 NAD301      0.0000 
     37 C2N        42.0460   13.3390  315.7470 C.ar      1 NAD301      0.0000 
     38 C3N        41.1500   12.3250  315.3650 C.ar      1 NAD301      0.0000 
     39 C7N        41.6020   11.1180  314.5830 C.2       1 NAD301      0.0000 
     40 O7N        40.7810   10.2100  314.3610 O.2       1 NAD301      0.0000 
     41 N7N        42.8840   11.0690  314.2370 N.am      1 NAD301      0.0000 
     42 C4N        39.8190   12.4070  315.7840 C.ar      1 NAD301      0.0000 
     43 C5N        39.3920   13.5110  316.4620 C.ar      1 NAD301      0.0000 
     44 C6N        40.1970   14.6290  316.4770 C.ar      1 NAD301      0.0000 
@<TRIPOS>BOND
     1    1    2 ar   
     2    1    3 ar   
     3    1    4 1    
     4    1   23 1    
     5    4    5 1    
     6    5    6 1    
     7    6    7 1    
     8    6    8 1    
     9    7   12 1    
    10    8    9 1    
    11    8   10 1    
    12   10   11 1    
    13   10   12 1    
    14   12   13 1    
    15   13   14 1    
    16   13   22 1    
    17   14   15 2    
    18   15   16 1    
    19   16   17 ar   
    20   16   22 ar   
    21   17   18 1    
    22   17   19 ar   
    23   19   20 ar   
    24   20   21 ar   
    25   21   22 ar   
    26   23   24 1    
    27   24   25 ar   
    28   24   26 ar   
    29   24   27 1    
    30   27   28 1    
    31   28   29 1    
    32   29   30 1    
    33   29   31 1    
    34   30   35 1    
    35   31   32 1    
    36   31   33 1    
    37   33   34 1    
    38   33   35 1    
    39   35   36 1    
    40   36   37 ar   
    41   36   44 ar   
    42   37   38 ar   
    43   38   39 1    
    44   38   42 ar   
    45   39   40 2    
    46   39   41 am   
    47   42   43 ar   
    48   43   44 ar   
@<TRIPOS>SUBSTRUCTURE
     1 NAD301      1 GROUP   
@<TRIPOS>SET
ATOM$ORANGE STATIC     ATOMS   COLORGROUP SYSTEM 
42 5 5 6 6 8 8 10 10 12 12 14 14 16 16 17 17 20 \
20 22 22 28 28 29 29 31 31 33 33 35 35 37 37 38 38 39 \
39 42 42 43 43 44 44 

