#    Name: 6qhe_4_NAD
#    Modification time : Fri May 22 19:31:50 2020

@<TRIPOS>MOLECULE
6qhe_4_NAD
   44    48     1     0     1
SMALL
NO_CHARGES


@<TRIPOS>ATOM
      1 PA          2.0970    4.9030  321.6310 P.3       1 NAD301      0.0000 
      2 O1A         1.6660    4.6270  320.2120 O.co2     1 NAD301      0.0000 
      3 O2A         2.5810    3.7640  322.4750 O.co2     1 NAD301      0.0000 
      4 O5B         0.8770    5.7320  322.3200 O.3       1 NAD301      0.0000 
      5 C5B         0.5030    6.8390  321.4750 C.3       1 NAD301      0.0000 
      6 C4B        -0.8640    7.3540  321.8540 C.3       1 NAD301      0.0000 
      7 O4B        -1.1840    8.4250  320.9440 O.3       1 NAD301      0.0000 
      8 C3B        -2.0460    6.3490  321.7950 C.3       1 NAD301      0.0000 
      9 O3B        -2.7470    6.4400  323.0370 O.3       1 NAD301      0.0000 
     10 C2B        -2.7970    6.7710  320.5190 C.3       1 NAD301      0.0000 
     11 O2B        -4.1690    6.4030  320.3750 O.3       1 NAD301      0.0000 
     12 C1B        -2.5570    8.2820  320.6020 C.3       1 NAD301      0.0000 
     13 N9A        -2.8490    8.9470  319.3580 N.pl3     1 NAD301      0.0000 
     14 C8A        -2.3160    8.5940  318.1370 C.2       1 NAD301      0.0000 
     15 N7A        -2.8440    9.2590  317.1400 N.2       1 NAD301      0.0000 
     16 C5A        -3.7420   10.1490  317.7320 C.ar      1 NAD301      0.0000 
     17 C6A        -4.6000   11.1320  317.1910 C.ar      1 NAD301      0.0000 
     18 N6A        -4.7730   11.3330  315.8810 N.pl3     1 NAD301      0.0000 
     19 N1A        -5.4460   11.7750  318.0640 N.ar      1 NAD301      0.0000 
     20 C2A        -5.2910   11.5500  319.3860 C.ar      1 NAD301      0.0000 
     21 N3A        -4.5160   10.6790  320.0120 N.ar      1 NAD301      0.0000 
     22 C4A        -3.7740    9.9600  319.1150 C.ar      1 NAD301      0.0000 
     23 O3          3.2220    6.0670  321.6360 O.3       1 NAD301      0.0000 
     24 PN          4.2980    6.4860  322.7490 P.3       1 NAD301      0.0000 
     25 O1N         5.4150    5.5060  322.5310 O.co2     1 NAD301      0.0000 
     26 O2N         3.7580    6.6900  324.0610 O.co2     1 NAD301      0.0000 
     27 O5D         4.8480    7.8600  322.0570 O.3       1 NAD301      0.0000 
     28 C5D         4.5190    9.2160  322.4630 C.3       1 NAD301      0.0000 
     29 C4D         5.3280   10.2220  321.6710 C.3       1 NAD301      0.0000 
     30 O4D         6.7720   10.0690  321.8620 O.3       1 NAD301      0.0000 
     31 C3D         5.1260   10.1570  320.1580 C.3       1 NAD301      0.0000 
     32 O3D         5.2740   11.4810  319.7200 O.3       1 NAD301      0.0000 
     33 C2D         6.3060    9.3160  319.6780 C.3       1 NAD301      0.0000 
     34 O2D         6.4800    9.4990  318.2800 O.3       1 NAD301      0.0000 
     35 C1D         7.4240    9.8880  320.5670 C.3       1 NAD301      0.0000 
     36 N1N         8.6240    8.9660  320.6520 N.pl3     1 NAD301      0.0000 
     37 C2N         8.5070    7.6130  320.9270 C.ar      1 NAD301      0.0000 
     38 C3N         9.6570    6.8880  321.2420 C.ar      1 NAD301      0.0000 
     39 C7N         9.6720    5.4370  321.6640 C.2       1 NAD301      0.0000 
     40 O7N        10.7710    4.8730  321.7780 O.2       1 NAD301      0.0000 
     41 N7N         8.5040    4.8480  321.8910 N.am      1 NAD301      0.0000 
     42 C4N        10.8800    7.5440  321.1870 C.ar      1 NAD301      0.0000 
     43 C5N        10.9740    8.7200  320.5240 C.ar      1 NAD301      0.0000 
     44 C6N         9.8360    9.4670  320.4000 C.ar      1 NAD301      0.0000 
@<TRIPOS>BOND
     1    1    2 ar   
     2    1    3 ar   
     3    1    4 1    
     4    1   23 1    
     5    4    5 1    
     6    5    6 1    
     7    6    7 1    
     8    6    8 1    
     9    7   12 1    
    10    8    9 1    
    11    8   10 1    
    12   10   11 1    
    13   10   12 1    
    14   12   13 1    
    15   13   14 1    
    16   13   22 1    
    17   14   15 2    
    18   15   16 1    
    19   16   17 ar   
    20   16   22 ar   
    21   17   18 1    
    22   17   19 ar   
    23   19   20 ar   
    24   20   21 ar   
    25   21   22 ar   
    26   23   24 1    
    27   24   25 ar   
    28   24   26 ar   
    29   24   27 1    
    30   27   28 1    
    31   28   29 1    
    32   29   30 1    
    33   29   31 1    
    34   30   35 1    
    35   31   32 1    
    36   31   33 1    
    37   33   34 1    
    38   33   35 1    
    39   35   36 1    
    40   36   37 ar   
    41   36   44 ar   
    42   37   38 ar   
    43   38   39 1    
    44   38   42 ar   
    45   39   40 2    
    46   39   41 am   
    47   42   43 ar   
    48   43   44 ar   
@<TRIPOS>SUBSTRUCTURE
     1 NAD301      1 GROUP   
@<TRIPOS>SET
ATOM$ORANGE STATIC     ATOMS   COLORGROUP SYSTEM 
42 5 5 6 6 8 8 10 10 12 12 14 14 16 16 17 17 20 \
20 22 22 28 28 29 29 31 31 33 33 35 35 37 37 38 38 39 \
39 42 42 43 43 44 44 

