#    Name: 6qhe_2_NAD
#    Modification time : Fri May 22 19:31:41 2020

@<TRIPOS>MOLECULE
6qhe_2_NAD
   44    48     1     0     1
SMALL
NO_CHARGES


@<TRIPOS>ATOM
      1 PA         49.5460  -15.8410  283.3610 P.3       1 NAD301      0.0000 
      2 O1A        48.3140  -16.3950  283.9910 O.co2     1 NAD301      0.0000 
      3 O2A        50.5700  -16.8170  282.8620 O.co2     1 NAD301      0.0000 
      4 O5B        50.2750  -14.7230  284.1920 O.3       1 NAD301      0.0000 
      5 C5B        49.4280  -13.6280  284.6960 C.3       1 NAD301      0.0000 
      6 C4B        50.0580  -13.0010  285.9080 C.3       1 NAD301      0.0000 
      7 O4B        49.1360  -11.9770  286.4010 O.3       1 NAD301      0.0000 
      8 C3B        50.3290  -13.9830  287.0840 C.3       1 NAD301      0.0000 
      9 O3B        51.6490  -13.7920  287.5820 O.3       1 NAD301      0.0000 
     10 C2B        49.2290  -13.6100  288.0760 C.3       1 NAD301      0.0000 
     11 O2B        49.5150  -13.8180  289.4440 O.3       1 NAD301      0.0000 
     12 C1B        49.1040  -12.1040  287.8070 C.3       1 NAD301      0.0000 
     13 N9A        47.8670  -11.5590  288.3350 N.pl3     1 NAD301      0.0000 
     14 C8A        46.6080  -12.0660  288.1230 C.2       1 NAD301      0.0000 
     15 N7A        45.6660  -11.4020  288.7570 N.2       1 NAD301      0.0000 
     16 C5A        46.3590  -10.4220  289.4680 C.ar      1 NAD301      0.0000 
     17 C6A        45.9220   -9.4200  290.3670 C.ar      1 NAD301      0.0000 
     18 N6A        44.6440   -9.2540  290.7550 N.pl3     1 NAD301      0.0000 
     19 N1A        46.8580   -8.6030  290.8770 N.ar      1 NAD301      0.0000 
     20 C2A        48.1400   -8.8120  290.5440 C.ar      1 NAD301      0.0000 
     21 N3A        48.6600   -9.7140  289.7160 N.ar      1 NAD301      0.0000 
     22 C4A        47.7110  -10.5120  289.2170 C.ar      1 NAD301      0.0000 
     23 O3         48.9960  -14.9990  282.0750 O.3       1 NAD301      0.0000 
     24 PN         49.7090  -14.6710  280.6800 P.3       1 NAD301      0.0000 
     25 O1N        49.3560  -15.8020  279.7460 O.co2     1 NAD301      0.0000 
     26 O2N        51.0760  -14.1750  280.8670 O.co2     1 NAD301      0.0000 
     27 O5D        48.7770  -13.4180  280.2140 O.3       1 NAD301      0.0000 
     28 C5D        49.3250  -12.0960  280.2700 C.3       1 NAD301      0.0000 
     29 C4D        48.3090  -11.1780  279.6460 C.3       1 NAD301      0.0000 
     30 O4D        48.1710  -11.5520  278.2390 O.3       1 NAD301      0.0000 
     31 C3D        46.9050  -11.2510  280.2370 C.3       1 NAD301      0.0000 
     32 O3D        46.2400   -9.9890  280.1430 O.3       1 NAD301      0.0000 
     33 C2D        46.2190  -12.2740  279.3330 C.3       1 NAD301      0.0000 
     34 O2D        44.8190  -12.1200  279.3340 O.3       1 NAD301      0.0000 
     35 C1D        46.8070  -11.8630  277.9810 C.3       1 NAD301      0.0000 
     36 N1N        46.7410  -12.9120  276.9360 N.pl3     1 NAD301      0.0000 
     37 C2N        47.3380  -14.1910  277.1090 C.ar      1 NAD301      0.0000 
     38 C3N        47.2640  -15.1150  276.0640 C.ar      1 NAD301      0.0000 
     39 C7N        47.8770  -16.4980  276.1560 C.2       1 NAD301      0.0000 
     40 O7N        47.7660  -17.2800  275.1970 O.2       1 NAD301      0.0000 
     41 N7N        48.5110  -16.8060  277.2700 N.am      1 NAD301      0.0000 
     42 C4N        46.5920  -14.7860  274.8680 C.ar      1 NAD301      0.0000 
     43 C5N        46.1080  -13.5100  274.6740 C.ar      1 NAD301      0.0000 
     44 C6N        46.1700  -12.5970  275.7150 C.ar      1 NAD301      0.0000 
@<TRIPOS>BOND
     1    1    2 ar   
     2    1    3 ar   
     3    1    4 1    
     4    1   23 1    
     5    4    5 1    
     6    5    6 1    
     7    6    7 1    
     8    6    8 1    
     9    7   12 1    
    10    8    9 1    
    11    8   10 1    
    12   10   11 1    
    13   10   12 1    
    14   12   13 1    
    15   13   14 1    
    16   13   22 1    
    17   14   15 2    
    18   15   16 1    
    19   16   17 ar   
    20   16   22 ar   
    21   17   18 1    
    22   17   19 ar   
    23   19   20 ar   
    24   20   21 ar   
    25   21   22 ar   
    26   23   24 1    
    27   24   25 ar   
    28   24   26 ar   
    29   24   27 1    
    30   27   28 1    
    31   28   29 1    
    32   29   30 1    
    33   29   31 1    
    34   30   35 1    
    35   31   32 1    
    36   31   33 1    
    37   33   34 1    
    38   33   35 1    
    39   35   36 1    
    40   36   37 ar   
    41   36   44 ar   
    42   37   38 ar   
    43   38   39 1    
    44   38   42 ar   
    45   39   40 2    
    46   39   41 am   
    47   42   43 ar   
    48   43   44 ar   
@<TRIPOS>SUBSTRUCTURE
     1 NAD301      1 GROUP   
@<TRIPOS>SET
ATOM$ORANGE STATIC     ATOMS   COLORGROUP SYSTEM 
42 5 5 6 6 8 8 10 10 12 12 14 14 16 16 17 17 20 \
20 22 22 28 28 29 29 31 31 33 33 35 35 37 37 38 38 39 \
39 42 42 43 43 44 44 

