#    Name: 6qhe_3_NAD
#    Modification time : Fri May 22 19:31:46 2020

@<TRIPOS>MOLECULE
6qhe_3_NAD
   44    48     1     0     1
SMALL
NO_CHARGES


@<TRIPOS>ATOM
      1 PA         29.1330   32.8910  343.1090 P.3       1 NAD301      0.0000 
      2 O1A        30.4810   33.5300  342.8860 O.co2     1 NAD301      0.0000 
      3 O2A        27.9600   33.7270  343.4150 O.co2     1 NAD301      0.0000 
      4 O5B        29.2460   31.6570  344.1140 O.3       1 NAD301      0.0000 
      5 C5B        30.4530   30.8480  343.9020 C.3       1 NAD301      0.0000 
      6 C4B        30.7770   30.1050  345.1730 C.3       1 NAD301      0.0000 
      7 O4B        31.8590   29.1890  344.9090 O.3       1 NAD301      0.0000 
      8 C3B        31.2270   31.0120  346.3350 C.3       1 NAD301      0.0000 
      9 O3B        30.5980   30.5710  347.5420 O.3       1 NAD301      0.0000 
     10 C2B        32.7430   30.8370  346.2890 C.3       1 NAD301      0.0000 
     11 O2B        33.3300   31.0830  347.5550 O.3       1 NAD301      0.0000 
     12 C1B        32.8440   29.3590  345.8960 C.3       1 NAD301      0.0000 
     13 N9A        34.1550   29.0070  345.3860 N.pl3     1 NAD301      0.0000 
     14 C8A        34.8790   29.6690  344.4110 C.2       1 NAD301      0.0000 
     15 N7A        36.0850   29.1800  344.2390 N.2       1 NAD301      0.0000 
     16 C5A        36.1700   28.1360  345.1530 C.ar      1 NAD301      0.0000 
     17 C6A        37.2080   27.2370  345.4750 C.ar      1 NAD301      0.0000 
     18 N6A        38.4090   27.2760  344.9100 N.pl3     1 NAD301      0.0000 
     19 N1A        36.9830   26.3380  346.4720 N.ar      1 NAD301      0.0000 
     20 C2A        35.7820   26.3380  347.0650 C.ar      1 NAD301      0.0000 
     21 N3A        34.7180   27.1210  346.8410 N.ar      1 NAD301      0.0000 
     22 C4A        34.9840   28.0230  345.8660 C.ar      1 NAD301      0.0000 
     23 O3         28.8480   32.0720  341.7060 O.3       1 NAD301      0.0000 
     24 PN         27.4490   31.6620  341.0300 P.3       1 NAD301      0.0000 
     25 O1N        27.0110   32.8650  340.2290 O.co2     1 NAD301      0.0000 
     26 O2N        26.6390   31.0070  342.0300 O.co2     1 NAD301      0.0000 
     27 O5D        28.0800   30.5820  339.9880 O.3       1 NAD301      0.0000 
     28 C5D        27.8930   29.1710  340.2300 C.3       1 NAD301      0.0000 
     29 C4D        28.3960   28.4400  339.0020 C.3       1 NAD301      0.0000 
     30 O4D        27.5480   28.7690  337.8420 O.3       1 NAD301      0.0000 
     31 C3D        29.8370   28.7580  338.5800 C.3       1 NAD301      0.0000 
     32 O3D        30.5110   27.6290  338.0240 O.3       1 NAD301      0.0000 
     33 C2D        29.6720   29.8210  337.4940 C.3       1 NAD301      0.0000 
     34 O2D        30.8430   29.8670  336.6700 O.3       1 NAD301      0.0000 
     35 C1D        28.3990   29.3300  336.8160 C.3       1 NAD301      0.0000 
     36 N1N        27.6430   30.3990  336.0870 N.pl3     1 NAD301      0.0000 
     37 C2N        27.1010   31.5200  336.7280 C.ar      1 NAD301      0.0000 
     38 C3N        26.2690   32.4300  336.0140 C.ar      1 NAD301      0.0000 
     39 C7N        25.6100   33.6480  336.6640 C.2       1 NAD301      0.0000 
     40 O7N        24.9040   34.3830  335.9560 O.2       1 NAD301      0.0000 
     41 N7N        25.7470   33.8280  337.9850 N.am      1 NAD301      0.0000 
     42 C4N        26.0500   32.1810  334.6310 C.ar      1 NAD301      0.0000 
     43 C5N        26.5140   31.0140  334.0480 C.ar      1 NAD301      0.0000 
     44 C6N        27.3670   30.2010  334.7500 C.ar      1 NAD301      0.0000 
@<TRIPOS>BOND
     1    1    2 ar   
     2    1    3 ar   
     3    1    4 1    
     4    1   23 1    
     5    4    5 1    
     6    5    6 1    
     7    6    7 1    
     8    6    8 1    
     9    7   12 1    
    10    8    9 1    
    11    8   10 1    
    12   10   11 1    
    13   10   12 1    
    14   12   13 1    
    15   13   14 1    
    16   13   22 1    
    17   14   15 2    
    18   15   16 1    
    19   16   17 ar   
    20   16   22 ar   
    21   17   18 1    
    22   17   19 ar   
    23   19   20 ar   
    24   20   21 ar   
    25   21   22 ar   
    26   23   24 1    
    27   24   25 ar   
    28   24   26 ar   
    29   24   27 1    
    30   27   28 1    
    31   28   29 1    
    32   29   30 1    
    33   29   31 1    
    34   30   35 1    
    35   31   32 1    
    36   31   33 1    
    37   33   34 1    
    38   33   35 1    
    39   35   36 1    
    40   36   37 ar   
    41   36   44 ar   
    42   37   38 ar   
    43   38   39 1    
    44   38   42 ar   
    45   39   40 2    
    46   39   41 am   
    47   42   43 ar   
    48   43   44 ar   
@<TRIPOS>SUBSTRUCTURE
     1 NAD301      1 GROUP   
@<TRIPOS>SET
ATOM$ORANGE STATIC     ATOMS   COLORGROUP SYSTEM 
42 5 5 6 6 8 8 10 10 12 12 14 14 16 16 17 17 20 \
20 22 22 28 28 29 29 31 31 33 33 35 35 37 37 38 38 39 \
39 42 42 43 43 44 44 

