#    Name: 6mon_3_SER_LYS_ARG_NLE
#    Modification time : Fri May 22 19:24:51 2020

@<TRIPOS>MOLECULE
6mon_3_SER_LYS_ARG_NLE
   34    33     4     0     0
SMALL
NO_CHARGES


@<TRIPOS>ATOM
      1 N         175.2920  437.9630  -34.4770 N.am      1 SER1        0.0000 
      2 CA        175.9170  436.8710  -35.2030 C.3       1 SER1        0.0000 
      3 C         177.4110  436.8900  -34.9090 C.2       1 SER1        0.0000 
      4 O         177.9540  437.8990  -34.4540 O.2       1 SER1        0.0000 
      5 CB        175.6400  436.9710  -36.7160 C.3       1 SER1        0.0000 
      6 OG        175.8270  438.2860  -37.2190 O.3       1 SER1        0.0000 
      7 N         178.0760  435.7700  -35.1550 N.am      2 LYS2        0.0000 
      8 CA        179.5030  435.6830  -34.8950 C.3       2 LYS2        0.0000 
      9 C         180.3120  436.1110  -36.1180 C.2       2 LYS2        0.0000 
     10 O         181.5350  436.2320  -36.0490 O.2       2 LYS2        0.0000 
     11 CB        179.8730  434.2630  -34.4590 C.3       2 LYS2        0.0000 
     12 CG        179.3940  433.9280  -33.0460 C.3       2 LYS2        0.0000 
     13 CD        178.9430  432.4830  -32.9310 C.3       2 LYS2        0.0000 
     14 CE        178.0370  432.2760  -31.7210 C.3       2 LYS2        0.0000 
     15 NZ        176.6040  432.1080  -32.1070 N.4       2 LYS2        0.0000 
     16 N         179.6260  436.3630  -37.2290 N.am      3 ARG3        0.0000 
     17 CA        180.3040  436.7390  -38.4640 C.3       3 ARG3        0.0000 
     18 C         179.6890  437.9890  -39.0960 C.2       3 ARG3        0.0000 
     19 O         178.5170  437.9950  -39.4780 O.2       3 ARG3        0.0000 
     20 CB        180.2720  435.5720  -39.4520 C.3       3 ARG3        0.0000 
     21 CG        181.2230  435.7100  -40.6240 C.3       3 ARG3        0.0000 
     22 CD        181.0640  434.5300  -41.5530 C.3       3 ARG3        0.0000 
     23 NE        179.6570  434.2730  -41.8560 N.pl3     3 ARG3        0.0000 
     24 CZ        178.9950  434.8130  -42.8760 C.cat     3 ARG3        0.0000 
     25 NH1       179.6140  435.6440  -43.7050 N.pl3     3 ARG3        0.0000 
     26 NH2       177.7130  434.5200  -43.0670 N.pl3     3 ARG3        0.0000 
     27 N         172.5410  439.7650  -33.8340 N.am      4 NLE0        0.0000 
     28 CA        173.6130  439.0560  -33.1360 C.3       4 NLE0        0.0000 
     29 C         174.0860  437.8510  -33.9410 C.2       4 NLE0        0.0000 
     30 O         173.3680  436.8610  -34.0970 O.2       4 NLE0        0.0000 
     31 CB        173.1730  438.6230  -31.7300 C.3       4 NLE0        0.0000 
     32 CG        172.8680  439.7680  -30.7660 C.3       4 NLE0        0.0000 
     33 CD        172.4620  439.2530  -29.3860 C.3       4 NLE0        0.0000 
     34 CE        172.2430  440.3890  -28.3880 C.3       4 NLE0        0.0000 
@<TRIPOS>BOND
     1    1    2 1    
     2    1   29 am   
     3    2    3 1    
     4    2    5 1    
     5    3    4 2    
     6    3    7 am   
     7    5    6 1    
     8    7    8 1    
     9    8    9 1    
    10    8   11 1    
    11    9   10 2    
    12    9   16 am   
    13   11   12 1    
    14   12   13 1    
    15   13   14 1    
    16   14   15 1    
    17   16   17 1    
    18   17   18 1    
    19   17   20 1    
    20   18   19 2    
    21   20   21 1    
    22   21   22 1    
    23   22   23 1    
    24   23   24 ar   
    25   24   25 ar   
    26   24   26 ar   
    27   27   28 1    
    28   28   29 1    
    29   28   31 1    
    30   29   30 2    
    31   31   32 1    
    32   32   33 1    
    33   33   34 1    
@<TRIPOS>SUBSTRUCTURE
     1 SER1        1 RESIDUE 
     2 LYS2        7 RESIDUE 
     3 ARG3       16 RESIDUE 
     4 NLE0       27 RESIDUE 
@<TRIPOS>SET

