#    Name: 6mon_4_SER_LYS_ARG_GLY_NLE
#    Modification time : Fri May 22 19:24:57 2020

@<TRIPOS>MOLECULE
6mon_4_SER_LYS_ARG_GLY_NLE
   38    37     5     0     0
SMALL
NO_CHARGES


@<TRIPOS>ATOM
      1 N         211.1030  409.3390  -62.1950 N.am      1 SER1        0.0000 
      2 CA        210.5800  410.4930  -62.9100 C.3       1 SER1        0.0000 
      3 C         209.0960  410.6410  -62.6050 C.2       1 SER1        0.0000 
      4 O         208.4660  409.7180  -62.0830 O.2       1 SER1        0.0000 
      5 CB        210.8240  410.3680  -64.4270 C.3       1 SER1        0.0000 
      6 OG        210.2730  409.1820  -64.9700 O.3       1 SER1        0.0000 
      7 N         208.5470  411.8120  -62.9160 N.am      2 LYS2        0.0000 
      8 CA        207.1170  412.0570  -62.7590 C.3       2 LYS2        0.0000 
      9 C         206.3670  411.7160  -64.0420 C.2       2 LYS2        0.0000 
     10 O         205.1370  411.6530  -64.0550 O.2       2 LYS2        0.0000 
     11 CB        206.8630  413.5130  -62.3610 C.3       2 LYS2        0.0000 
     12 CG        207.4300  413.8620  -60.9970 C.3       2 LYS2        0.0000 
     13 CD        207.4960  415.3540  -60.7590 C.3       2 LYS2        0.0000 
     14 CE        208.1470  415.6410  -59.4180 C.3       2 LYS2        0.0000 
     15 NZ        209.5240  415.0890  -59.3440 N.4       2 LYS2        0.0000 
     16 N         207.1160  411.4920  -65.1180 N.am      3 ARG3        0.0000 
     17 CA        206.5230  411.1190  -66.3950 C.3       3 ARG3        0.0000 
     18 C         206.9430  409.7000  -66.7890 C.2       3 ARG3        0.0000 
     19 O         206.8230  408.7730  -65.9830 O.2       3 ARG3        0.0000 
     20 CB        206.9120  412.1270  -67.4820 C.3       3 ARG3        0.0000 
     21 CG        205.8230  412.3760  -68.5260 C.3       3 ARG3        0.0000 
     22 CD        206.0820  413.6700  -69.2860 C.3       3 ARG3        0.0000 
     23 NE        207.4730  413.7730  -69.7240 N.pl3     3 ARG3        0.0000 
     24 CZ        207.9360  413.2960  -70.8760 C.cat     3 ARG3        0.0000 
     25 NH1       207.1180  412.6810  -71.7210 N.pl3     3 ARG3        0.0000 
     26 NH2       209.2200  413.4350  -71.1860 N.pl3     3 ARG3        0.0000 
     27 N         207.4410  409.5480  -68.0170 N.am      4 GLY4        0.0000 
     28 CA        207.7690  408.2540  -68.6050 C.3       4 GLY4        0.0000 
     29 C         208.4270  407.2150  -67.7120 C.2       4 GLY4        0.0000 
     30 O         209.6430  407.2200  -67.5040 O.2       4 GLY4        0.0000 
     31 N         213.6450  407.3370  -61.5650 N.am      5 NLE0        0.0000 
     32 CA        212.6600  408.1150  -60.8200 C.3       5 NLE0        0.0000 
     33 C         212.2780  409.3730  -61.5780 C.2       5 NLE0        0.0000 
     34 O         213.0320  410.3450  -61.6170 O.2       5 NLE0        0.0000 
     35 CB        213.1840  408.4800  -59.4300 C.3       5 NLE0        0.0000 
     36 CG        213.3610  407.2940  -58.4930 C.3       5 NLE0        0.0000 
     37 CD        213.7520  407.7450  -57.0910 C.3       5 NLE0        0.0000 
     38 CE        213.8580  406.5670  -56.1380 C.3       5 NLE0        0.0000 
@<TRIPOS>BOND
     1    1    2 1    
     2    1   33 am   
     3    2    3 1    
     4    2    5 1    
     5    3    4 2    
     6    3    7 am   
     7    5    6 1    
     8    7    8 1    
     9    8    9 1    
    10    8   11 1    
    11    9   10 2    
    12    9   16 am   
    13   11   12 1    
    14   12   13 1    
    15   13   14 1    
    16   14   15 1    
    17   16   17 1    
    18   17   18 1    
    19   17   20 1    
    20   18   19 2    
    21   18   27 am   
    22   20   21 1    
    23   21   22 1    
    24   22   23 1    
    25   23   24 ar   
    26   24   25 ar   
    27   24   26 ar   
    28   27   28 1    
    29   28   29 1    
    30   29   30 2    
    31   31   32 1    
    32   32   33 1    
    33   32   35 1    
    34   33   34 2    
    35   35   36 1    
    36   36   37 1    
    37   37   38 1    
@<TRIPOS>SUBSTRUCTURE
     1 SER1        1 RESIDUE 
     2 LYS2        7 RESIDUE 
     3 ARG3       16 RESIDUE 
     4 GLY4       27 RESIDUE 
     5 NLE0       31 RESIDUE 
@<TRIPOS>SET

