#    Name: 6mon_3_SER_LYS_ARG_NLE_CAVITY_N1_4
#    Modification time : Fri May 22 19:24:52 2020

@<TRIPOS>MOLECULE
6mon_3_SER_LYS_ARG_NLE_CAVITY_N1_4
  119     0     6     0     0
SMALL
NO_CHARGES


@<TRIPOS>ATOM
      1 OG        174.3600  433.5100  -33.0300 O.3       1 SER1        0.0000 
      2 OG        174.6700  432.1300  -32.5300 O.3       1 SER1        0.0000 
      3 OG        174.2900  437.4000  -35.7400 O.3       1 SER1        0.0000 
      4 OG        174.6000  436.0200  -35.2400 O.3       1 SER1        0.0000 
      5 OG        175.1500  437.1500  -36.9500 O.3       1 SER1        0.0000 
      6 OG        172.6100  440.0600  -31.8900 O.3       1 SER1        0.0000 
      7 OG        174.7000  434.2900  -31.0900 O.3       1 SER1        0.0000 
      8 OG        175.5500  434.0400  -32.3000 O.3       1 SER1        0.0000 
      9 OG        177.3900  433.9800  -29.1100 O.3       1 SER1        0.0000 
     10 N         171.7200  438.1400  -32.1200 N.am      2 ALA2        0.0000 
     11 O         173.7400  436.2700  -34.0400 O.2       2 ALA2        0.0000 
     12 N         174.0500  434.8900  -33.5300 N.am      2 ALA2        0.0000 
     13 N         170.9000  440.5600  -29.4800 N.am      2 ALA2        0.0000 
     14 N         171.7500  440.3100  -30.6800 N.am      2 ALA2        0.0000 
     15 N         172.9200  438.6800  -31.3900 N.am      2 ALA2        0.0000 
     16 N         174.6300  438.1800  -33.8000 N.am      2 ALA2        0.0000 
     17 N         174.9400  436.8000  -33.3000 N.am      2 ALA2        0.0000 
     18 N         175.8600  432.6600  -31.7900 N.am      2 ALA2        0.0000 
     19 N         175.4900  437.9300  -35.0100 N.am      2 ALA2        0.0000 
     20 N         177.0200  431.0400  -32.5000 N.am      2 ALA2        0.0000 
     21 N         176.3400  437.6900  -36.2100 N.am      2 ALA2        0.0000 
     22 N         175.2700  437.5800  -31.3600 N.am      2 ALA2        0.0000 
     23 N         175.5800  436.2000  -30.8500 N.am      2 ALA2        0.0000 
     24 N         175.8900  434.8300  -30.3500 N.am      2 ALA2        0.0000 
     25 N         176.1300  437.3400  -32.5600 N.am      2 ALA2        0.0000 
     26 N         176.4400  435.9600  -32.0600 N.am      2 ALA2        0.0000 
     27 N         176.7400  434.5800  -31.5600 N.am      2 ALA2        0.0000 
     28 N         177.0500  433.2000  -31.0600 N.am      2 ALA2        0.0000 
     29 N         177.3600  431.8200  -30.5500 N.am      2 ALA2        0.0000 
     30 N         176.3700  439.8500  -34.7700 N.am      2 ALA2        0.0000 
     31 N         176.6800  438.4700  -34.2700 N.am      2 ALA2        0.0000 
     32 N         176.9900  437.0900  -33.7700 N.am      2 ALA2        0.0000 
     33 N         177.5300  438.2200  -35.4800 N.am      2 ALA2        0.0000 
     34 O         180.7200  434.7100  -38.0900 O.2       2 ALA2        0.0000 
     35 O         177.7000  432.6000  -28.6100 O.2       2 ALA2        0.0000 
     36 N         178.2400  433.7300  -30.3200 N.am      2 ALA2        0.0000 
     37 N         178.1800  437.6200  -33.0300 N.am      2 ALA2        0.0000 
     38 N         178.4900  436.2400  -32.5300 N.am      2 ALA2        0.0000 
     39 N         178.7900  434.8600  -32.0300 N.am      2 ALA2        0.0000 
     40 N         179.3400  435.9900  -33.7400 N.am      2 ALA2        0.0000 
     41 O         179.5800  438.5000  -35.9500 O.2       2 ALA2        0.0000 
     42 O         179.8900  437.1200  -35.4500 O.2       2 ALA2        0.0000 
     43 N         180.5100  434.3700  -34.4400 N.am      2 ALA2        0.0000 
     44 N         180.8100  432.9900  -33.9400 N.am      2 ALA2        0.0000 
     45 O         181.0500  435.5000  -36.1500 O.2       2 ALA2        0.0000 
     46 N         181.3600  434.1200  -35.6500 N.am      2 ALA2        0.0000 
     47 N         179.4400  434.2600  -29.5800 N.am      2 ALA2        0.0000 
     48 N         179.6800  436.7800  -31.7900 N.am      2 ALA2        0.0000 
     49 N         179.9900  435.4000  -31.2900 N.am      2 ALA2        0.0000 
     50 N         180.8400  435.1500  -32.5000 N.am      2 ALA2        0.0000 
     51 N         181.1500  433.7700  -32.0000 N.am      2 ALA2        0.0000 
     52 O         181.4600  432.3900  -31.5000 O.2       2 ALA2        0.0000 
     53 N         181.3900  436.2800  -34.2100 N.am      2 ALA2        0.0000 
     54 N         181.7000  434.9000  -33.7100 N.am      2 ALA2        0.0000 
     55 O         182.3100  432.1400  -32.7000 O.2       2 ALA2        0.0000 
     56 O         182.2500  436.0300  -35.4100 O.2       2 ALA2        0.0000 
     57 N         182.0400  435.6800  -31.7600 N.am      2 ALA2        0.0000 
     58 N         182.3400  434.3000  -31.2600 N.am      2 ALA2        0.0000 
     59 N         182.8900  435.4300  -32.9700 N.am      2 ALA2        0.0000 
     60 N         183.2000  434.0500  -32.4700 N.am      2 ALA2        0.0000 
     61 NZ        174.9100  434.6400  -34.7400 N.4       3 LYS4        0.0000 
     62 NZ        175.5200  431.8800  -33.7400 N.4       3 LYS4        0.0000 
     63 NZ        176.1000  435.1700  -34.0000 N.4       3 LYS4        0.0000 
     64 NZ        176.4100  433.7900  -33.5000 N.4       3 LYS4        0.0000 
     65 NZ        176.7200  432.4200  -33.0000 N.4       3 LYS4        0.0000 
     66 NZ        176.6500  436.3100  -35.7100 N.4       3 LYS4        0.0000 
     67 NZ        176.9600  434.9300  -35.2100 N.4       3 LYS4        0.0000 
     68 NZ        177.5700  432.1700  -34.2100 N.4       3 LYS4        0.0000 
     69 NZ        178.1500  435.4600  -34.4700 N.4       3 LYS4        0.0000 
     70 NZ        178.4600  434.0800  -33.9700 N.4       3 LYS4        0.0000 
     71 NZ        178.7000  436.5900  -36.1800 N.4       3 LYS4        0.0000 
     72 NZ        179.0000  435.2100  -35.6800 N.4       3 LYS4        0.0000 
     73 NZ        179.3100  433.8300  -35.1800 N.4       3 LYS4        0.0000 
     74 NZ        179.5500  436.3400  -37.3900 N.4       3 LYS4        0.0000 
     75 NZ        179.8600  434.9600  -36.8900 N.4       3 LYS4        0.0000 
     76 CZ        172.8900  436.5200  -32.8300 C.ar      4 PHE5        0.0000 
     77 CZ        173.2000  435.1400  -32.3300 C.ar      4 PHE5        0.0000 
     78 CZ        171.2100  439.1800  -28.9800 C.ar      4 PHE5        0.0000 
     79 CZ        172.0600  438.9300  -30.1800 C.ar      4 PHE5        0.0000 
     80 CZ        173.2300  437.3000  -30.8900 C.ar      4 PHE5        0.0000 
     81 CZ        174.0800  437.0500  -32.0900 C.ar      4 PHE5        0.0000 
     82 CZ        174.3900  435.6700  -31.5900 C.ar      4 PHE5        0.0000 
     83 CZ        173.2500  439.4600  -29.4500 C.ar      4 PHE5        0.0000 
     84 CZ        173.5600  438.0800  -28.9400 C.ar      4 PHE5        0.0000 
     85 CZ        174.7300  436.4500  -29.6500 C.ar      4 PHE5        0.0000 
     86 CA        172.5800  437.9000  -33.3300 C.3       5 GLY6        0.0000 
     87 CA        173.4400  437.6500  -34.5400 C.3       5 GLY6        0.0000 
     88 CA        173.7700  438.4300  -32.5900 C.3       5 GLY6        0.0000 
     89 CA        175.0000  432.9100  -30.5900 C.3       5 GLY6        0.0000 
     90 CA        174.1100  439.2100  -30.6500 C.3       5 GLY6        0.0000 
     91 CA        174.4200  437.8300  -30.1500 C.3       5 GLY6        0.0000 
     92 CA        176.2000  433.4500  -29.8500 C.3       5 GLY6        0.0000 
     93 CA        178.2200  431.5700  -31.7600 C.3       5 GLY6        0.0000 
     94 CA        178.7600  432.7000  -33.4700 C.3       5 GLY6        0.0000 
     95 CA        179.6200  432.4500  -34.6800 C.3       5 GLY6        0.0000 
     96 CA        180.1700  433.5800  -36.3800 C.3       5 GLY6        0.0000 
     97 CA        178.5500  432.3500  -29.8200 C.3       5 GLY6        0.0000 
     98 CA        179.4100  432.1000  -31.0200 C.3       5 GLY6        0.0000 
     99 CA        178.7300  438.7500  -34.7400 C.3       5 GLY6        0.0000 
    100 CA        179.0300  437.3700  -34.2400 C.3       5 GLY6        0.0000 
    101 CA        180.2600  431.8500  -32.2300 C.3       5 GLY6        0.0000 
    102 CA        180.4400  438.2600  -37.1600 C.3       5 GLY6        0.0000 
    103 CA        180.7500  436.8800  -36.6500 C.3       5 GLY6        0.0000 
    104 CA        179.7500  432.8900  -29.0800 C.3       5 GLY6        0.0000 
    105 CA        180.2900  434.0200  -30.7900 C.3       5 GLY6        0.0000 
    106 CA        180.6000  432.6400  -30.2900 C.3       5 GLY6        0.0000 
    107 CA        181.7600  431.0100  -30.9900 C.3       5 GLY6        0.0000 
    108 CA        181.4900  434.5500  -30.0500 C.3       5 GLY6        0.0000 
    109 DU        175.2400  435.4200  -32.8000 H         6 CUB7        0.0000 
    110 DU        175.7900  436.5500  -34.5100 H         6 CUB7        0.0000 
    111 DU        177.2900  435.7100  -33.2700 H         6 CUB7        0.0000 
    112 DU        177.6000  434.3300  -32.7700 H         6 CUB7        0.0000 
    113 DU        177.9100  432.9500  -32.2600 H         6 CUB7        0.0000 
    114 DU        177.8400  436.8400  -34.9800 H         6 CUB7        0.0000 
    115 DU        178.3900  437.9700  -36.6800 H         6 CUB7        0.0000 
    116 DU        179.1000  433.4800  -31.5300 H         6 CUB7        0.0000 
    117 DU        179.6500  434.6100  -33.2400 H         6 CUB7        0.0000 
    118 DU        179.9600  433.2300  -32.7300 H         6 CUB7        0.0000 
    119 DU        180.2000  435.7500  -34.9400 H         6 CUB7        0.0000 
@<TRIPOS>BOND
@<TRIPOS>SUBSTRUCTURE
     1 SER1        1 GROUP   
     2 ALA2       10 GROUP   
     3 LYS4       61 GROUP   
     4 PHE5       76 GROUP   
     5 GLY6       86 GROUP   
     6 CUB7      109 GROUP   
@<TRIPOS>SET

