#    Name: 6mon_2_SAH_CAVITY_N1_12
#    Modification time : Fri May 22 19:24:47 2020

@<TRIPOS>MOLECULE
6mon_2_SAH_CAVITY_N1_12
   93     0     7     0     0
SMALL
NO_CHARGES


@<TRIPOS>ATOM
      1 OG        212.5500  398.0300  -50.8500 O.3       1 SER1        0.0000 
      2 OG        212.8200  402.7000  -51.6200 O.3       1 SER1        0.0000 
      3 OG        214.5600  404.3600  -52.5900 O.3       1 SER1        0.0000 
      4 N         206.4400  399.3300  -48.0000 N.am      2 ALA2        0.0000 
      5 N         207.6000  397.7000  -48.7000 N.am      2 ALA2        0.0000 
      6 N         208.4800  399.6200  -48.4700 N.am      2 ALA2        0.0000 
      7 N         209.9500  396.6100  -48.6700 N.am      2 ALA2        0.0000 
      8 N         211.6700  396.1100  -51.0800 N.am      2 ALA2        0.0000 
      9 N         209.9200  402.6600  -49.9400 N.am      2 ALA2        0.0000 
     10 N         210.2300  401.2800  -49.4400 N.am      2 ALA2        0.0000 
     11 N         211.1500  397.1400  -47.9300 N.am      2 ALA2        0.0000 
     12 N         210.7700  402.4100  -51.1500 N.am      2 ALA2        0.0000 
     13 N         212.7900  400.5400  -53.0600 N.am      2 ALA2        0.0000 
     14 N         211.4200  401.8200  -48.7000 N.am      2 ALA2        0.0000 
     15 N         211.7300  400.4400  -48.2000 N.am      2 ALA2        0.0000 
     16 O         212.3400  397.6800  -47.2000 O.2       2 ALA2        0.0000 
     17 N         211.9700  402.9500  -50.4100 N.am      2 ALA2        0.0000 
     18 N         212.2700  401.5700  -49.9100 N.am      2 ALA2        0.0000 
     19 N         214.2300  403.5800  -54.5300 N.am      2 ALA2        0.0000 
     20 N         214.5300  402.2000  -54.0300 N.am      2 ALA2        0.0000 
     21 O         213.5300  398.2100  -46.4600 O.2       2 ALA2        0.0000 
     22 N         213.4700  402.1000  -49.1700 N.am      2 ALA2        0.0000 
     23 N         214.0200  403.2300  -50.8800 N.am      2 ALA2        0.0000 
     24 N         214.8700  402.9800  -52.0900 N.am      2 ALA2        0.0000 
     25 N         215.4200  404.1100  -53.8000 N.am      2 ALA2        0.0000 
     26 N         215.7300  402.7300  -53.3000 N.am      2 ALA2        0.0000 
     27 N         214.6600  402.6300  -48.4400 N.am      2 ALA2        0.0000 
     28 N         215.2100  403.7700  -50.1500 N.am      2 ALA2        0.0000 
     29 N         216.0600  403.5200  -51.3500 N.am      2 ALA2        0.0000 
     30 N         215.5500  404.5500  -48.2000 N.am      2 ALA2        0.0000 
     31 N         215.8500  403.1700  -47.7000 N.am      2 ALA2        0.0000 
     32 O         216.1600  401.7900  -47.2000 O.2       2 ALA2        0.0000 
     33 O         216.4700  400.4100  -46.7000 O.2       2 ALA2        0.0000 
     34 N         216.4000  404.3000  -49.4100 N.am      2 ALA2        0.0000 
     35 N         217.2600  404.0500  -50.6200 N.am      2 ALA2        0.0000 
     36 OD1       216.7100  402.9200  -48.9100 O.co2     3 ASP3        0.0000 
     37 OD1       217.0200  401.5400  -48.4100 O.co2     3 ASP3        0.0000 
     38 OD1       217.9000  403.4500  -48.1700 O.co2     3 ASP3        0.0000 
     39 OD1       218.7600  403.2100  -49.3800 O.co2     3 ASP3        0.0000 
     40 NZ        211.7000  398.2700  -49.6400 N.4       4 LYS4        0.0000 
     41 NZ        212.2400  399.4000  -51.3500 N.4       4 LYS4        0.0000 
     42 NZ        212.5800  400.1900  -49.4100 N.4       4 LYS4        0.0000 
     43 NZ        212.8900  398.8100  -48.9100 N.4       4 LYS4        0.0000 
     44 NZ        213.2000  397.4300  -48.4000 N.4       4 LYS4        0.0000 
     45 NZ        213.5000  396.0500  -47.9000 N.4       4 LYS4        0.0000 
     46 NZ        213.1300  401.3200  -51.1200 N.4       4 LYS4        0.0000 
     47 NZ        213.9900  401.0700  -52.3200 N.4       4 LYS4        0.0000 
     48 NZ        213.7700  400.7200  -48.6700 N.4       4 LYS4        0.0000 
     49 NZ        214.0800  399.3400  -48.1700 N.4       4 LYS4        0.0000 
     50 NZ        214.3900  397.9600  -47.6700 N.4       4 LYS4        0.0000 
     51 NZ        214.3200  401.8500  -50.3800 N.4       4 LYS4        0.0000 
     52 NZ        215.1800  401.6000  -51.5900 N.4       4 LYS4        0.0000 
     53 NZ        214.9700  401.2500  -47.9400 N.4       4 LYS4        0.0000 
     54 NZ        215.2700  399.8800  -47.4300 N.4       4 LYS4        0.0000 
     55 NZ        215.5800  398.5000  -46.9300 N.4       4 LYS4        0.0000 
     56 NZ        215.5200  402.3900  -49.6400 N.4       4 LYS4        0.0000 
     57 NZ        216.3700  402.1400  -50.8500 N.4       4 LYS4        0.0000 
     58 NZ        217.3200  400.1600  -47.9000 N.4       4 LYS4        0.0000 
     59 CZ        206.9800  400.4600  -49.7100 C.ar      5 PHE5        0.0000 
     60 CZ        207.2900  399.0800  -49.2000 C.ar      5 PHE5        0.0000 
     61 CZ        207.8700  402.3800  -49.4700 C.ar      5 PHE5        0.0000 
     62 CZ        208.7200  402.1300  -50.6800 C.ar      5 PHE5        0.0000 
     63 CZ        209.0300  400.7500  -50.1800 C.ar      5 PHE5        0.0000 
     64 CZ        211.0800  401.0300  -50.6500 C.ar      5 PHE5        0.0000 
     65 CZ        211.6300  402.1600  -52.3500 C.ar      5 PHE5        0.0000 
     66 CZ        211.9400  400.7800  -51.8500 C.ar      5 PHE5        0.0000 
     67 CZ        212.8600  396.6500  -50.3500 C.ar      5 PHE5        0.0000 
     68 CZ        213.1700  395.2700  -49.8400 C.ar      5 PHE5        0.0000 
     69 CZ        212.4900  401.9200  -53.5600 C.ar      5 PHE5        0.0000 
     70 CZ        213.3700  403.8300  -53.3300 C.ar      5 PHE5        0.0000 
     71 CZ        213.6800  402.4500  -52.8200 C.ar      5 PHE5        0.0000 
     72 CA        206.1300  400.7100  -48.5000 C.3       6 GLY6        0.0000 
     73 CA        209.6200  395.8300  -50.6100 C.3       6 GLY6        0.0000 
     74 CA        208.1800  401.0000  -48.9700 C.3       6 GLY6        0.0000 
     75 CA        209.3400  399.3700  -49.6700 C.3       6 GLY6        0.0000 
     76 CA        209.6500  397.9900  -49.1700 C.3       6 GLY6        0.0000 
     77 CA        210.5000  397.7400  -50.3800 C.3       6 GLY6        0.0000 
     78 CA        210.8100  396.3600  -49.8800 C.3       6 GLY6        0.0000 
     79 CA        211.0500  398.8700  -52.0900 C.3       6 GLY6        0.0000 
     80 CA        211.3600  397.4900  -51.5800 C.3       6 GLY6        0.0000 
     81 CA        209.3700  401.5300  -48.2300 C.3       6 GLY6        0.0000 
     82 CA        210.5300  399.9000  -48.9400 C.3       6 GLY6        0.0000 
     83 CA        210.8400  398.5200  -48.4400 C.3       6 GLY6        0.0000 
     84 CA        211.3900  399.6500  -50.1400 C.3       6 GLY6        0.0000 
     85 CA        212.0300  399.0600  -47.7000 C.3       6 GLY6        0.0000 
     86 CA        216.7700  399.0300  -46.1900 C.3       6 GLY6        0.0000 
     87 CA        217.5600  402.6700  -50.1100 C.3       6 GLY6        0.0000 
     88 CA        217.0500  403.7000  -46.9600 C.3       6 GLY6        0.0000 
     89 CA        217.5900  404.8300  -48.6700 C.3       6 GLY6        0.0000 
     90 CA        218.4500  404.5800  -49.8800 C.3       6 GLY6        0.0000 
     91 DU        211.1200  394.9800  -49.3700 H         7 CUB7        0.0000 
     92 DU        212.0000  396.8900  -49.1400 H         7 CUB7        0.0000 
     93 DU        212.3100  395.5100  -48.6400 H         7 CUB7        0.0000 
@<TRIPOS>BOND
@<TRIPOS>SUBSTRUCTURE
     1 SER1        1 GROUP   
     2 ALA2        4 GROUP   
     3 ASP3       36 GROUP   
     4 LYS4       40 GROUP   
     5 PHE5       59 GROUP   
     6 GLY6       72 GROUP   
     7 CUB7       91 GROUP   
@<TRIPOS>SET

