#    Name: 6mon_4_SER_LYS_ARG_GLY_NLE_CAVITY_N1_12
#    Modification time : Fri May 22 19:24:58 2020

@<TRIPOS>MOLECULE
6mon_4_SER_LYS_ARG_GLY_NLE_CAVITY_N1_12
  128     0     6     0     0
SMALL
NO_CHARGES


@<TRIPOS>ATOM
      1 OG        205.2800  412.9800  -59.0800 O.3       1 SER1        0.0000 
      2 OG        211.7400  412.4600  -59.9900 O.3       1 SER1        0.0000 
      3 OG        212.6600  408.3200  -58.4800 O.3       1 SER1        0.0000 
      4 OG        212.9700  406.9400  -57.9800 O.3       1 SER1        0.0000 
      5 OG        213.8200  406.6900  -59.1900 O.3       1 SER1        0.0000 
      6 O         205.7700  409.7900  -63.6700 O.2       2 ALA2        0.0000 
      7 O         206.0100  412.3000  -65.8800 O.2       2 ALA2        0.0000 
      8 O         206.9400  408.1600  -64.3800 O.2       2 ALA2        0.0000 
      9 N         202.9300  414.0700  -59.1100 N.am      2 ALA2        0.0000 
     10 N         204.0900  412.4500  -59.8200 N.am      2 ALA2        0.0000 
     11 N         204.9500  412.2000  -61.0300 N.am      2 ALA2        0.0000 
     12 N         205.5000  413.3300  -62.7300 N.am      2 ALA2        0.0000 
     13 N         205.8000  411.9500  -62.2300 N.am      2 ALA2        0.0000 
     14 O         206.3500  413.0800  -63.9400 O.2       2 ALA2        0.0000 
     15 O         206.9700  410.3200  -62.9400 O.2       2 ALA2        0.0000 
     16 N         202.9600  416.2400  -57.6700 N.am      2 ALA2        0.0000 
     17 O         203.8100  415.9900  -58.8800 O.2       2 ALA2        0.0000 
     18 O         204.6700  415.7400  -60.0900 O.2       2 ALA2        0.0000 
     19 N         204.9800  414.3600  -59.5800 N.am      2 ALA2        0.0000 
     20 N         205.5200  415.4900  -61.2900 N.am      2 ALA2        0.0000 
     21 N         205.8300  414.1100  -60.7900 N.am      2 ALA2        0.0000 
     22 N         206.1400  412.7300  -60.2900 N.am      2 ALA2        0.0000 
     23 N         206.4500  411.3500  -59.7900 N.am      2 ALA2        0.0000 
     24 N         206.6900  413.8600  -62.0000 N.am      2 ALA2        0.0000 
     25 N         207.3000  411.1000  -60.9900 N.am      2 ALA2        0.0000 
     26 N         208.4700  409.4800  -61.7000 N.am      2 ALA2        0.0000 
     27 N         209.3200  409.2300  -62.9000 N.am      2 ALA2        0.0000 
     28 N         207.3300  413.2600  -59.5500 N.am      2 ALA2        0.0000 
     29 N         207.6400  411.8900  -59.0500 N.am      2 ALA2        0.0000 
     30 N         208.5000  411.6400  -60.2600 N.am      2 ALA2        0.0000 
     31 N         209.6600  410.0100  -60.9600 N.am      2 ALA2        0.0000 
     32 N         210.5200  409.7600  -62.1700 N.am      2 ALA2        0.0000 
     33 N         210.8200  408.3800  -61.6700 N.am      2 ALA2        0.0000 
     34 N         208.2200  415.1800  -59.3200 N.am      2 ALA2        0.0000 
     35 N         208.5300  413.8000  -58.8200 N.am      2 ALA2        0.0000 
     36 N         209.6900  412.1700  -59.5200 N.am      2 ALA2        0.0000 
     37 N         210.0000  410.7900  -59.0200 N.am      2 ALA2        0.0000 
     38 N         210.8500  410.5400  -60.2300 N.am      2 ALA2        0.0000 
     39 N         211.1600  409.1600  -59.7200 N.am      2 ALA2        0.0000 
     40 N         211.4700  407.7800  -59.2200 N.am      2 ALA2        0.0000 
     41 N         211.7100  410.2900  -61.4300 N.am      2 ALA2        0.0000 
     42 N         212.0200  408.9100  -60.9300 N.am      2 ALA2        0.0000 
     43 N         209.4100  415.7100  -58.5800 N.am      2 ALA2        0.0000 
     44 N         209.7200  414.3300  -58.0800 N.am      2 ALA2        0.0000 
     45 N         210.0300  412.9500  -57.5800 N.am      2 ALA2        0.0000 
     46 N         209.9600  416.8400  -60.2900 N.am      2 ALA2        0.0000 
     47 N         210.2700  415.4600  -59.7900 N.am      2 ALA2        0.0000 
     48 N         210.5700  414.0800  -59.2900 N.am      2 ALA2        0.0000 
     49 N         210.8800  412.7000  -58.7800 N.am      2 ALA2        0.0000 
     50 N         211.1900  411.3200  -58.2800 N.am      2 ALA2        0.0000 
     51 N         211.5000  409.9500  -57.7800 N.am      2 ALA2        0.0000 
     52 N         212.5900  412.2100  -61.2000 N.am      2 ALA2        0.0000 
     53 N         213.5200  408.0700  -59.6900 N.am      2 ALA2        0.0000 
     54 N         214.1600  407.4700  -57.2500 N.am      2 ALA2        0.0000 
     55 N         214.4700  406.0900  -56.7400 N.am      2 ALA2        0.0000 
     56 N         215.6600  406.6300  -56.0100 N.am      2 ALA2        0.0000 
     57 NZ        205.1300  410.3800  -66.1200 N.4       3 LYS4        0.0000 
     58 NZ        206.3200  410.9200  -65.3800 N.4       3 LYS4        0.0000 
     59 NZ        207.2100  412.8300  -65.1500 N.4       3 LYS4        0.0000 
     60 NZ        207.5100  411.4500  -64.6500 N.4       3 LYS4        0.0000 
     61 NZ        208.0600  412.5800  -66.3500 N.4       3 LYS4        0.0000 
     62 NZ        208.3700  411.2000  -65.8500 N.4       3 LYS4        0.0000 
     63 NZ        207.5400  413.6100  -63.2000 N.4       3 LYS4        0.0000 
     64 NZ        207.8500  412.2300  -62.7000 N.4       3 LYS4        0.0000 
     65 NZ        209.0100  410.6100  -63.4100 N.4       3 LYS4        0.0000 
     66 NZ        207.8800  414.4000  -61.2600 N.4       3 LYS4        0.0000 
     67 NZ        208.7400  414.1500  -62.4700 N.4       3 LYS4        0.0000 
     68 NZ        209.0400  412.7700  -61.9700 N.4       3 LYS4        0.0000 
     69 NZ        210.2100  411.1400  -62.6700 N.4       3 LYS4        0.0000 
     70 NZ        209.0700  414.9300  -60.5300 N.4       3 LYS4        0.0000 
     71 NZ        210.2400  413.3000  -61.2300 N.4       3 LYS4        0.0000 
     72 NZ        211.4000  411.6700  -61.9300 N.4       3 LYS4        0.0000 
     73 NZ        211.1200  415.2200  -61.0000 N.4       3 LYS4        0.0000 
     74 NZ        211.4300  413.8400  -60.4900 N.4       3 LYS4        0.0000 
     75 CZ        211.8000  408.5700  -57.2800 C.ar      4 PHE5        0.0000 
     76 CZ        212.0500  411.0800  -59.4900 C.ar      4 PHE5        0.0000 
     77 CZ        212.3500  409.7000  -58.9900 C.ar      4 PHE5        0.0000 
     78 CZ        212.9000  410.8300  -60.7000 C.ar      4 PHE5        0.0000 
     79 CZ        213.2100  409.4500  -60.1900 C.ar      4 PHE5        0.0000 
     80 CZ        212.3800  411.8600  -57.5500 C.ar      4 PHE5        0.0000 
     81 CZ        213.0000  409.1000  -56.5400 C.ar      4 PHE5        0.0000 
     82 CZ        213.3000  407.7200  -56.0400 C.ar      4 PHE5        0.0000 
     83 CZ        213.6100  406.3400  -55.5400 C.ar      4 PHE5        0.0000 
     84 CZ        213.9200  404.9600  -55.0400 C.ar      4 PHE5        0.0000 
     85 CZ        213.8500  408.8500  -57.7500 C.ar      4 PHE5        0.0000 
     86 CZ        214.5000  408.2500  -55.3000 C.ar      4 PHE5        0.0000 
     87 CZ        214.8000  406.8700  -54.8000 C.ar      4 PHE5        0.0000 
     88 CZ        215.3500  408.0100  -56.5100 C.ar      4 PHE5        0.0000 
     89 CA        205.4700  411.1700  -64.1700 C.3       5 GLY6        0.0000 
     90 CA        202.0700  414.3200  -57.9100 C.3       5 GLY6        0.0000 
     91 CA        203.2400  412.6900  -58.6100 C.3       5 GLY6        0.0000 
     92 CA        207.2700  408.9400  -62.4300 C.3       5 GLY6        0.0000 
     93 CA        203.2600  414.8600  -57.1700 C.3       5 GLY6        0.0000 
     94 CA        203.5700  413.4800  -56.6700 C.3       5 GLY6        0.0000 
     95 CA        204.4300  413.2300  -57.8800 C.3       5 GLY6        0.0000 
     96 CA        206.3800  415.2400  -62.5000 C.3       5 GLY6        0.0000 
     97 CA        207.2400  414.9900  -63.7100 C.3       5 GLY6        0.0000 
     98 CA        204.4600  415.3900  -56.4400 C.3       5 GLY6        0.0000 
     99 CA        205.0100  416.5200  -58.1400 C.3       5 GLY6        0.0000 
    100 CA        205.3100  415.1400  -57.6400 C.3       5 GLY6        0.0000 
    101 CA        205.8600  416.2700  -59.3500 C.3       5 GLY6        0.0000 
    102 CA        206.4800  413.5100  -58.3500 C.3       5 GLY6        0.0000 
    103 CA        206.7200  416.0200  -60.5600 C.3       5 GLY6        0.0000 
    104 CA        207.5700  415.7800  -61.7600 C.3       5 GLY6        0.0000 
    105 CA        208.8000  410.2600  -59.7600 C.3       5 GLY6        0.0000 
    106 CA        208.4300  415.5300  -62.9700 C.3       5 GLY6        0.0000 
    107 CA        207.0500  416.8100  -58.6100 C.3       5 GLY6        0.0000 
    108 CA        207.3600  415.4300  -58.1100 C.3       5 GLY6        0.0000 
    109 CA        207.9100  416.5600  -59.8200 C.3       5 GLY6        0.0000 
    110 CA        208.7700  416.3100  -61.0300 C.3       5 GLY6        0.0000 
    111 CA        212.3200  407.5300  -60.4300 C.3       5 GLY6        0.0000 
    112 CA        212.5600  410.0500  -62.6400 C.3       5 GLY6        0.0000 
    113 CA        210.5100  417.9700  -62.0000 C.3       5 GLY6        0.0000 
    114 CA        211.2200  413.4900  -56.8400 C.3       5 GLY6        0.0000 
    115 CA        211.7700  414.6200  -58.5500 C.3       5 GLY6        0.0000 
    116 CA        212.0700  413.2400  -58.0500 C.3       5 GLY6        0.0000 
    117 DU        206.8700  412.0500  -67.0900 H         6 CUB7        0.0000 
    118 DU        206.6600  411.7000  -63.4400 H         6 CUB7        0.0000 
    119 DU        207.8200  410.0700  -64.1400 H         6 CUB7        0.0000 
    120 DU        204.1200  414.6100  -58.3800 H         6 CUB7        0.0000 
    121 DU        207.0000  412.4800  -61.5000 H         6 CUB7        0.0000 
    122 DU        208.1600  410.8500  -62.2000 H         6 CUB7        0.0000 
    123 DU        206.1700  414.8900  -58.8500 H         6 CUB7        0.0000 
    124 DU        207.0300  414.6400  -60.0500 H         6 CUB7        0.0000 
    125 DU        208.1900  413.0200  -60.7600 H         6 CUB7        0.0000 
    126 DU        209.3500  411.3900  -61.4600 H         6 CUB7        0.0000 
    127 DU        209.3800  413.5500  -60.0200 H         6 CUB7        0.0000 
    128 DU        210.5400  411.9200  -60.7300 H         6 CUB7        0.0000 
@<TRIPOS>BOND
@<TRIPOS>SUBSTRUCTURE
     1 SER1        1 GROUP   
     2 ALA2        6 GROUP   
     3 LYS4       57 GROUP   
     4 PHE5       75 GROUP   
     5 GLY6       89 GROUP   
     6 CUB7      117 GROUP   
@<TRIPOS>SET

