#    Name: 6mon_2_SAH
#    Modification time : Fri May 22 19:24:46 2020

@<TRIPOS>MOLECULE
6mon_2_SAH
   26    28     1     0     0
SMALL
NO_CHARGES


@<TRIPOS>ATOM
      1 N         214.1870  402.4650  -48.0970 N.4       1 SAH504      0.0000 
      2 CA        215.4020  402.7610  -48.8540 C.3       1 SAH504      0.0000 
      3 CB        215.4460  404.2180  -49.3030 C.3       1 SAH504      0.0000 
      4 CG        214.6340  404.5270  -50.5580 C.3       1 SAH504      0.0000 
      5 SD        215.3900  403.8590  -52.0670 S.3       1 SAH504      0.0000 
      6 C         216.6530  402.3990  -48.0640 C.2       1 SAH504      0.0000 
      7 O         217.7690  402.7020  -48.4820 O.co2     1 SAH504      0.0000 
      8 OXT       216.5710  401.7860  -47.0000 O.co2     1 SAH504      0.0000 
      9 C5'       213.8400  403.0260  -52.5080 C.3       1 SAH504      0.0000 
     10 C4'       213.6510  401.6780  -51.8150 C.3       1 SAH504      0.0000 
     11 O4'       212.9650  401.8430  -50.5880 O.3       1 SAH504      0.0000 
     12 C3'       212.8290  400.7140  -52.6520 C.3       1 SAH504      0.0000 
     13 O3'       213.6770  399.8150  -53.3170 O.3       1 SAH504      0.0000 
     14 C2'       211.9390  399.9970  -51.6590 C.3       1 SAH504      0.0000 
     15 O2'       212.5200  398.7780  -51.2540 O.3       1 SAH504      0.0000 
     16 C1'       211.9380  400.8860  -50.4400 C.3       1 SAH504      0.0000 
     17 N9        210.6530  401.5910  -50.3280 N.pl3     1 SAH504      0.0000 
     18 C8        210.4050  402.8650  -50.7650 C.2       1 SAH504      0.0000 
     19 N7        209.1170  403.1650  -50.4910 N.2       1 SAH504      0.0000 
     20 C5        208.5410  402.0990  -49.8930 C.ar      1 SAH504      0.0000 
     21 C6        207.2560  401.8820  -49.4120 C.ar      1 SAH504      0.0000 
     22 N6        206.3380  402.8410  -49.5120 N.pl3     1 SAH504      0.0000 
     23 N1        206.9390  400.6690  -48.8360 N.ar      1 SAH504      0.0000 
     24 C2        207.9030  399.6860  -48.7390 C.ar      1 SAH504      0.0000 
     25 N3        209.1810  399.9100  -49.2190 N.ar      1 SAH504      0.0000 
     26 C4        209.4960  401.0990  -49.7820 C.ar      1 SAH504      0.0000 
@<TRIPOS>BOND
     1    1    2 1    
     2    2    3 1    
     3    2    6 1    
     4    3    4 1    
     5    4    5 1    
     6    5    9 1    
     7    6    7 ar   
     8    6    8 ar   
     9    9   10 1    
    10   10   11 1    
    11   10   12 1    
    12   11   16 1    
    13   12   13 1    
    14   12   14 1    
    15   14   15 1    
    16   14   16 1    
    17   16   17 1    
    18   17   18 1    
    19   17   26 1    
    20   18   19 2    
    21   19   20 1    
    22   20   21 ar   
    23   20   26 ar   
    24   21   22 1    
    25   21   23 ar   
    26   23   24 ar   
    27   24   25 ar   
    28   25   26 ar   
@<TRIPOS>SUBSTRUCTURE
     1 SAH504      1 GROUP   
@<TRIPOS>SET

