#    Name: 5xo7_3_36J
#    Modification time : Fri May 22 19:20:25 2020

@<TRIPOS>MOLECULE
5xo7_3_36J
   23    24     1     0     0
SMALL
NO_CHARGES


@<TRIPOS>ATOM
      1 CAO       -61.0130   44.5740    5.9380           1 36J301      0.0000 
      2 CAL       -62.1040   45.2760    5.1600           1 36J301      0.0000 
      3 CAM       -62.4040   44.5710    3.7550           1 36J301      0.0000 
      4 CAV       -63.7460   45.0140    3.1560           1 36J301      0.0000 
      5 CAA       -64.1060   46.4440    3.5560           1 36J301      0.0000 
      6 OAP       -64.8020   44.1310    3.6690           1 36J301      0.0000 
      7 CAQ       -66.0800   44.2860    3.3450           1 36J301      0.0000 
      8 OAB       -66.3740   44.9080    2.3580           1 36J301      0.0000 
      9 CAU       -67.0740   43.7170    4.2280           1 36J301      0.0000 
     10 CAS       -68.3980   44.2010    4.1380           1 36J301      0.0000 
     11 OAD       -68.6630   45.1290    3.1590           1 36J301      0.0000 
     12 CAH       -69.3850   43.7660    5.0010           1 36J301      0.0000 
     13 CAR       -69.1140   42.8050    5.9800           1 36J301      0.0000 
     14 OAC       -70.0790   42.3740    6.7690           1 36J301      0.0000 
     15 CAI       -67.8460   42.2550    6.0040           1 36J301      0.0000 
     16 CAT       -66.8070   42.7080    5.1660           1 36J301      0.0000 
     17 CAG       -65.5060   42.0540    5.2560           1 36J301      0.0000 
     18 CAF       -65.1030   41.1380    6.2480           1 36J301      0.0000 
     19 CAJ       -63.8360   40.5610    6.2440           1 36J301      0.0000 
     20 CAK       -62.9510   41.3690    7.2670           1 36J301      0.0000 
     21 CAN       -61.9530   42.1800    6.4460           1 36J301      0.0000 
     22 CAW       -61.6760   43.6640    7.0140           1 36J301      0.0000 
     23 OAE       -60.7910   43.7030    8.1790           1 36J301      0.0000 
@<TRIPOS>BOND
     1    1    2 du   
     2    1   22 du   
     3    2    3 du   
     4    3    4 du   
     5    4    5 du   
     6    4    6 du   
     7    6    7 du   
     8    7    8 du   
     9    7    9 du   
    10    9   10 du   
    11    9   16 du   
    12   10   11 du   
    13   10   12 du   
    14   12   13 du   
    15   13   14 du   
    16   13   15 du   
    17   15   16 du   
    18   16   17 du   
    19   17   18 du   
    20   18   19 du   
    21   19   20 du   
    22   20   21 du   
    23   21   22 du   
    24   22   23 du   
@<TRIPOS>SUBSTRUCTURE
     1 36J301      1 GROUP   
@<TRIPOS>SET

