#    Name: 5xo7_4_36J
#    Modification time : Fri May 22 19:20:27 2020

@<TRIPOS>MOLECULE
5xo7_4_36J
   23    24     1     0     0
SMALL
NO_CHARGES


@<TRIPOS>ATOM
      1 CAO       -33.6900   29.8800   41.5300           1 36J301      0.0000 
      2 CAL       -32.2820   30.3970   41.2200           1 36J301      0.0000 
      3 CAM       -32.0920   31.8110   40.6100           1 36J301      0.0000 
      4 CAV       -32.5180   33.1370   41.5120           1 36J301      0.0000 
      5 CAA       -32.6390   34.2510   40.5780           1 36J301      0.0000 
      6 OAP       -31.7780   33.5980   42.8300           1 36J301      0.0000 
      7 CAQ       -30.9400   34.5640   43.1930           1 36J301      0.0000 
      8 OAB       -30.7650   35.6050   42.5690           1 36J301      0.0000 
      9 CAU       -30.0770   34.2150   44.3020           1 36J301      0.0000 
     10 CAS       -28.8540   34.9070   44.4950           1 36J301      0.0000 
     11 OAD       -28.4980   35.9190   43.6680           1 36J301      0.0000 
     12 CAH       -27.9300   34.5940   45.5090           1 36J301      0.0000 
     13 CAR       -28.2170   33.5550   46.4080           1 36J301      0.0000 
     14 OAC       -27.3660   33.2340   47.4570           1 36J301      0.0000 
     15 CAI       -29.4300   32.8650   46.2320           1 36J301      0.0000 
     16 CAT       -30.3690   33.1540   45.2170           1 36J301      0.0000 
     17 CAG       -31.5330   32.3110   45.1910           1 36J301      0.0000 
     18 CAF       -32.2480   31.7530   46.2880           1 36J301      0.0000 
     19 CAJ       -33.3680   30.8850   46.2700           1 36J301      0.0000 
     20 CAK       -33.1660   29.6960   45.3760           1 36J301      0.0000 
     21 CAN       -33.9090   30.1250   44.1210           1 36J301      0.0000 
     22 CAW       -33.5760   29.1470   42.8870           1 36J301      0.0000 
     23 OAE       -34.4640   28.0190   42.8890           1 36J301      0.0000 
@<TRIPOS>BOND
     1    1    2 du   
     2    1   22 du   
     3    2    3 du   
     4    3    4 du   
     5    4    5 du   
     6    4    6 du   
     7    6    7 du   
     8    7    8 du   
     9    7    9 du   
    10    9   10 du   
    11    9   16 du   
    12   10   11 du   
    13   10   12 du   
    14   12   13 du   
    15   13   14 du   
    16   13   15 du   
    17   15   16 du   
    18   16   17 du   
    19   17   18 du   
    20   18   19 du   
    21   19   20 du   
    22   20   21 du   
    23   21   22 du   
    24   22   23 du   
@<TRIPOS>SUBSTRUCTURE
     1 36J301      1 GROUP   
@<TRIPOS>SET

