#    Name: 5xo7_6_36J
#    Modification time : Fri May 22 19:20:35 2020

@<TRIPOS>MOLECULE
5xo7_6_36J
   23    24     1     0     0
SMALL
NO_CHARGES


@<TRIPOS>ATOM
      1 CAO       -57.3470   21.4550   55.1760           1 36J301      0.0000 
      2 CAL       -57.1720   20.8910   56.5720           1 36J301      0.0000 
      3 CAM       -58.1590   21.5260   57.5670           1 36J301      0.0000 
      4 CAV       -57.7230   21.2930   59.0370           1 36J301      0.0000 
      5 CAA       -58.8640   20.5400   59.6980           1 36J301      0.0000 
      6 OAP       -57.4150   22.6160   59.6750           1 36J301      0.0000 
      7 CAQ       -57.9910   23.0990   60.8000           1 36J301      0.0000 
      8 OAB       -58.1680   22.3860   61.7880           1 36J301      0.0000 
      9 CAU       -58.4600   24.4670   60.7620           1 36J301      0.0000 
     10 CAS       -59.4030   24.8590   61.7300           1 36J301      0.0000 
     11 OAD       -59.8300   23.9770   62.6670           1 36J301      0.0000 
     12 CAH       -59.9540   26.1330   61.7580           1 36J301      0.0000 
     13 CAR       -59.5790   27.0770   60.8320           1 36J301      0.0000 
     14 OAC       -60.1120   28.3380   60.9150           1 36J301      0.0000 
     15 CAI       -58.6460   26.7400   59.8760           1 36J301      0.0000 
     16 CAT       -58.0720   25.4570   59.8010           1 36J301      0.0000 
     17 CAG       -57.0660   25.2370   58.8320           1 36J301      0.0000 
     18 CAF       -56.7090   26.0650   57.7820           1 36J301      0.0000 
     19 CAJ       -55.6290   25.8470   56.9230           1 36J301      0.0000 
     20 CAK       -56.2340   25.2550   55.7280           1 36J301      0.0000 
     21 CAN       -56.0620   23.7150   55.9170           1 36J301      0.0000 
     22 CAW       -57.1790   23.0440   55.0710           1 36J301      0.0000 
     23 OAE       -56.8910   23.3990   53.7000           1 36J301      0.0000 
@<TRIPOS>BOND
     1    1    2 du   
     2    1   22 du   
     3    2    3 du   
     4    3    4 du   
     5    4    5 du   
     6    4    6 du   
     7    6    7 du   
     8    7    8 du   
     9    7    9 du   
    10    9   10 du   
    11    9   16 du   
    12   10   11 du   
    13   10   12 du   
    14   12   13 du   
    15   13   14 du   
    16   13   15 du   
    17   15   16 du   
    18   16   17 du   
    19   17   18 du   
    20   18   19 du   
    21   19   20 du   
    22   20   21 du   
    23   21   22 du   
    24   22   23 du   
@<TRIPOS>SUBSTRUCTURE
     1 36J301      1 GROUP   
@<TRIPOS>SET

