#    Name: 5xo7_5_36J
#    Modification time : Fri May 22 19:20:32 2020

@<TRIPOS>MOLECULE
5xo7_5_36J
   23    24     1     0     0
SMALL
NO_CHARGES


@<TRIPOS>ATOM
      1 CAO       -23.9140  -26.4920   -1.0490           1 36J301      0.0000 
      2 CAL       -25.1870  -27.1620   -0.3370           1 36J301      0.0000 
      3 CAM       -25.2980  -26.6790    1.2050           1 36J301      0.0000 
      4 CAV       -26.5990  -26.9990    2.0600           1 36J301      0.0000 
      5 CAA       -27.0850  -28.4080    1.7800           1 36J301      0.0000 
      6 OAP       -27.7040  -25.9760    1.7810           1 36J301      0.0000 
      7 CAQ       -28.9850  -26.0090    2.2550           1 36J301      0.0000 
      8 OAB       -29.3420  -26.6450    3.2530           1 36J301      0.0000 
      9 CAU       -29.9260  -25.3910    1.4030           1 36J301      0.0000 
     10 CAS       -31.2620  -25.8010    1.5260           1 36J301      0.0000 
     11 OAD       -31.5720  -26.8000    2.4420           1 36J301      0.0000 
     12 CAH       -32.2580  -25.3220    0.6860           1 36J301      0.0000 
     13 CAR       -31.9460  -24.3740   -0.3020           1 36J301      0.0000 
     14 OAC       -32.9170  -23.8570   -1.0850           1 36J301      0.0000 
     15 CAI       -30.6510  -23.9470   -0.4050           1 36J301      0.0000 
     16 CAT       -29.6030  -24.3750    0.4420           1 36J301      0.0000 
     17 CAG       -28.2820  -23.8280    0.2400           1 36J301      0.0000 
     18 CAF       -27.8340  -22.7290   -0.5570           1 36J301      0.0000 
     19 CAJ       -26.5080  -22.1830   -0.6130           1 36J301      0.0000 
     20 CAK       -25.6600  -22.9100   -1.6030           1 36J301      0.0000 
     21 CAN       -25.0720  -24.0840   -0.8270           1 36J301      0.0000 
     22 CAW       -24.1310  -25.0690   -1.7230           1 36J301      0.0000 
     23 OAE       -22.7970  -24.4220   -2.0150           1 36J301      0.0000 
@<TRIPOS>BOND
     1    1    2 du   
     2    1   22 du   
     3    2    3 du   
     4    3    4 du   
     5    4    5 du   
     6    4    6 du   
     7    6    7 du   
     8    7    8 du   
     9    7    9 du   
    10    9   10 du   
    11    9   16 du   
    12   10   11 du   
    13   10   12 du   
    14   12   13 du   
    15   13   14 du   
    16   13   15 du   
    17   15   16 du   
    18   16   17 du   
    19   17   18 du   
    20   18   19 du   
    21   19   20 du   
    22   20   21 du   
    23   21   22 du   
    24   22   23 du   
@<TRIPOS>SUBSTRUCTURE
     1 36J301      1 GROUP   
@<TRIPOS>SET

