#    Name: 6f33_2_ZAN_CAVITY_N1_6
#    Modification time : Fri May 22 19:32:31 2020

@<TRIPOS>MOLECULE
6f33_2_ZAN_CAVITY_N1_6
   74     0     7     0     0
SMALL
NO_CHARGES


@<TRIPOS>ATOM
      1 OG         18.7500  -16.8900    8.1300 O.3       1 SER1        0.0000 
      2 OG         17.5400  -17.1800    8.9700 O.3       1 SER1        0.0000 
      3 OG         12.7100  -18.3400   12.3300 O.3       1 SER1        0.0000 
      4 OG         20.7100  -16.1700    8.5100 O.3       1 SER1        0.0000 
      5 OG         19.5000  -16.4600    9.3500 O.3       1 SER1        0.0000 
      6 OG         18.2900  -16.7500   10.1900 O.3       1 SER1        0.0000 
      7 OG         16.6000  -15.6300   10.8300 O.3       1 SER1        0.0000 
      8 OG         19.0400  -16.3100   11.4200 O.3       1 SER1        0.0000 
      9 OG         17.3500  -15.1900   12.0500 O.3       1 SER1        0.0000 
     10 OG         16.1400  -15.4800   12.8900 O.3       1 SER1        0.0000 
     11 OG         18.1000  -14.7500   13.2800 O.3       1 SER1        0.0000 
     12 OG         18.8500  -14.3200   14.5000 O.3       1 SER1        0.0000 
     13 O          14.8400  -18.3500    7.3600 O.2       2 ALA2        0.0000 
     14 O          14.1100  -20.0400    8.4100 O.2       2 ALA2        0.0000 
     15 O          13.6300  -18.6300    8.2000 O.2       2 ALA2        0.0000 
     16 O          16.0600  -19.3100    8.8000 O.2       2 ALA2        0.0000 
     17 O          15.5800  -17.9100    8.5900 O.2       2 ALA2        0.0000 
     18 O          14.8600  -19.6000    9.6400 O.2       2 ALA2        0.0000 
     19 N          20.7500  -18.6800   13.0600 N.am      2 ALA2        0.0000 
     20 OD1        15.1000  -16.5000    8.3800 O.co2     3 ASP3        0.0000 
     21 OD1        14.3800  -18.2000    9.4300 O.co2     3 ASP3        0.0000 
     22 OD1        13.9000  -16.7900    9.2200 O.co2     3 ASP3        0.0000 
     23 OD1        13.1700  -18.4800   10.2700 O.co2     3 ASP3        0.0000 
     24 OD1        15.1200  -17.7600   10.6500 O.co2     3 ASP3        0.0000 
     25 OD1        13.9200  -18.0500   11.4900 O.co2     3 ASP3        0.0000 
     26 NZ         15.8500  -16.0700    9.6000 N.4       4 LYS4        0.0000 
     27 NZ         14.6400  -16.3500   10.4400 N.4       4 LYS4        0.0000 
     28 NZ         15.3900  -15.9200   11.6700 N.4       4 LYS4        0.0000 
     29 CZ         13.1500  -17.2300    8.0000 C.ar      5 PHE5        0.0000 
     30 CZ         22.1100  -17.8700    4.5900 C.ar      5 PHE5        0.0000 
     31 CZ         19.2100  -17.0400    6.0600 C.ar      5 PHE5        0.0000 
     32 CZ         18.4800  -18.7400    7.1100 C.ar      5 PHE5        0.0000 
     33 CZ         22.1300  -19.1300    6.8600 C.ar      5 PHE5        0.0000 
     34 CZ         21.6500  -17.7200    6.6500 C.ar      5 PHE5        0.0000 
     35 CZ         20.9200  -19.4200    7.7000 C.ar      5 PHE5        0.0000 
     36 CZ         20.4400  -18.0100    7.5000 C.ar      5 PHE5        0.0000 
     37 CZ         19.9600  -16.6100    7.2900 C.ar      5 PHE5        0.0000 
     38 CZ         22.1500  -20.3900    9.1400 C.ar      5 PHE5        0.0000 
     39 CZ         21.6700  -18.9800    8.9300 C.ar      5 PHE5        0.0000 
     40 CZ         21.1900  -17.5800    8.7200 C.ar      5 PHE5        0.0000 
     41 CZ         20.4600  -19.2700    9.7700 C.ar      5 PHE5        0.0000 
     42 CZ         19.9800  -17.8600    9.5600 C.ar      5 PHE5        0.0000 
     43 CZ         21.2100  -18.8300   10.9900 C.ar      5 PHE5        0.0000 
     44 CZ         20.7300  -17.4300   10.7900 C.ar      5 PHE5        0.0000 
     45 CZ         21.9500  -18.4000   12.2200 C.ar      5 PHE5        0.0000 
     46 CA         20.4200  -16.7600    5.2200 C.3       6 GLY6        0.0000 
     47 CA         18.0000  -17.3300    6.9000 C.3       6 GLY6        0.0000 
     48 CA         17.2700  -19.0300    7.9500 C.3       6 GLY6        0.0000 
     49 CA         16.7900  -17.6200    7.7500 C.3       6 GLY6        0.0000 
     50 CA         16.3100  -16.2100    7.5400 C.3       6 GLY6        0.0000 
     51 CA         20.1900  -21.1100    8.7500 C.3       6 GLY6        0.0000 
     52 CA         19.7100  -19.7100    8.5500 C.3       6 GLY6        0.0000 
     53 CA         19.2300  -18.3000    8.3400 C.3       6 GLY6        0.0000 
     54 CA         18.5000  -19.9900    9.3900 C.3       6 GLY6        0.0000 
     55 CA         18.0200  -18.5900    9.1800 C.3       6 GLY6        0.0000 
     56 CA         17.2900  -20.2800   10.2300 C.3       6 GLY6        0.0000 
     57 CA         20.9400  -20.6700    9.9800 C.3       6 GLY6        0.0000 
     58 CA         18.5600  -14.9000   11.2100 C.3       6 GLY6        0.0000 
     59 CA         20.2700  -17.2800   12.8500 C.3       6 GLY6        0.0000 
     60 CA         19.7900  -15.8700   12.6400 C.3       6 GLY6        0.0000 
     61 DU         13.6500  -19.8900   10.4800 H         7 CUB7        0.0000 
     62 DU         16.8100  -18.8800   10.0200 H         7 CUB7        0.0000 
     63 DU         16.3300  -17.4700    9.8100 H         7 CUB7        0.0000 
     64 DU         15.6100  -19.1700   10.8600 H         7 CUB7        0.0000 
     65 DU         19.2500  -19.5600   10.6100 H         7 CUB7        0.0000 
     66 DU         18.7700  -18.1500   10.4000 H         7 CUB7        0.0000 
     67 DU         17.0800  -17.0300   11.0400 H         7 CUB7        0.0000 
     68 DU         15.8700  -17.3200   11.8800 H         7 CUB7        0.0000 
     69 DU         14.6700  -17.6100   12.7200 H         7 CUB7        0.0000 
     70 DU         20.0000  -19.1200   11.8400 H         7 CUB7        0.0000 
     71 DU         19.5200  -17.7100   11.6300 H         7 CUB7        0.0000 
     72 DU         17.8300  -16.6000   12.2600 H         7 CUB7        0.0000 
     73 DU         16.6200  -16.8900   13.1000 H         7 CUB7        0.0000 
     74 DU         18.5800  -16.1600   13.4800 H         7 CUB7        0.0000 
@<TRIPOS>BOND
@<TRIPOS>SUBSTRUCTURE
     1 SER1        1 GROUP   
     2 ALA2       13 GROUP   
     3 ASP3       20 GROUP   
     4 LYS4       26 GROUP   
     5 PHE5       29 GROUP   
     6 GLY6       46 GROUP   
     7 CUB7       61 GROUP   
@<TRIPOS>SET

