#    Name: 6f33_1_ZAN_CAVITY_N1_4
#    Modification time : Fri May 22 19:32:23 2020

@<TRIPOS>MOLECULE
6f33_1_ZAN_CAVITY_N1_4
   97     0     7     0     0
SMALL
NO_CHARGES


@<TRIPOS>ATOM
      1 OG         -6.8900   16.5500   22.8900 O.3       1 SER1        0.0000 
      2 OG         -7.3700   17.9500   22.6800 O.3       1 SER1        0.0000 
      3 OG         -5.4100   18.6800   23.0600 O.3       1 SER1        0.0000 
      4 OG         -6.1400   16.9800   24.1100 O.3       1 SER1        0.0000 
      5 OG         -6.6200   18.3900   23.9100 O.3       1 SER1        0.0000 
      6 OG         -8.5600   16.4100   25.8000 O.3       1 SER1        0.0000 
      7 OG         -6.6000   17.1300   26.1800 O.3       1 SER1        0.0000 
      8 OG         -7.0800   18.5400   25.9700 O.3       1 SER1        0.0000 
      9 OG         -7.5600   19.9400   25.7600 O.3       1 SER1        0.0000 
     10 OG         -8.2900   18.2500   26.8100 O.3       1 SER1        0.0000 
     11 OG         -9.5000   17.9600   27.6500 O.3       1 SER1        0.0000 
     12 OG         -7.5400   18.6900   28.0400 O.3       1 SER1        0.0000 
     13 OG         -8.0200   20.0900   27.8300 O.3       1 SER1        0.0000 
     14 OG         -8.7500   18.4000   28.8800 O.3       1 SER1        0.0000 
     15 O         -12.9500   16.3600   24.8200 O.2       2 ALA2        0.0000 
     16 O         -13.4300   17.7700   24.6100 O.2       2 ALA2        0.0000 
     17 O         -12.2000   16.8000   26.0500 O.2       2 ALA2        0.0000 
     18 O         -11.4500   17.2400   27.2700 O.2       2 ALA2        0.0000 
     19 N          -8.0400   21.3500   25.5500 N.am      2 ALA2        0.0000 
     20 N          -7.7700   23.1900   26.5700 N.am      2 ALA2        0.0000 
     21 N          -8.2500   24.6000   26.3600 N.am      2 ALA2        0.0000 
     22 N         -11.8800   23.7300   28.8900 N.am      2 ALA2        0.0000 
     23 OD1       -10.0500   15.5300   23.3500 O.co2     3 ASP3        0.0000 
     24 OD1       -11.2600   15.2500   24.1900 O.co2     3 ASP3        0.0000 
     25 OD1       -10.5100   15.6800   25.4100 O.co2     3 ASP3        0.0000 
     26 OD1       -10.6700   24.0200   28.0400 O.co2     3 ASP3        0.0000 
     27 OD1        -9.9200   24.4600   29.2700 O.co2     3 ASP3        0.0000 
     28 OD1       -11.1300   24.1700   30.1100 O.co2     3 ASP3        0.0000 
     29 OD1       -10.3800   24.6100   31.3300 O.co2     3 ASP3        0.0000 
     30 OD1       -10.1100   26.4500   32.3500 O.co2     3 ASP3        0.0000 
     31 NZ         -8.8500   15.8200   22.5100 N.4       4 LYS4        0.0000 
     32 NZ         -8.1000   16.2600   23.7300 N.4       4 LYS4        0.0000 
     33 NZ         -9.3100   15.9700   24.5700 N.4       4 LYS4        0.0000 
     34 NZ         -7.3500   16.7000   24.9500 N.4       4 LYS4        0.0000 
     35 NZ        -12.8000   24.0300   33.0200 N.4       4 LYS4        0.0000 
     36 NZ        -11.3200   26.1600   33.1900 N.4       4 LYS4        0.0000 
     37 CZ         -8.3900   15.6700   20.4400 C.ar      5 PHE5        0.0000 
     38 CZ         -7.6400   16.1100   21.6600 C.ar      5 PHE5        0.0000 
     39 CZ        -12.4700   14.9600   25.0300 C.ar      5 PHE5        0.0000 
     40 CZ         -8.5000   21.5000   27.6200 C.ar      5 PHE5        0.0000 
     41 CZ         -8.9800   22.9000   27.4100 C.ar      5 PHE5        0.0000 
     42 CZ         -9.4600   24.3100   27.2000 C.ar      5 PHE5        0.0000 
     43 CZ         -9.2300   19.8000   28.6700 C.ar      5 PHE5        0.0000 
     44 CZ         -9.7100   21.2100   28.4600 C.ar      5 PHE5        0.0000 
     45 CZ        -10.1900   22.6200   28.2500 C.ar      5 PHE5        0.0000 
     46 CZ         -9.9600   18.1100   29.7200 C.ar      5 PHE5        0.0000 
     47 CZ        -10.4400   19.5200   29.5100 C.ar      5 PHE5        0.0000 
     48 CZ        -10.9200   20.9200   29.3000 C.ar      5 PHE5        0.0000 
     49 CZ         -8.7100   24.7500   28.4300 C.ar      5 PHE5        0.0000 
     50 CZ         -8.0000   18.8400   30.1000 C.ar      5 PHE5        0.0000 
     51 CZ         -8.4800   20.2400   29.8900 C.ar      5 PHE5        0.0000 
     52 CZ         -8.9600   21.6500   29.6900 C.ar      5 PHE5        0.0000 
     53 CZ         -9.4400   23.0500   29.4800 C.ar      5 PHE5        0.0000 
     54 CZ         -9.6900   19.9500   30.7300 C.ar      5 PHE5        0.0000 
     55 CZ        -10.1700   21.3600   30.5300 C.ar      5 PHE5        0.0000 
     56 CZ        -10.6500   22.7600   30.3200 C.ar      5 PHE5        0.0000 
     57 CZ         -8.9400   20.3900   31.9600 C.ar      5 PHE5        0.0000 
     58 CZ         -9.4200   21.8000   31.7500 C.ar      5 PHE5        0.0000 
     59 CZ        -10.6300   21.5100   32.5900 C.ar      5 PHE5        0.0000 
     60 CZ        -11.1100   22.9100   32.3800 C.ar      5 PHE5        0.0000 
     61 CZ        -12.3200   22.6300   33.2300 C.ar      5 PHE5        0.0000 
     62 CA        -11.4700   18.4900   25.0000 C.3       6 GLY6        0.0000 
     63 CA        -11.9500   19.9000   24.7900 C.3       6 GLY6        0.0000 
     64 CA        -11.7200   15.3900   26.2500 C.3       6 GLY6        0.0000 
     65 CA        -12.6800   18.2100   25.8400 C.3       6 GLY6        0.0000 
     66 CA        -10.0000   20.6200   25.1700 C.3       6 GLY6        0.0000 
     67 CA         -9.7700   16.1200   26.6400 C.3       6 GLY6        0.0000 
     68 CA        -10.7300   18.9300   26.2200 C.3       6 GLY6        0.0000 
     69 CA         -4.6600   19.1100   24.2900 C.3       6 GLY6        0.0000 
     70 CA         -5.3900   17.4200   25.3400 C.3       6 GLY6        0.0000 
     71 CA         -5.8700   18.8300   25.1300 C.3       6 GLY6        0.0000 
     72 CA         -9.9800   19.3700   27.4400 C.3       6 GLY6        0.0000 
     73 CA        -10.4600   20.7700   27.2400 C.3       6 GLY6        0.0000 
     74 CA        -10.9400   22.1800   27.0300 C.3       6 GLY6        0.0000 
     75 CA        -11.4200   23.5800   26.8200 C.3       6 GLY6        0.0000 
     76 CA        -10.7100   17.6700   28.4900 C.3       6 GLY6        0.0000 
     77 CA        -11.1900   19.0800   28.2900 C.3       6 GLY6        0.0000 
     78 CA        -11.4000   22.3300   29.0900 C.3       6 GLY6        0.0000 
     79 CA         -9.2100   18.5500   30.9400 C.3       6 GLY6        0.0000 
     80 CA         -9.1700   24.9000   30.4900 C.3       6 GLY6        0.0000 
     81 CA         -8.4600   18.9800   32.1700 C.3       6 GLY6        0.0000 
     82 CA         -9.9000   23.2000   31.5400 C.3       6 GLY6        0.0000 
     83 CA        -10.1500   20.1000   32.8000 C.3       6 GLY6        0.0000 
     84 CA        -11.5900   24.3200   32.1800 C.3       6 GLY6        0.0000 
     85 DU        -10.5300   16.9400   23.1400 H         7 CUB7        0.0000 
     86 DU        -11.7400   16.6500   23.9800 H         7 CUB7        0.0000 
     87 DU         -8.5800   17.6600   23.5200 H         7 CUB7        0.0000 
     88 DU         -9.7900   17.3800   24.3600 H         7 CUB7        0.0000 
     89 DU        -10.2700   18.7800   24.1600 H         7 CUB7        0.0000 
     90 DU        -10.9900   17.0900   25.2000 H         7 CUB7        0.0000 
     91 DU         -7.8300   18.1000   24.7500 H         7 CUB7        0.0000 
     92 DU         -9.0400   17.8100   25.5900 H         7 CUB7        0.0000 
     93 DU         -9.5200   19.2200   25.3800 H         7 CUB7        0.0000 
     94 DU        -10.2500   17.5200   26.4300 H         7 CUB7        0.0000 
     95 DU         -8.7700   19.6600   26.6000 H         7 CUB7        0.0000 
     96 DU         -9.2500   21.0600   26.4000 H         7 CUB7        0.0000 
     97 DU         -9.7300   22.4700   26.1900 H         7 CUB7        0.0000 
@<TRIPOS>BOND
@<TRIPOS>SUBSTRUCTURE
     1 SER1        1 GROUP   
     2 ALA2       15 GROUP   
     3 ASP3       23 GROUP   
     4 LYS4       31 GROUP   
     5 PHE5       37 GROUP   
     6 GLY6       62 GROUP   
     7 CUB7       85 GROUP   
@<TRIPOS>SET

