#    Name: 6f33_1_ZAN
#    Modification time : Fri May 22 19:32:21 2020

@<TRIPOS>MOLECULE
6f33_1_ZAN
   31    33     1     0     0
SMALL
NO_CHARGES


@<TRIPOS>ATOM
      1 PA        -11.6780   15.0740   25.6480 P.3       1 ZAN1001     0.0000 
      2 PB        -11.3600   15.7270   22.7760 P.3       1 ZAN1001     0.0000 
      3 PG        -13.7190   14.5480   21.4880 P.3       1 ZAN1001     0.0000 
      4 O1A       -12.9530   14.5360   26.4160 O.co2     1 ZAN1001     0.0000 
      5 O1B       -10.0630   15.0710   22.8300 O.co2     1 ZAN1001     0.0000 
      6 O1G       -14.4950   14.8100   22.7450 O.co2     1 ZAN1001     0.0000 
      7 O2A       -10.6940   14.0050   25.5690 O.co2     1 ZAN1001     0.0000 
      8 O2B       -11.1510   17.2790   22.5350 O.co2     1 ZAN1001     0.0000 
      9 O2G       -13.5230   13.0510   21.2120 O.co2     1 ZAN1001     0.0000 
     10 N3A       -12.1980   15.5470   24.1700 N.3       1 ZAN1001     0.0000 
     11 O3B       -12.2560   15.1770   21.5710 O.3       1 ZAN1001     0.0000 
     12 O3G       -14.3620   15.1790   20.2470 O.co2     1 ZAN1001     0.0000 
     13 O5'       -11.1530   16.3450   26.4030 O.3       1 ZAN1001     0.0000 
     14 C5'        -9.7400   16.5720   26.6090 C.3       1 ZAN1001     0.0000 
     15 C4'        -9.4360   18.0320   26.3910 C.3       1 ZAN1001     0.0000 
     16 O4'       -10.1650   18.8220   27.3520 O.3       1 ZAN1001     0.0000 
     17 C3'        -7.9810   18.4280   26.5910 C.3       1 ZAN1001     0.0000 
     18 O3'        -7.1940   18.1700   25.4340 O.3       1 ZAN1001     0.0000 
     19 C2'        -8.0890   19.9180   26.9300 C.3       1 ZAN1001     0.0000 
     20 O2'        -8.0710   20.7750   25.7930 O.3       1 ZAN1001     0.0000 
     21 C1'        -9.4310   19.9900   27.6750 C.3       1 ZAN1001     0.0000 
     22 N9         -9.3220   20.0890   29.1310 N.pl3     1 ZAN1001     0.0000 
     23 C8         -8.7000   19.2070   29.9760 C.2       1 ZAN1001     0.0000 
     24 N7         -8.7370   19.5560   31.2390 N.2       1 ZAN1001     0.0000 
     25 C5         -9.4390   20.7510   31.2280 C.ar      1 ZAN1001     0.0000 
     26 C6         -9.8320   21.6310   32.2570 C.ar      1 ZAN1001     0.0000 
     27 N6         -9.5180   21.4550   33.5450 N.pl3     1 ZAN1001     0.0000 
     28 N1        -10.5490   22.7250   31.9100 N.ar      1 ZAN1001     0.0000 
     29 C2        -10.8390   22.9230   30.6170 C.ar      1 ZAN1001     0.0000 
     30 N3        -10.5140   22.1700   29.5600 N.ar      1 ZAN1001     0.0000 
     31 C4         -9.8100   21.0910   29.9350 C.ar      1 ZAN1001     0.0000 
@<TRIPOS>BOND
     1    1    4 ar   
     2    1    7 ar   
     3    1   10 1    
     4    1   13 1    
     5    2    5 ar   
     6    2    8 ar   
     7    2   10 1    
     8    2   11 1    
     9    3    6 ar   
    10    3    9 ar   
    11    3   11 1    
    12    3   12 ar   
    13   13   14 1    
    14   14   15 1    
    15   15   16 1    
    16   15   17 1    
    17   16   21 1    
    18   17   18 1    
    19   17   19 1    
    20   19   20 1    
    21   19   21 1    
    22   21   22 1    
    23   22   23 1    
    24   22   31 1    
    25   23   24 2    
    26   24   25 1    
    27   25   26 ar   
    28   25   31 ar   
    29   26   27 1    
    30   26   28 ar   
    31   28   29 ar   
    32   29   30 ar   
    33   30   31 ar   
@<TRIPOS>SUBSTRUCTURE
     1 ZAN1001     1 GROUP   
@<TRIPOS>SET

