#    Name: 6f33_2_ZAN
#    Modification time : Fri May 22 19:32:30 2020

@<TRIPOS>MOLECULE
6f33_2_ZAN
   31    33     1     0     0
SMALL
NO_CHARGES


@<TRIPOS>ATOM
      1 PA         14.1440  -17.5960    8.5630 P.3       1 ZAN1001     0.0000 
      2 PB         12.9410  -19.3680   10.6120 P.3       1 ZAN1001     0.0000 
      3 PG         10.2900  -20.4200    9.9670 P.3       1 ZAN1001     0.0000 
      4 O1A        13.2710  -16.4270    9.1670 O.co2     1 ZAN1001     0.0000 
      5 O1B        13.4160  -20.3340   11.5900 O.co2     1 ZAN1001     0.0000 
      6 O1G        10.2600  -21.9280    9.6990 O.co2     1 ZAN1001     0.0000 
      7 O2A        13.5430  -17.9950    7.3010 O.co2     1 ZAN1001     0.0000 
      8 O2B        12.3290  -18.1300   11.3830 O.co2     1 ZAN1001     0.0000 
      9 O2G        10.0550  -20.2000   11.4680 O.co2     1 ZAN1001     0.0000 
     10 N3A        14.1470  -18.8190    9.6510 N.3       1 ZAN1001     0.0000 
     11 O3B        11.7860  -19.9550    9.6760 O.3       1 ZAN1001     0.0000 
     12 O3G         9.3290  -19.6610    9.1130 O.co2     1 ZAN1001     0.0000 
     13 O5'        15.6040  -17.0300    8.4870 O.3       1 ZAN1001     0.0000 
     14 C5'        16.7480  -17.7830    8.0270 C.3       1 ZAN1001     0.0000 
     15 C4'        17.5240  -18.3500    9.1940 C.3       1 ZAN1001     0.0000 
     16 O4'        18.7640  -18.9240    8.7260 O.3       1 ZAN1001     0.0000 
     17 C3'        17.9050  -17.3850   10.3130 C.3       1 ZAN1001     0.0000 
     18 O3'        17.8400  -18.0140   11.5880 O.3       1 ZAN1001     0.0000 
     19 C2'        19.3190  -16.9400    9.9230 C.3       1 ZAN1001     0.0000 
     20 O2'        20.1140  -16.6350   11.0640 O.3       1 ZAN1001     0.0000 
     21 C1'        19.8710  -18.1680    9.1820 C.3       1 ZAN1001     0.0000 
     22 N9         20.7190  -17.8580    8.0300 N.pl3     1 ZAN1001     0.0000 
     23 C8         20.7230  -16.7030    7.2920 C.2       1 ZAN1001     0.0000 
     24 N7         21.5990  -16.6910    6.3160 N.2       1 ZAN1001     0.0000 
     25 C5         22.2150  -17.9280    6.4140 C.ar      1 ZAN1001     0.0000 
     26 C6         23.2430  -18.5390    5.6670 C.ar      1 ZAN1001     0.0000 
     27 N6         23.8700  -17.9470    4.6460 N.pl3     1 ZAN1001     0.0000 
     28 N1         23.6210  -19.7890    6.0200 N.ar      1 ZAN1001     0.0000 
     29 C2         23.0120  -20.3780    7.0570 C.ar      1 ZAN1001     0.0000 
     30 N3         22.0370  -19.9000    7.8390 N.ar      1 ZAN1001     0.0000 
     31 C4         21.6810  -18.6620    7.4640 C.ar      1 ZAN1001     0.0000 
@<TRIPOS>BOND
     1    1    4 ar   
     2    1    7 ar   
     3    1   10 1    
     4    1   13 1    
     5    2    5 ar   
     6    2    8 ar   
     7    2   10 1    
     8    2   11 1    
     9    3    6 ar   
    10    3    9 ar   
    11    3   11 1    
    12    3   12 ar   
    13   13   14 1    
    14   14   15 1    
    15   15   16 1    
    16   15   17 1    
    17   16   21 1    
    18   17   18 1    
    19   17   19 1    
    20   19   20 1    
    21   19   21 1    
    22   21   22 1    
    23   22   23 1    
    24   22   31 1    
    25   23   24 2    
    26   24   25 1    
    27   25   26 ar   
    28   25   31 ar   
    29   26   27 1    
    30   26   28 ar   
    31   28   29 ar   
    32   29   30 ar   
    33   30   31 ar   
@<TRIPOS>SUBSTRUCTURE
     1 ZAN1001     1 GROUP   
@<TRIPOS>SET

