#    Name: 6evw_6_G2P_CAVITY_N1_4
#    Modification time : Fri May 22 19:28:56 2020

@<TRIPOS>MOLECULE
6evw_6_G2P_CAVITY_N1_4
  106     0     6     0     0
SMALL
NO_CHARGES


@<TRIPOS>ATOM
      1 OG         73.9700   38.8700  180.4600 O.3       1 SER1        0.0000 
      2 OG         74.4300   36.4500  182.1700 O.3       1 SER1        0.0000 
      3 OG         72.9600   36.3800  182.4700 O.3       1 SER1        0.0000 
      4 OG         74.6500   35.2400  183.0300 O.3       1 SER1        0.0000 
      5 OG         73.9400   40.9600  180.7900 O.3       1 SER1        0.0000 
      6 OG         74.1600   39.7500  181.6500 O.3       1 SER1        0.0000 
      7 OG         72.6900   39.6800  181.9400 O.3       1 SER1        0.0000 
      8 OG         80.2700   38.8200  181.3400 O.3       1 SER1        0.0000 
      9 OG         72.9200   38.4700  182.8000 O.3       1 SER1        0.0000 
     10 OG         74.6200   37.3300  183.3700 O.3       1 SER1        0.0000 
     11 OG         74.8500   36.1300  184.2300 O.3       1 SER1        0.0000 
     12 OG         72.6600   41.7800  182.2800 O.3       1 SER1        0.0000 
     13 OG         78.7700   40.8500  181.9700 O.3       1 SER1        0.0000 
     14 OG         79.0000   39.6400  182.8300 O.3       1 SER1        0.0000 
     15 OG         73.1200   39.3600  184.0000 O.3       1 SER1        0.0000 
     16 OG         74.8200   38.2200  184.5600 O.3       1 SER1        0.0000 
     17 OG         78.9600   41.7300  183.1600 O.3       1 SER1        0.0000 
     18 OG         73.5400   39.0300  186.0500 O.3       1 SER1        0.0000 
     19 OG         72.0700   38.9600  186.3400 O.3       1 SER1        0.0000 
     20 N          77.7600   38.5100  176.3300 N.am      2 ALA2        0.0000 
     21 N          73.8000   35.8900  178.9300 N.am      2 ALA2        0.0000 
     22 O          72.3300   35.8200  179.2200 O.2       2 ALA2        0.0000 
     23 N          77.7200   40.6100  176.6700 N.am      2 ALA2        0.0000 
     24 N          79.4200   39.4700  177.2300 N.am      2 ALA2        0.0000 
     25 N          77.9500   39.4000  177.5200 N.am      2 ALA2        0.0000 
     26 O          72.3000   37.9100  179.5600 O.2       2 ALA2        0.0000 
     27 O          74.0000   36.7700  180.1200 O.2       2 ALA2        0.0000 
     28 O          74.2300   35.5600  180.9800 O.2       2 ALA2        0.0000 
     29 O          75.9300   34.4200  181.5400 O.2       2 ALA2        0.0000 
     30 O          79.6200   40.3500  178.4300 O.2       2 ALA2        0.0000 
     31 N          78.1500   40.2800  178.7200 N.am      2 ALA2        0.0000 
     32 N          76.6800   40.2100  179.0100 N.am      2 ALA2        0.0000 
     33 N          75.2100   40.1400  179.3100 N.am      2 ALA2        0.0000 
     34 N          79.8500   39.1500  179.2800 N.am      2 ALA2        0.0000 
     35 N          78.3800   39.0800  179.5800 N.am      2 ALA2        0.0000 
     36 N          76.9100   39.0100  179.8700 N.am      2 ALA2        0.0000 
     37 N          75.4400   38.9400  180.1600 N.am      2 ALA2        0.0000 
     38 N          78.6000   37.8700  180.4400 N.am      2 ALA2        0.0000 
     39 N          77.1400   37.8000  180.7300 N.am      2 ALA2        0.0000 
     40 O          78.8300   36.6600  181.2900 O.2       2 ALA2        0.0000 
     41 O          77.3600   36.5900  181.5900 O.2       2 ALA2        0.0000 
     42 O          75.8900   36.5200  181.8800 O.2       2 ALA2        0.0000 
     43 O          79.0600   35.4500  182.1500 O.2       2 ALA2        0.0000 
     44 O          77.5900   35.3800  182.4500 O.2       2 ALA2        0.0000 
     45 O          76.3500   34.1000  183.6000 O.2       2 ALA2        0.0000 
     46 N          78.3400   41.1700  179.9100 N.am      2 ALA2        0.0000 
     47 N          76.8700   41.1000  180.2100 N.am      2 ALA2        0.0000 
     48 O          72.8900   40.5700  183.1400 O.2       2 ALA2        0.0000 
     49 O          71.6500   39.2900  184.2900 O.2       2 ALA2        0.0000 
     50 O          74.3300   42.7300  183.1800 O.2       2 ALA2        0.0000 
     51 N          77.2300   44.9700  182.9300 N.am      2 ALA2        0.0000 
     52 N          74.5200   43.6200  184.3800 N.am      2 ALA2        0.0000 
     53 NZ         74.4600   34.3500  181.8400 N.4       3 LYS4        0.0000 
     54 NZ         72.9900   34.2800  182.1300 N.4       3 LYS4        0.0000 
     55 NZ         77.3300   38.6800  181.9200 N.4       3 LYS4        0.0000 
     56 NZ         79.0300   37.5400  182.4900 N.4       3 LYS4        0.0000 
     57 NZ         77.5600   37.4700  182.7800 N.4       3 LYS4        0.0000 
     58 NZ         76.0900   37.4000  183.0800 N.4       3 LYS4        0.0000 
     59 NZ         79.2600   36.3400  183.3500 N.4       3 LYS4        0.0000 
     60 NZ         77.5300   39.5700  183.1200 N.4       3 LYS4        0.0000 
     61 NZ         76.0600   39.5000  183.4100 N.4       3 LYS4        0.0000 
     62 CZ         79.8100   41.2400  179.6200 C.ar      4 PHE5        0.0000 
     63 CZ         80.0400   40.0300  180.4800 C.ar      4 PHE5        0.0000 
     64 CZ         78.5700   39.9600  180.7700 C.ar      4 PHE5        0.0000 
     65 CZ         78.5400   42.0600  181.1100 C.ar      4 PHE5        0.0000 
     66 CZ         78.7400   42.9400  182.3000 C.ar      4 PHE5        0.0000 
     67 CA         79.0000   39.7900  175.1800 C.3       5 GLY6        0.0000 
     68 CA         77.5300   39.7200  175.4700 C.3       5 GLY6        0.0000 
     69 CA         79.2200   38.5800  176.0400 C.3       5 GLY6        0.0000 
     70 CA         74.0300   34.6800  179.7800 C.3       5 GLY6        0.0000 
     71 CA         76.4800   39.3300  177.8200 C.3       5 GLY6        0.0000 
     72 CA         75.0100   39.2600  178.1100 C.3       5 GLY6        0.0000 
     73 CA         73.5400   39.1900  178.4000 C.3       5 GLY6        0.0000 
     74 CA         75.2400   38.0500  178.9700 C.3       5 GLY6        0.0000 
     75 CA         73.7700   37.9800  179.2600 C.3       5 GLY6        0.0000 
     76 CA         72.5300   36.7000  180.4100 C.3       5 GLY6        0.0000 
     77 CA         72.7600   35.4900  181.2700 C.3       5 GLY6        0.0000 
     78 CA         72.5000   38.8000  180.7500 C.3       5 GLY6        0.0000 
     79 CA         72.7300   37.5900  181.6100 C.3       5 GLY6        0.0000 
     80 CA         76.1200   35.3100  182.7400 C.3       5 GLY6        0.0000 
     81 CA         77.8200   34.1700  183.3000 C.3       5 GLY6        0.0000 
     82 CA         75.4000   41.0300  180.5000 C.3       5 GLY6        0.0000 
     83 CA         77.0700   41.9900  181.4000 C.3       5 GLY6        0.0000 
     84 CA         75.6000   41.9200  181.7000 C.3       5 GLY6        0.0000 
     85 CA         74.1300   41.8500  181.9900 C.3       5 GLY6        0.0000 
     86 CA         77.0400   44.0800  181.7400 C.3       5 GLY6        0.0000 
     87 CA         75.8000   42.8000  182.8900 C.3       5 GLY6        0.0000 
     88 CA         71.8500   40.1700  185.4900 C.3       5 GLY6        0.0000 
     89 CA         70.3800   40.1000  185.7800 C.3       5 GLY6        0.0000 
     90 CA         75.7600   44.9000  183.2300 C.3       5 GLY6        0.0000 
     91 DU         74.2000   37.6600  181.3200 H         6 CUB7        0.0000 
     92 DU         77.1000   39.8900  181.0700 H         6 CUB7        0.0000 
     93 DU         75.6300   39.8200  181.3600 H         6 CUB7        0.0000 
     94 DU         78.8000   38.7500  181.6300 H         6 CUB7        0.0000 
     95 DU         75.8600   38.6100  182.2200 H         6 CUB7        0.0000 
     96 DU         74.3900   38.5400  182.5100 H         6 CUB7        0.0000 
     97 DU         77.3000   40.7800  182.2600 H         6 CUB7        0.0000 
     98 DU         75.8300   40.7100  182.5500 H         6 CUB7        0.0000 
     99 DU         74.3600   40.6400  182.8500 H         6 CUB7        0.0000 
    100 DU         74.5900   39.4300  183.7000 H         6 CUB7        0.0000 
    101 DU         77.2700   42.8700  182.6000 H         6 CUB7        0.0000 
    102 DU         77.4900   41.6600  183.4600 H         6 CUB7        0.0000 
    103 DU         76.0300   41.5900  183.7500 H         6 CUB7        0.0000 
    104 DU         74.5600   41.5200  184.0400 H         6 CUB7        0.0000 
    105 DU         73.0900   41.4500  184.3300 H         6 CUB7        0.0000 
    106 DU         75.9900   43.6900  184.0800 H         6 CUB7        0.0000 
@<TRIPOS>BOND
@<TRIPOS>SUBSTRUCTURE
     1 SER1        1 GROUP   
     2 ALA2       20 GROUP   
     3 LYS4       53 GROUP   
     4 PHE5       62 GROUP   
     5 GLY6       67 GROUP   
     6 CUB7       91 GROUP   
@<TRIPOS>SET

