#    Name: 6evw_8_GTP
#    Modification time : Fri May 22 19:29:30 2020

@<TRIPOS>MOLECULE
6evw_8_GTP
   32    34     1     0     1
SMALL
NO_CHARGES


@<TRIPOS>ATOM
      1 PG         68.5380   43.5900  144.5290 P.3       1 GTP501      0.0000 
      2 O1G        69.8910   44.1800  144.6890 O.co2     1 GTP501      0.0000 
      3 O2G        67.4260   44.4770  145.0680 O.co2     1 GTP501      0.0000 
      4 O3G        68.4100   42.1990  145.1320 O.co2     1 GTP501      0.0000 
      5 O3B        68.2310   43.4250  142.9790 O.3       1 GTP501      0.0000 
      6 PB         69.1320   43.8730  141.7490 P.3       1 GTP501      0.0000 
      7 O1B        68.4770   43.3810  140.4680 O.co2     1 GTP501      0.0000 
      8 O2B        69.2710   45.3410  141.7380 O.co2     1 GTP501      0.0000 
      9 O3A        70.5450   43.1670  141.9430 O.3       1 GTP501      0.0000 
     10 PA         71.7820   42.9700  140.9610 P.3       1 GTP501      0.0000 
     11 O1A        71.4660   43.7250  139.6810 O.co2     1 GTP501      0.0000 
     12 O2A        73.0000   43.5260  141.5840 O.co2     1 GTP501      0.0000 
     13 O5'        71.9510   41.4390  140.5720 O.3       1 GTP501      0.0000 
     14 C5'        72.9230   40.5560  141.1690 C.3       1 GTP501      0.0000 
     15 C4'        73.5770   39.7330  140.0890 C.3       1 GTP501      0.0000 
     16 O4'        74.4440   40.5730  139.2940 O.3       1 GTP501      0.0000 
     17 C3'        74.4380   38.5710  140.5900 C.3       1 GTP501      0.0000 
     18 O3'        74.1910   37.3920  139.8330 O.3       1 GTP501      0.0000 
     19 C2'        75.8650   39.0860  140.3970 C.3       1 GTP501      0.0000 
     20 O2'        76.7690   38.0230  140.1280 O.3       1 GTP501      0.0000 
     21 C1'        75.7010   39.9480  139.1550 C.3       1 GTP501      0.0000 
     22 N9         76.7240   40.9900  139.0290 N.pl3     1 GTP501      0.0000 
     23 C8         77.3700   41.6420  140.0420 C.2       1 GTP501      0.0000 
     24 N7         78.2330   42.5320  139.6170 N.2       1 GTP501      0.0000 
     25 C5         78.1460   42.4580  138.2370 C.2       1 GTP501      0.0000 
     26 C6         78.8310   43.1780  137.2140 C.2       1 GTP501      0.0000 
     27 O6         79.6680   44.0620  137.3610 O.2       1 GTP501      0.0000 
     28 N1         78.4480   42.7830  135.9510 N.am      1 GTP501      0.0000 
     29 C2         77.5200   41.8210  135.6780 C.2       1 GTP501      0.0000 
     30 N2         77.2770   41.5620  134.3940 N.pl3     1 GTP501      0.0000 
     31 N3         76.8670   41.1460  136.6220 N.2       1 GTP501      0.0000 
     32 C4         77.2250   41.5110  137.8640 C.2       1 GTP501      0.0000 
@<TRIPOS>BOND
     1    1    2 ar   
     2    1    3 ar   
     3    1    4 ar   
     4    1    5 1    
     5    5    6 1    
     6    6    7 ar   
     7    6    8 ar   
     8    6    9 1    
     9    9   10 1    
    10   10   11 ar   
    11   10   12 ar   
    12   10   13 1    
    13   13   14 1    
    14   14   15 1    
    15   15   16 1    
    16   15   17 1    
    17   16   21 1    
    18   17   18 1    
    19   17   19 1    
    20   19   20 1    
    21   19   21 1    
    22   21   22 1    
    23   22   23 1    
    24   22   32 1    
    25   23   24 2    
    26   24   25 1    
    27   25   26 1    
    28   25   32 2    
    29   26   27 2    
    30   26   28 am   
    31   28   29 1    
    32   29   30 1    
    33   29   31 2    
    34   31   32 1    
@<TRIPOS>SUBSTRUCTURE
     1 GTP501      1 GROUP   
@<TRIPOS>SET
ATOM$ORANGE STATIC     ATOMS   COLORGROUP SYSTEM 
20 14 14 15 15 17 17 19 19 21 21 23 23 25 25 26 26 29 \
29 32 32 

