#    Name: 6evw_5_G2P
#    Modification time : Fri May 22 19:28:45 2020

@<TRIPOS>MOLECULE
6evw_5_G2P
   32    34     1     0     0
SMALL
NO_CHARGES


@<TRIPOS>ATOM
      1 PG         40.3680   90.0630  195.9460 P.3       1 G2P501      0.0000 
      2 O1G        40.1230   88.7600  196.6070 O.co2     1 G2P501      0.0000 
      3 O2G        41.7640   90.6160  196.2110 O.co2     1 G2P501      0.0000 
      4 O3G        39.3510   91.1270  196.3300 O.co2     1 G2P501      0.0000 
      5 O3B        40.2690   89.9070  194.3660 O.3       1 G2P501      0.0000 
      6 PB         41.4040   89.9080  193.2760 P.3       1 G2P501      0.0000 
      7 O1B        42.0690   91.2560  193.1990 O.co2     1 G2P501      0.0000 
      8 O2B        40.7130   89.6320  191.9110 O.co2     1 G2P501      0.0000 
      9 C3A        42.4060   88.4600  193.6390 C.3       1 G2P501      0.0000 
     10 PA         43.1400   87.6540  192.2080 P.3       1 G2P501      0.0000 
     11 O1A        44.6260   87.4410  192.1780 O.co2     1 G2P501      0.0000 
     12 O2A        42.7660   88.5440  190.9900 O.co2     1 G2P501      0.0000 
     13 O5'        42.3180   86.3200  192.0750 O.3       1 G2P501      0.0000 
     14 C5'        42.6640   85.1530  192.8490 C.3       1 G2P501      0.0000 
     15 C4'        42.7010   83.9520  191.9390 C.3       1 G2P501      0.0000 
     16 O4'        43.7760   84.0980  190.9850 O.3       1 G2P501      0.0000 
     17 C3'        42.9560   82.6210  192.6320 C.3       1 G2P501      0.0000 
     18 O3'        42.3320   81.5580  191.9220 O.3       1 G2P501      0.0000 
     19 C2'        44.4820   82.5220  192.5980 C.3       1 G2P501      0.0000 
     20 O2'        44.9260   81.1710  192.6300 O.3       1 G2P501      0.0000 
     21 C1'        44.7920   83.1440  191.2380 C.3       1 G2P501      0.0000 
     22 N9         46.0850   83.8370  191.1920 N.pl3     1 G2P501      0.0000 
     23 C8         46.4990   84.8590  192.0020 C.2       1 G2P501      0.0000 
     24 N7         47.6550   85.3650  191.6480 N.2       1 G2P501      0.0000 
     25 C5         48.0250   84.6230  190.5400 C.2       1 G2P501      0.0000 
     26 C6         49.1520   84.7290  189.6830 C.2       1 G2P501      0.0000 
     27 O6         50.0590   85.5550  189.7520 O.2       1 G2P501      0.0000 
     28 N1         49.1320   83.7920  188.6710 N.am      1 G2P501      0.0000 
     29 C2         48.1500   82.8580  188.4860 C.2       1 G2P501      0.0000 
     30 N2         48.2960   82.0220  187.4570 N.pl3     1 G2P501      0.0000 
     31 N3         47.0810   82.7570  189.2710 N.2       1 G2P501      0.0000 
     32 C4         47.0770   83.6660  190.2620 C.2       1 G2P501      0.0000 
@<TRIPOS>BOND
     1    1    2 ar   
     2    1    3 ar   
     3    1    4 ar   
     4    1    5 1    
     5    5    6 1    
     6    6    7 ar   
     7    6    8 ar   
     8    6    9 1    
     9    9   10 1    
    10   10   11 ar   
    11   10   12 ar   
    12   10   13 1    
    13   13   14 1    
    14   14   15 1    
    15   15   16 1    
    16   15   17 1    
    17   16   21 1    
    18   17   18 1    
    19   17   19 1    
    20   19   20 1    
    21   19   21 1    
    22   21   22 1    
    23   22   23 1    
    24   22   32 1    
    25   23   24 2    
    26   24   25 1    
    27   25   26 1    
    28   25   32 2    
    29   26   27 2    
    30   26   28 am   
    31   28   29 1    
    32   29   30 1    
    33   29   31 2    
    34   31   32 1    
@<TRIPOS>SUBSTRUCTURE
     1 G2P501      1 GROUP   
@<TRIPOS>SET

