#    Name: 6evw_6_G2P
#    Modification time : Fri May 22 19:28:54 2020

@<TRIPOS>MOLECULE
6evw_6_G2P
   32    34     1     0     0
SMALL
NO_CHARGES


@<TRIPOS>ATOM
      1 PG         68.4070   43.5350  186.2720 P.3       1 G2P501      0.0000 
      2 O1G        68.7950   42.2520  186.9010 O.co2     1 G2P501      0.0000 
      3 O2G        69.3870   44.6670  186.5620 O.co2     1 G2P501      0.0000 
      4 O3G        67.0150   43.9960  186.6710 O.co2     1 G2P501      0.0000 
      5 O3B        68.3880   43.3900  184.6870 O.3       1 G2P501      0.0000 
      6 PB         69.4050   43.9240  183.6130 P.3       1 G2P501      0.0000 
      7 O1B        69.3810   45.4280  183.5650 O.co2     1 G2P501      0.0000 
      8 O2B        68.9240   43.3870  182.2360 O.co2     1 G2P501      0.0000 
      9 C3A        70.9550   43.0850  183.9700 C.3       1 G2P501      0.0000 
     10 PA         71.9790   42.7060  182.5410 P.3       1 G2P501      0.0000 
     11 O1A        73.3970   43.2040  182.5050 O.co2     1 G2P501      0.0000 
     12 O2A        71.2340   43.3140  181.3210 O.co2     1 G2P501      0.0000 
     13 O5'        71.8780   41.1410  182.4160 O.3       1 G2P501      0.0000 
     14 C5'        72.7420   40.2760  183.1810 C.3       1 G2P501      0.0000 
     15 C4'        73.3250   39.2280  182.2680 C.3       1 G2P501      0.0000 
     16 O4'        74.2080   39.8550  181.3110 O.3       1 G2P501      0.0000 
     17 C3'        74.1680   38.1640  182.9560 C.3       1 G2P501      0.0000 
     18 O3'        74.1040   36.9360  182.2400 O.3       1 G2P501      0.0000 
     19 C2'        75.5660   38.7820  182.9200 C.3       1 G2P501      0.0000 
     20 O2'        76.5870   37.7920  182.9480 O.3       1 G2P501      0.0000 
     21 C1'        75.5500   39.4800  181.5620 C.3       1 G2P501      0.0000 
     22 N9         76.3750   40.6930  181.5190 N.pl3     1 G2P501      0.0000 
     23 C8         76.2650   41.7910  182.3280 C.2       1 G2P501      0.0000 
     24 N7         77.0570   42.7750  181.9780 N.2       1 G2P501      0.0000 
     25 C5         77.7330   42.2890  180.8730 C.2       1 G2P501      0.0000 
     26 C6         78.6840   42.9060  180.0190 C.2       1 G2P501      0.0000 
     27 O6         79.1050   44.0580  180.0890 O.2       1 G2P501      0.0000 
     28 N1         79.1040   42.0670  179.0080 N.am      1 G2P501      0.0000 
     29 C2         78.6690   40.7850  178.8210 C.2       1 G2P501      0.0000 
     30 N2         79.1880   40.1130  177.7930 N.pl3     1 G2P501      0.0000 
     31 N3         77.7670   40.1990  179.6040 N.2       1 G2P501      0.0000 
     32 C4         77.3390   41.0010  180.5930 C.2       1 G2P501      0.0000 
@<TRIPOS>BOND
     1    1    2 ar   
     2    1    3 ar   
     3    1    4 ar   
     4    1    5 1    
     5    5    6 1    
     6    6    7 ar   
     7    6    8 ar   
     8    6    9 1    
     9    9   10 1    
    10   10   11 ar   
    11   10   12 ar   
    12   10   13 1    
    13   13   14 1    
    14   14   15 1    
    15   15   16 1    
    16   15   17 1    
    17   16   21 1    
    18   17   18 1    
    19   17   19 1    
    20   19   20 1    
    21   19   21 1    
    22   21   22 1    
    23   22   23 1    
    24   22   32 1    
    25   23   24 2    
    26   24   25 1    
    27   25   26 1    
    28   25   32 2    
    29   26   27 2    
    30   26   28 am   
    31   28   29 1    
    32   29   30 1    
    33   29   31 2    
    34   31   32 1    
@<TRIPOS>SUBSTRUCTURE
     1 G2P501      1 GROUP   
@<TRIPOS>SET

