#    Name: 6evw_10_GTP
#    Modification time : Fri May 22 19:30:05 2020

@<TRIPOS>MOLECULE
6evw_10_GTP
   32    34     1     0     1
SMALL
NO_CHARGES


@<TRIPOS>ATOM
      1 PG         37.0840  144.2420   80.0710 P.3       1 GTP501      0.0000 
      2 O1G        38.5100  143.7790   80.3480 O.co2     1 GTP501      0.0000 
      3 O2G        36.9790  145.7210   80.4120 O.co2     1 GTP501      0.0000 
      4 O3G        36.0640  143.4030   80.7310 O.co2     1 GTP501      0.0000 
      5 O3B        36.9250  144.1580   78.4910 O.3       1 GTP501      0.0000 
      6 PB         37.9930  143.6790   77.4150 P.3       1 GTP501      0.0000 
      7 O1B        37.4130  143.9020   76.0300 O.co2     1 GTP501      0.0000 
      8 O2B        39.2540  144.4260   77.5860 O.co2     1 GTP501      0.0000 
      9 O3A        38.2220  142.1220   77.6510 O.3       1 GTP501      0.0000 
     10 PA         38.7330  140.9730   76.6760 P.3       1 GTP501      0.0000 
     11 O1A        39.1430  141.6500   75.3770 O.co2     1 GTP501      0.0000 
     12 O2A        39.9000  140.2930   77.2750 O.co2     1 GTP501      0.0000 
     13 O5'        37.5500  139.9530   76.3590 O.3       1 GTP501      0.0000 
     14 C5'        37.3820  138.6990   77.0540 C.3       1 GTP501      0.0000 
     15 C4'        37.1710  137.5920   76.0520 C.3       1 GTP501      0.0000 
     16 O4'        38.2520  137.5880   75.1030 O.3       1 GTP501      0.0000 
     17 C3'        37.1890  136.1880   76.6270 C.3       1 GTP501      0.0000 
     18 O3'        35.9170  135.8460   77.1640 O.3       1 GTP501      0.0000 
     19 C2'        37.5300  135.3370   75.4010 C.3       1 GTP501      0.0000 
     20 O2'        36.3580  134.9690   74.6850 O.3       1 GTP501      0.0000 
     21 C1'        38.3800  136.2920   74.5510 C.3       1 GTP501      0.0000 
     22 N9         39.8040  135.9470   74.5130 N.pl3     1 GTP501      0.0000 
     23 C8         40.6400  135.7180   75.5720 C.2       1 GTP501      0.0000 
     24 N7         41.8740  135.4650   75.2100 N.2       1 GTP501      0.0000 
     25 C5         41.8440  135.5320   73.8280 C.2       1 GTP501      0.0000 
     26 C6         42.8740  135.3620   72.8560 C.2       1 GTP501      0.0000 
     27 O6         44.0620  135.1390   73.0650 O.2       1 GTP501      0.0000 
     28 N1         42.4080  135.5030   71.5670 N.am      1 GTP501      0.0000 
     29 C2         41.1150  135.7800   71.2280 C.2       1 GTP501      0.0000 
     30 N2         40.8330  135.8560   69.9290 N.pl3     1 GTP501      0.0000 
     31 N3         40.1470  135.9580   72.1230 N.2       1 GTP501      0.0000 
     32 C4         40.5760  135.8200   73.3880 C.2       1 GTP501      0.0000 
@<TRIPOS>BOND
     1    1    2 ar   
     2    1    3 ar   
     3    1    4 ar   
     4    1    5 1    
     5    5    6 1    
     6    6    7 ar   
     7    6    8 ar   
     8    6    9 1    
     9    9   10 1    
    10   10   11 ar   
    11   10   12 ar   
    12   10   13 1    
    13   13   14 1    
    14   14   15 1    
    15   15   16 1    
    16   15   17 1    
    17   16   21 1    
    18   17   18 1    
    19   17   19 1    
    20   19   20 1    
    21   19   21 1    
    22   21   22 1    
    23   22   23 1    
    24   22   32 1    
    25   23   24 2    
    26   24   25 1    
    27   25   26 1    
    28   25   32 2    
    29   26   27 2    
    30   26   28 am   
    31   28   29 1    
    32   29   30 1    
    33   29   31 2    
    34   31   32 1    
@<TRIPOS>SUBSTRUCTURE
     1 GTP501      1 GROUP   
@<TRIPOS>SET
ATOM$ORANGE STATIC     ATOMS   COLORGROUP SYSTEM 
20 14 14 15 15 17 17 19 19 21 21 23 23 25 25 26 26 29 \
29 32 32 

