#    Name: 6evw_1_G2P
#    Modification time : Fri May 22 19:27:50 2020

@<TRIPOS>MOLECULE
6evw_1_G2P
   32    34     1     0     0
SMALL
NO_CHARGES


@<TRIPOS>ATOM
      1 PG         40.4270   89.9460  112.0850 P.3       1 G2P501      0.0000 
      2 O1G        40.1160   88.5660  112.5350 O.co2     1 G2P501      0.0000 
      3 O2G        41.8400   90.4010  112.4490 O.co2     1 G2P501      0.0000 
      4 O3G        39.4320   90.9860  112.5880 O.co2     1 G2P501      0.0000 
      5 O3B        40.3500   89.9950  110.4970 O.3       1 G2P501      0.0000 
      6 PB         41.4870   89.9180  109.4170 P.3       1 G2P501      0.0000 
      7 O1B        42.1680   91.2530  109.3020 O.co2     1 G2P501      0.0000 
      8 O2B        40.7950   89.6050  108.0610 O.co2     1 G2P501      0.0000 
      9 C3A        42.4540   88.4620  109.8400 C.3       1 G2P501      0.0000 
     10 PA         43.2270   87.6160  108.4540 P.3       1 G2P501      0.0000 
     11 O1A        44.7140   87.4110  108.4750 O.co2     1 G2P501      0.0000 
     12 O2A        42.8880   88.4740  107.2050 O.co2     1 G2P501      0.0000 
     13 O5'        42.4130   86.2750  108.3350 O.3       1 G2P501      0.0000 
     14 C5'        42.7920   85.1020  109.0860 C.3       1 G2P501      0.0000 
     15 C4'        42.8030   83.9070  108.1660 C.3       1 G2P501      0.0000 
     16 O4'        43.8630   84.0500  107.1960 O.3       1 G2P501      0.0000 
     17 C3'        43.0580   82.5680  108.8420 C.3       1 G2P501      0.0000 
     18 O3'        42.4320   81.5160  108.1180 O.3       1 G2P501      0.0000 
     19 C2'        44.5830   82.4680  108.7980 C.3       1 G2P501      0.0000 
     20 O2'        45.0270   81.1170  108.8130 O.3       1 G2P501      0.0000 
     21 C1'        44.8870   83.1030  107.4420 C.3       1 G2P501      0.0000 
     22 N9         46.1730   83.8070  107.4000 N.pl3     1 G2P501      0.0000 
     23 C8         46.5780   84.8280  108.2140 C.2       1 G2P501      0.0000 
     24 N7         47.7280   85.3480  107.8600 N.2       1 G2P501      0.0000 
     25 C5         48.1030   84.6160  106.7470 C.2       1 G2P501      0.0000 
     26 C6         49.2270   84.7370  105.8890 C.2       1 G2P501      0.0000 
     27 O6         50.1280   85.5690  105.9630 O.2       1 G2P501      0.0000 
     28 N1         49.2140   83.8060  104.8720 N.am      1 G2P501      0.0000 
     29 C2         48.2410   82.8640  104.6820 C.2       1 G2P501      0.0000 
     30 N2         48.3910   82.0380  103.6470 N.pl3     1 G2P501      0.0000 
     31 N3         47.1750   82.7480  105.4700 N.2       1 G2P501      0.0000 
     32 C4         47.1650   83.6510  106.4660 C.2       1 G2P501      0.0000 
@<TRIPOS>BOND
     1    1    2 ar   
     2    1    3 ar   
     3    1    4 ar   
     4    1    5 1    
     5    5    6 1    
     6    6    7 ar   
     7    6    8 ar   
     8    6    9 1    
     9    9   10 1    
    10   10   11 ar   
    11   10   12 ar   
    12   10   13 1    
    13   13   14 1    
    14   14   15 1    
    15   15   16 1    
    16   15   17 1    
    17   16   21 1    
    18   17   18 1    
    19   17   19 1    
    20   19   20 1    
    21   19   21 1    
    22   21   22 1    
    23   22   23 1    
    24   22   32 1    
    25   23   24 2    
    26   24   25 1    
    27   25   26 1    
    28   25   32 2    
    29   26   27 2    
    30   26   28 am   
    31   28   29 1    
    32   29   30 1    
    33   29   31 2    
    34   31   32 1    
@<TRIPOS>SUBSTRUCTURE
     1 G2P501      1 GROUP   
@<TRIPOS>SET

