#    Name: 6evw_3_G2P
#    Modification time : Fri May 22 19:28:27 2020

@<TRIPOS>MOLECULE
6evw_3_G2P
   32    34     1     0     0
SMALL
NO_CHARGES


@<TRIPOS>ATOM
      1 PG         37.1540  144.2470  121.8020 P.3       1 G2P501      0.0000 
      2 O1G        36.2030  143.1980  122.2220 O.co2     1 G2P501      0.0000 
      3 O2G        38.5990  143.9490  122.1810 O.co2     1 G2P501      0.0000 
      4 O3G        36.8040  145.6230  122.3330 O.co2     1 G2P501      0.0000 
      5 O3B        37.1330  144.3530  120.2150 O.3       1 G2P501      0.0000 
      6 PB         38.0830  143.7100  119.1440 P.3       1 G2P501      0.0000 
      7 O1B        39.3430  144.5200  119.0370 O.co2     1 G2P501      0.0000 
      8 O2B        37.3200  143.7790  117.7930 O.co2     1 G2P501      0.0000 
      9 C3A        38.2050  141.9630  119.5560 C.3       1 G2P501      0.0000 
     10 PA         38.4920  140.8610  118.1640 P.3       1 G2P501      0.0000 
     11 O1A        39.6830  139.9500  118.1960 O.co2     1 G2P501      0.0000 
     12 O2A        38.6170  141.7770  116.9160 O.co2     1 G2P501      0.0000 
     13 O5'        37.1420  140.0670  118.0230 O.3       1 G2P501      0.0000 
     14 C5'        36.9040  138.8710  118.7920 C.3       1 G2P501      0.0000 
     15 C4'        36.3710  137.8060  117.8690 C.3       1 G2P501      0.0000 
     16 O4'        37.3940  137.4350  116.9200 O.3       1 G2P501      0.0000 
     17 C3'        35.9640  136.5090  118.5510 C.3       1 G2P501      0.0000 
     18 O3'        34.9160  135.8720  117.8310 O.3       1 G2P501      0.0000 
     19 C2'        37.2640  135.7050  118.5230 C.3       1 G2P501      0.0000 
     20 O2'        37.0210  134.3040  118.5450 O.3       1 G2P501      0.0000 
     21 C1'        37.8380  136.1140  117.1690 C.3       1 G2P501      0.0000 
     22 N9         39.3030  136.1150  117.1320 N.pl3     1 G2P501      0.0000 
     23 C8         40.1460  136.8150  117.9500 C.2       1 G2P501      0.0000 
     24 N7         41.4060  136.7120  117.6080 N.2       1 G2P501      0.0000 
     25 C5         41.3890  135.8850  116.4980 C.2       1 G2P501      0.0000 
     26 C6         42.4380  135.4390  115.6560 C.2       1 G2P501      0.0000 
     27 O6         43.6290  135.7280  115.7420 O.2       1 G2P501      0.0000 
     28 N1         41.9860  134.6220  114.6400 N.am      1 G2P501      0.0000 
     29 C2         40.6800  134.2710  114.4400 C.2       1 G2P501      0.0000 
     30 N2         40.4190  133.4700  113.4060 N.pl3     1 G2P501      0.0000 
     31 N3         39.6830  134.6940  115.2130 N.2       1 G2P501      0.0000 
     32 C4         40.1030  135.4950  116.2080 C.2       1 G2P501      0.0000 
@<TRIPOS>BOND
     1    1    2 ar   
     2    1    3 ar   
     3    1    4 ar   
     4    1    5 1    
     5    5    6 1    
     6    6    7 ar   
     7    6    8 ar   
     8    6    9 1    
     9    9   10 1    
    10   10   11 ar   
    11   10   12 ar   
    12   10   13 1    
    13   13   14 1    
    14   14   15 1    
    15   15   16 1    
    16   15   17 1    
    17   16   21 1    
    18   17   18 1    
    19   17   19 1    
    20   19   20 1    
    21   19   21 1    
    22   21   22 1    
    23   22   23 1    
    24   22   32 1    
    25   23   24 2    
    26   24   25 1    
    27   25   26 1    
    28   25   32 2    
    29   26   27 2    
    30   26   28 am   
    31   28   29 1    
    32   29   30 1    
    33   29   31 2    
    34   31   32 1    
@<TRIPOS>SUBSTRUCTURE
     1 G2P501      1 GROUP   
@<TRIPOS>SET

