#    Name: 6evw_7_GTP
#    Modification time : Fri May 22 19:29:11 2020

@<TRIPOS>MOLECULE
6evw_7_GTP
   32    34     1     0     1
SMALL
NO_CHARGES


@<TRIPOS>ATOM
      1 PG         40.4930   90.0170  154.1640 P.3       1 GTP501      0.0000 
      2 O1G        41.9590   89.8690  154.3390 O.co2     1 GTP501      0.0000 
      3 O2G        39.9490   91.3280  154.7100 O.co2     1 GTP501      0.0000 
      4 O3G        39.6980   88.8670  154.7540 O.co2     1 GTP501      0.0000 
      5 O3B        40.1590   90.0260  152.6100 O.3       1 GTP501      0.0000 
      6 PB         41.1750   90.0140  151.3890 P.3       1 GTP501      0.0000 
      7 O1B        40.3780   89.8760  150.1020 O.co2     1 GTP501      0.0000 
      8 O2B        41.9720   91.2550  151.3840 O.co2     1 GTP501      0.0000 
      9 O3A        42.1060   88.7390  151.5880 O.3       1 GTP501      0.0000 
     10 PA         43.1130   87.9920  150.6070 P.3       1 GTP501      0.0000 
     11 O1A        43.1860   88.8160  149.3340 O.co2     1 GTP501      0.0000 
     12 O2A        44.4480   87.9230  151.2330 O.co2     1 GTP501      0.0000 
     13 O5'        42.5550   86.5540  150.2100 O.3       1 GTP501      0.0000 
     14 C5'        43.0140   85.3190  150.7990 C.3       1 GTP501      0.0000 
     15 C4'        43.1750   84.2750  149.7230 C.3       1 GTP501      0.0000 
     16 O4'        44.3150   84.6000  148.8960 O.3       1 GTP501      0.0000 
     17 C3'        43.4050   82.8510  150.2320 C.3       1 GTP501      0.0000 
     18 O3'        42.6840   81.9070  149.4500 O.3       1 GTP501      0.0000 
     19 C2'        44.9160   82.6750  150.0790 C.3       1 GTP501      0.0000 
     20 O2'        45.2650   81.3130  149.8690 O.3       1 GTP501      0.0000 
     21 C1'        45.1720   83.4810  148.8140 C.3       1 GTP501      0.0000 
     22 N9         46.5520   83.9610  148.7020 N.pl3     1 GTP501      0.0000 
     23 C8         47.4060   84.2620  149.7250 C.2       1 GTP501      0.0000 
     24 N7         48.5830   84.6640  149.3130 N.2       1 GTP501      0.0000 
     25 C5         48.4920   84.6250  147.9320 C.2       1 GTP501      0.0000 
     26 C6         49.4420   84.9510  146.9220 C.2       1 GTP501      0.0000 
     27 O6         50.5860   85.3640  147.0850 O.2       1 GTP501      0.0000 
     28 N1         48.9420   84.7620  145.6520 N.am      1 GTP501      0.0000 
     29 C2         47.6820   84.3210  145.3640 C.2       1 GTP501      0.0000 
     30 N2         47.3650   84.1960  144.0750 N.pl3     1 GTP501      0.0000 
     31 N3         46.7830   84.0200  146.2970 N.2       1 GTP501      0.0000 
     32 C4         47.2490   84.1920  147.5450 C.2       1 GTP501      0.0000 
@<TRIPOS>BOND
     1    1    2 ar   
     2    1    3 ar   
     3    1    4 ar   
     4    1    5 1    
     5    5    6 1    
     6    6    7 ar   
     7    6    8 ar   
     8    6    9 1    
     9    9   10 1    
    10   10   11 ar   
    11   10   12 ar   
    12   10   13 1    
    13   13   14 1    
    14   14   15 1    
    15   15   16 1    
    16   15   17 1    
    17   16   21 1    
    18   17   18 1    
    19   17   19 1    
    20   19   20 1    
    21   19   21 1    
    22   21   22 1    
    23   22   23 1    
    24   22   32 1    
    25   23   24 2    
    26   24   25 1    
    27   25   26 1    
    28   25   32 2    
    29   26   27 2    
    30   26   28 am   
    31   28   29 1    
    32   29   30 1    
    33   29   31 2    
    34   31   32 1    
@<TRIPOS>SUBSTRUCTURE
     1 GTP501      1 GROUP   
@<TRIPOS>SET
ATOM$ORANGE STATIC     ATOMS   COLORGROUP SYSTEM 
20 14 14 15 15 17 17 19 19 21 21 23 23 25 25 26 26 29 \
29 32 32 

