#    Name: 6evw_4_G2P_CAVITY_N1_ALL
#    Modification time : Fri May 22 19:28:38 2020

@<TRIPOS>MOLECULE
6evw_4_G2P_CAVITY_N1_ALL
  112     0     7     0     0
SMALL
NO_CHARGES


@<TRIPOS>ATOM
      1 OG         39.7400  131.8900  199.9900 O.3       1 SER1        0.0000 
      2 OG         37.0300  130.5400  201.4400 O.3       1 SER1        0.0000 
      3 OG         37.2600  129.3300  202.2900 O.3       1 SER1        0.0000 
      4 OG         39.9400  132.7700  201.1900 O.3       1 SER1        0.0000 
      5 OG         34.0600  132.4900  202.3600 O.3       1 SER1        0.0000 
      6 OG         38.7000  131.4900  202.3400 O.3       1 SER1        0.0000 
      7 OG         36.2800  138.3500  199.5300 O.3       1 SER1        0.0000 
      8 OG         36.5100  137.1400  200.3900 O.3       1 SER1        0.0000 
      9 OG         35.2700  135.8700  201.5400 O.3       1 SER1        0.0000 
     10 OG         33.8000  135.8000  201.8400 O.3       1 SER1        0.0000 
     11 OG         34.0300  134.5900  202.7000 O.3       1 SER1        0.0000 
     12 OG         40.1400  133.6600  202.3800 O.3       1 SER1        0.0000 
     13 OG         36.4800  139.2400  200.7300 O.3       1 SER1        0.0000 
     14 OG         38.1800  138.1000  201.2900 O.3       1 SER1        0.0000 
     15 OG         36.7100  138.0300  201.5900 O.3       1 SER1        0.0000 
     16 OG         35.4700  136.7500  202.7400 O.3       1 SER1        0.0000 
     17 OG         41.5700  135.8200  202.4200 O.3       1 SER1        0.0000 
     18 OG         35.6900  135.5400  203.6000 O.3       1 SER1        0.0000 
     19 OG         41.8000  134.6100  203.2800 O.3       1 SER1        0.0000 
     20 OG         38.1400  140.1900  201.6300 O.3       1 SER1        0.0000 
     21 OG         37.1300  137.7100  203.6400 O.3       1 SER1        0.0000 
     22 OG         35.8900  136.4300  204.7900 O.3       1 SER1        0.0000 
     23 OG         35.8600  138.5200  205.1300 O.3       1 SER1        0.0000 
     24 OG         36.0900  137.3100  205.9900 O.3       1 SER1        0.0000 
     25 N          32.9500  136.4400  197.7300 N.am      2 ALA2        0.0000 
     26 O          34.6500  135.3000  198.3000 O.2       2 ALA2        0.0000 
     27 N          33.1800  135.2300  198.5900 N.am      2 ALA2        0.0000 
     28 N          39.2900  134.3100  198.2800 N.am      2 ALA2        0.0000 
     29 N          39.5100  133.1000  199.1300 N.am      2 ALA2        0.0000 
     30 N          38.2700  131.8200  200.2900 N.am      2 ALA2        0.0000 
     31 O          36.8000  131.7500  200.5800 O.2       2 ALA2        0.0000 
     32 O          34.6200  137.4000  198.6300 O.2       2 ALA2        0.0000 
     33 O          33.1500  137.3300  198.9300 O.2       2 ALA2        0.0000 
     34 N          37.7800  136.3300  198.9000 N.am      2 ALA2        0.0000 
     35 O          36.3100  136.2600  199.2000 O.2       2 ALA2        0.0000 
     36 O          34.8500  136.1900  199.4900 O.2       2 ALA2        0.0000 
     37 N          42.4200  135.3300  198.8800 N.am      2 ALA2        0.0000 
     38 N          40.9500  135.2600  199.1800 N.am      2 ALA2        0.0000 
     39 N          39.4800  135.1900  199.4700 N.am      2 ALA2        0.0000 
     40 N          38.0100  135.1200  199.7600 N.am      2 ALA2        0.0000 
     41 O          36.5400  135.0500  200.0600 O.2       2 ALA2        0.0000 
     42 O          35.0700  134.9800  200.3500 O.2       2 ALA2        0.0000 
     43 O          33.6000  134.9100  200.6400 O.2       2 ALA2        0.0000 
     44 N          38.2400  133.9100  200.6200 N.am      2 ALA2        0.0000 
     45 O          36.7700  133.8400  200.9100 O.2       2 ALA2        0.0000 
     46 O          35.3000  133.7700  201.2100 O.2       2 ALA2        0.0000 
     47 O          33.8300  133.7000  201.5000 O.2       2 ALA2        0.0000 
     48 N          42.8100  137.1000  201.2700 N.am      2 ALA2        0.0000 
     49 O          36.6700  140.1200  201.9200 O.2       2 ALA2        0.0000 
     50 O          39.8400  139.0600  202.2000 O.2       2 ALA2        0.0000 
     51 O          36.9000  138.9200  202.7800 O.2       2 ALA2        0.0000 
     52 O          35.4300  138.8500  203.0800 O.2       2 ALA2        0.0000 
     53 N          40.2700  138.7300  204.2500 N.am      2 ALA2        0.0000 
     54 O          36.0500  139.4100  206.3200 O.2       2 ALA2        0.0000 
     55 OD1        38.3400  141.0800  202.8300 O.co2     3 ASP3        0.0000 
     56 OD1        38.5700  139.8700  203.6800 O.co2     3 ASP3        0.0000 
     57 OD1        38.7600  140.7600  204.8800 O.co2     3 ASP3        0.0000 
     58 NZ         38.4700  132.7000  201.4800 N.4       4 LYS4        0.0000 
     59 NZ         37.0000  132.6300  201.7700 N.4       4 LYS4        0.0000 
     60 NZ         37.2300  131.4200  202.6300 N.4       4 LYS4        0.0000 
     61 NZ         37.4600  130.2200  203.4900 N.4       4 LYS4        0.0000 
     62 NZ         38.4400  134.8000  201.8200 N.4       4 LYS4        0.0000 
     63 NZ         36.9700  134.7300  202.1100 N.4       4 LYS4        0.0000 
     64 NZ         38.6700  133.5900  202.6700 N.4       4 LYS4        0.0000 
     65 NZ         38.6300  135.6800  203.0100 N.4       4 LYS4        0.0000 
     66 NZ         37.1600  135.6100  203.3000 N.4       4 LYS4        0.0000 
     67 NZ         40.3300  134.5400  203.5800 N.4       4 LYS4        0.0000 
     68 NZ         38.8300  136.5700  204.2100 N.4       4 LYS4        0.0000 
     69 NZ         37.3600  136.5000  204.5000 N.4       4 LYS4        0.0000 
     70 CZ         40.9800  133.1700  198.8400 C.ar      5 PHE5        0.0000 
     71 CZ         41.1800  134.0500  200.0400 C.ar      5 PHE5        0.0000 
     72 CZ         39.7100  133.9800  200.3300 C.ar      5 PHE5        0.0000 
     73 CZ         42.8500  135.0100  200.9400 C.ar      5 PHE5        0.0000 
     74 CZ         41.3800  134.9400  201.2300 C.ar      5 PHE5        0.0000 
     75 CZ         43.0400  135.8900  202.1300 C.ar      5 PHE5        0.0000 
     76 CA         34.4200  136.5100  197.4400 C.3       6 GLY6        0.0000 
     77 CA         37.5900  135.4400  197.7100 C.3       6 GLY6        0.0000 
     78 CA         36.1200  135.3700  198.0000 C.3       6 GLY6        0.0000 
     79 CA         35.5600  130.4700  201.7300 C.3       6 GLY6        0.0000 
     80 CA         36.0900  137.4700  198.3400 C.3       6 GLY6        0.0000 
     81 CA         33.3800  136.1200  199.7800 C.3       6 GLY6        0.0000 
     82 CA         35.5300  132.5600  202.0700 C.3       6 GLY6        0.0000 
     83 CA         35.7600  131.3500  202.9200 C.3       6 GLY6        0.0000 
     84 CA         37.9800  137.2100  200.1000 C.3       6 GLY6        0.0000 
     85 CA         35.0400  137.0700  200.6900 C.3       6 GLY6        0.0000 
     86 CA         42.6200  136.2200  200.0800 C.3       6 GLY6        0.0000 
     87 CA         41.1500  136.1500  200.3700 C.3       6 GLY6        0.0000 
     88 CA         39.6800  136.0800  200.6600 C.3       6 GLY6        0.0000 
     89 CA         35.5000  134.6600  202.4000 C.3       6 GLY6        0.0000 
     90 CA         39.6500  138.1700  201.0000 C.3       6 GLY6        0.0000 
     91 CA         35.2400  137.9600  201.8800 C.3       6 GLY6        0.0000 
     92 CA         41.3400  137.0300  201.5700 C.3       6 GLY6        0.0000 
     93 CA         39.8700  136.9600  201.8600 C.3       6 GLY6        0.0000 
     94 CA         37.1000  139.8000  203.9800 C.3       6 GLY6        0.0000 
     95 CA         35.6300  139.7300  204.2700 C.3       6 GLY6        0.0000 
     96 CA         37.2900  140.6900  205.1700 C.3       6 GLY6        0.0000 
     97 DU         38.2100  136.0100  200.9600 H         7 CUB7        0.0000 
     98 DU         36.7400  135.9400  201.2500 H         7 CUB7        0.0000 
     99 DU         39.9100  134.8700  201.5200 H         7 CUB7        0.0000 
    100 DU         38.4000  136.8900  202.1500 H         7 CUB7        0.0000 
    101 DU         36.9400  136.8200  202.4500 H         7 CUB7        0.0000 
    102 DU         40.1000  135.7500  202.7200 H         7 CUB7        0.0000 
    103 DU         38.3700  138.9900  202.4900 H         7 CUB7        0.0000 
    104 DU         41.5400  137.9200  202.7600 H         7 CUB7        0.0000 
    105 DU         40.0700  137.8500  203.0500 H         7 CUB7        0.0000 
    106 DU         38.6000  137.7800  203.3500 H         7 CUB7        0.0000 
    107 DU         43.2400  136.7800  203.3300 H         7 CUB7        0.0000 
    108 DU         41.7700  136.7100  203.6200 H         7 CUB7        0.0000 
    109 DU         40.3000  136.6400  203.9100 H         7 CUB7        0.0000 
    110 DU         38.8000  138.6600  204.5400 H         7 CUB7        0.0000 
    111 DU         37.3300  138.5900  204.8400 H         7 CUB7        0.0000 
    112 DU         37.5200  139.4800  206.0300 H         7 CUB7        0.0000 
@<TRIPOS>BOND
@<TRIPOS>SUBSTRUCTURE
     1 SER1        1 GROUP   
     2 ALA2       25 GROUP   
     3 ASP3       55 GROUP   
     4 LYS4       58 GROUP   
     5 PHE5       70 GROUP   
     6 GLY6       76 GROUP   
     7 CUB7       97 GROUP   
@<TRIPOS>SET

