#    Name: 6evw_11_GTP
#    Modification time : Fri May 22 19:30:23 2020

@<TRIPOS>MOLECULE
6evw_11_GTP
   32    34     1     0     1
SMALL
NO_CHARGES


@<TRIPOS>ATOM
      1 PG         40.4180   89.9540   70.4190 P.3       1 GTP501      0.0000 
      2 O1G        41.9330   89.7970   70.4720 O.co2     1 GTP501      0.0000 
      3 O2G        40.0470   91.2920   71.0380 O.co2     1 GTP501      0.0000 
      4 O3G        39.6940   88.8140   71.0110 O.co2     1 GTP501      0.0000 
      5 O3B        40.0760   90.0780   68.8720 O.3       1 GTP501      0.0000 
      6 PB         41.0820   90.0190   67.6420 P.3       1 GTP501      0.0000 
      7 O1B        40.2750   89.8610   66.3610 O.co2     1 GTP501      0.0000 
      8 O2B        41.8940   91.2490   67.5960 O.co2     1 GTP501      0.0000 
      9 O3A        42.0030   88.7400   67.8620 O.3       1 GTP501      0.0000 
     10 PA         43.0280   87.9890   66.9030 P.3       1 GTP501      0.0000 
     11 O1A        43.1050   88.7790   65.6060 O.co2     1 GTP501      0.0000 
     12 O2A        44.3560   87.9410   67.5450 O.co2     1 GTP501      0.0000 
     13 O5'        42.4930   86.5340   66.5540 O.3       1 GTP501      0.0000 
     14 C5'        42.8910   85.3540   67.2830 C.3       1 GTP501      0.0000 
     15 C4'        43.3060   84.2800   66.3110 C.3       1 GTP501      0.0000 
     16 O4'        44.3170   84.7940   65.4270 O.3       1 GTP501      0.0000 
     17 C3'        43.9620   83.0640   66.9390 C.3       1 GTP501      0.0000 
     18 O3'        42.9780   82.1450   67.3990 O.3       1 GTP501      0.0000 
     19 C2'        44.7740   82.4820   65.7760 C.3       1 GTP501      0.0000 
     20 O2'        44.0270   81.5070   65.0580 O.3       1 GTP501      0.0000 
     21 C1'        45.0360   83.7050   64.8840 C.3       1 GTP501      0.0000 
     22 N9         46.4500   84.0820   64.8080 N.pl3     1 GTP501      0.0000 
     23 C8         47.3060   84.3160   65.8470 C.2       1 GTP501      0.0000 
     24 N7         48.5080   84.6630   65.4570 N.2       1 GTP501      0.0000 
     25 C5         48.4330   84.6560   64.0740 C.2       1 GTP501      0.0000 
     26 C6         49.4080   84.9580   63.0790 C.2       1 GTP501      0.0000 
     27 O6         50.5620   85.3290   63.2610 O.2       1 GTP501      0.0000 
     28 N1         48.9140   84.8180   61.8010 N.am      1 GTP501      0.0000 
     29 C2         47.6390   84.4440   61.4900 C.2       1 GTP501      0.0000 
     30 N2         47.3320   84.3550   60.1960 N.pl3     1 GTP501      0.0000 
     31 N3         46.7150   84.1690   62.4070 N.2       1 GTP501      0.0000 
     32 C4         47.1740   84.2950   63.6640 C.2       1 GTP501      0.0000 
@<TRIPOS>BOND
     1    1    2 ar   
     2    1    3 ar   
     3    1    4 ar   
     4    1    5 1    
     5    5    6 1    
     6    6    7 ar   
     7    6    8 ar   
     8    6    9 1    
     9    9   10 1    
    10   10   11 ar   
    11   10   12 ar   
    12   10   13 1    
    13   13   14 1    
    14   14   15 1    
    15   15   16 1    
    16   15   17 1    
    17   16   21 1    
    18   17   18 1    
    19   17   19 1    
    20   19   20 1    
    21   19   21 1    
    22   21   22 1    
    23   22   23 1    
    24   22   32 1    
    25   23   24 2    
    26   24   25 1    
    27   25   26 1    
    28   25   32 2    
    29   26   27 2    
    30   26   28 am   
    31   28   29 1    
    32   29   30 1    
    33   29   31 2    
    34   31   32 1    
@<TRIPOS>SUBSTRUCTURE
     1 GTP501      1 GROUP   
@<TRIPOS>SET
ATOM$ORANGE STATIC     ATOMS   COLORGROUP SYSTEM 
20 14 14 15 15 17 17 19 19 21 21 23 23 25 25 26 26 29 \
29 32 32 

