#    Name: 6evw_9_GTP
#    Modification time : Fri May 22 19:29:47 2020

@<TRIPOS>MOLECULE
6evw_9_GTP
   32    34     1     0     1
SMALL
NO_CHARGES


@<TRIPOS>ATOM
      1 PG         37.1570  144.3910  163.7460 P.3       1 GTP501      0.0000 
      2 O1G        38.5030  143.8330  164.0350 O.co2     1 GTP501      0.0000 
      3 O2G        37.0190  145.8610  164.1130 O.co2     1 GTP501      0.0000 
      4 O3G        36.0280  143.6030  164.3880 O.co2     1 GTP501      0.0000 
      5 O3B        36.9000  144.3220  162.1790 O.3       1 GTP501      0.0000 
      6 PB         37.9180  143.8700  161.0470 P.3       1 GTP501      0.0000 
      7 O1B        37.2920  144.1530  159.6920 O.co2     1 GTP501      0.0000 
      8 O2B        39.1960  144.5890  161.2070 O.co2     1 GTP501      0.0000 
      9 O3A        38.1260  142.3030  161.2310 O.3       1 GTP501      0.0000 
     10 PA         38.6700  141.1840  160.2380 P.3       1 GTP501      0.0000 
     11 O1A        39.1070  141.8980  158.9720 O.co2     1 GTP501      0.0000 
     12 O2A        39.8270  140.4990  160.8510 O.co2     1 GTP501      0.0000 
     13 O5'        37.5030  140.1740  159.8420 O.3       1 GTP501      0.0000 
     14 C5'        37.3350  138.8760  160.4490 C.3       1 GTP501      0.0000 
     15 C4'        36.9670  137.8610  159.3960 C.3       1 GTP501      0.0000 
     16 O4'        38.1130  137.5890  158.5570 O.3       1 GTP501      0.0000 
     17 C3'        36.5070  136.5090  159.9410 C.3       1 GTP501      0.0000 
     18 O3'        35.4330  135.9890  159.1670 O.3       1 GTP501      0.0000 
     19 C2'        37.7630  135.6480  159.8120 C.3       1 GTP501      0.0000 
     20 O2'        37.4440  134.2710  159.6620 O.3       1 GTP501      0.0000 
     21 C1'        38.3480  136.1960  158.5200 C.3       1 GTP501      0.0000 
     22 N9         39.7900  135.9720  158.3930 N.pl3     1 GTP501      0.0000 
     23 C8         40.7000  135.8510  159.4050 C.2       1 GTP501      0.0000 
     24 N7         41.9240  135.6570  158.9780 N.2       1 GTP501      0.0000 
     25 C5         41.8070  135.6530  157.5990 C.2       1 GTP501      0.0000 
     26 C6         42.7860  135.4900  156.5750 C.2       1 GTP501      0.0000 
     27 O6         43.9930  135.3280  156.7210 O.2       1 GTP501      0.0000 
     28 N1         42.2360  135.5380  155.3130 N.am      1 GTP501      0.0000 
     29 C2         40.9110  135.7240  155.0420 C.2       1 GTP501      0.0000 
     30 N2         40.5530  135.7330  153.7600 N.pl3     1 GTP501      0.0000 
     31 N3         39.9880  135.8870  155.9860 N.2       1 GTP501      0.0000 
     32 C4         40.4990  135.8410  157.2280 C.2       1 GTP501      0.0000 
@<TRIPOS>BOND
     1    1    2 ar   
     2    1    3 ar   
     3    1    4 ar   
     4    1    5 1    
     5    5    6 1    
     6    6    7 ar   
     7    6    8 ar   
     8    6    9 1    
     9    9   10 1    
    10   10   11 ar   
    11   10   12 ar   
    12   10   13 1    
    13   13   14 1    
    14   14   15 1    
    15   15   16 1    
    16   15   17 1    
    17   16   21 1    
    18   17   18 1    
    19   17   19 1    
    20   19   20 1    
    21   19   21 1    
    22   21   22 1    
    23   22   23 1    
    24   22   32 1    
    25   23   24 2    
    26   24   25 1    
    27   25   26 1    
    28   25   32 2    
    29   26   27 2    
    30   26   28 am   
    31   28   29 1    
    32   29   30 1    
    33   29   31 2    
    34   31   32 1    
@<TRIPOS>SUBSTRUCTURE
     1 GTP501      1 GROUP   
@<TRIPOS>SET
ATOM$ORANGE STATIC     ATOMS   COLORGROUP SYSTEM 
20 14 14 15 15 17 17 19 19 21 21 23 23 25 25 26 26 29 \
29 32 32 

