#    Name: 6evw_4_G2P
#    Modification time : Fri May 22 19:28:36 2020

@<TRIPOS>MOLECULE
6evw_4_G2P
   32    34     1     0     0
SMALL
NO_CHARGES


@<TRIPOS>ATOM
      1 PG         37.1220  144.3180  205.5960 P.3       1 G2P501      0.0000 
      2 O1G        36.2780  143.3130  206.2770 O.co2     1 G2P501      0.0000 
      3 O2G        38.6090  144.1270  205.8720 O.co2     1 G2P501      0.0000 
      4 O3G        36.7510  145.7500  205.9480 O.co2     1 G2P501      0.0000 
      5 O3B        36.9610  144.1940  204.0180 O.3       1 G2P501      0.0000 
      6 PB         37.9770  143.6730  202.9370 P.3       1 G2P501      0.0000 
      7 O1B        39.1800  144.5750  202.8670 O.co2     1 G2P501      0.0000 
      8 O2B        37.2490  143.7320  201.5660 O.co2     1 G2P501      0.0000 
      9 C3A        38.2030  141.9290  203.3130 C.3       1 G2P501      0.0000 
     10 PA         38.4890  140.8640  201.8910 P.3       1 G2P501      0.0000 
     11 O1A        39.7130  139.9910  201.8780 O.co2     1 G2P501      0.0000 
     12 O2A        38.5800  141.8170  200.6680 O.co2     1 G2P501      0.0000 
     13 O5'        37.1410  140.0660  201.7540 O.3       1 G2P501      0.0000 
     14 C5'        36.8940  138.8760  202.5320 C.3       1 G2P501      0.0000 
     15 C4'        36.3590  137.7950  201.6280 C.3       1 G2P501      0.0000 
     16 O4'        37.3700  137.4230  200.6650 O.3       1 G2P501      0.0000 
     17 C3'        35.9700  136.4990  202.3240 C.3       1 G2P501      0.0000 
     18 O3'        34.9180  135.8490  201.6200 O.3       1 G2P501      0.0000 
     19 C2'        37.2730  135.7010  202.2800 C.3       1 G2P501      0.0000 
     20 O2'        37.0390  134.2980  202.3150 O.3       1 G2P501      0.0000 
     21 C1'        37.8280  136.1070  200.9160 C.3       1 G2P501      0.0000 
     22 N9         39.2940  136.1220  200.8640 N.pl3     1 G2P501      0.0000 
     23 C8         40.1360  136.8300  201.6770 C.2       1 G2P501      0.0000 
     24 N7         41.3940  136.7470  201.3190 N.2       1 G2P501      0.0000 
     25 C5         41.3760  135.9270  200.2040 C.2       1 G2P501      0.0000 
     26 C6         42.4210  135.5070  199.3420 C.2       1 G2P501      0.0000 
     27 O6         43.6060  135.8220  199.4090 O.2       1 G2P501      0.0000 
     28 N1         41.9680  134.6910  198.3270 N.am      1 G2P501      0.0000 
     29 C2         40.6660  134.3170  198.1410 C.2       1 G2P501      0.0000 
     30 N2         40.4070  133.5140  197.1100 N.pl3     1 G2P501      0.0000 
     31 N3         39.6730  134.7180  198.9310 N.2       1 G2P501      0.0000 
     32 C4         40.0920  135.5180  199.9260 C.2       1 G2P501      0.0000 
@<TRIPOS>BOND
     1    1    2 ar   
     2    1    3 ar   
     3    1    4 ar   
     4    1    5 1    
     5    5    6 1    
     6    6    7 ar   
     7    6    8 ar   
     8    6    9 1    
     9    9   10 1    
    10   10   11 ar   
    11   10   12 ar   
    12   10   13 1    
    13   13   14 1    
    14   14   15 1    
    15   15   16 1    
    16   15   17 1    
    17   16   21 1    
    18   17   18 1    
    19   17   19 1    
    20   19   20 1    
    21   19   21 1    
    22   21   22 1    
    23   22   23 1    
    24   22   32 1    
    25   23   24 2    
    26   24   25 1    
    27   25   26 1    
    28   25   32 2    
    29   26   27 2    
    30   26   28 am   
    31   28   29 1    
    32   29   30 1    
    33   29   31 2    
    34   31   32 1    
@<TRIPOS>SUBSTRUCTURE
     1 G2P501      1 GROUP   
@<TRIPOS>SET

