#    Name: 6evw_12_GTP
#    Modification time : Fri May 22 19:30:42 2020

@<TRIPOS>MOLECULE
6evw_12_GTP
   32    34     1     0     1
SMALL
NO_CHARGES


@<TRIPOS>ATOM
      1 PG         68.5050   43.5110   60.7520 P.3       1 GTP501      0.0000 
      2 O1G        69.8890   44.1410   60.8580 O.co2     1 GTP501      0.0000 
      3 O2G        67.4830   44.4920   61.3020 O.co2     1 GTP501      0.0000 
      4 O3G        68.4290   42.1700   61.3630 O.co2     1 GTP501      0.0000 
      5 O3B        68.2150   43.4190   59.1910 O.3       1 GTP501      0.0000 
      6 PB         69.1500   43.8820   57.9920 P.3       1 GTP501      0.0000 
      7 O1B        68.5270   43.4170   56.6850 O.co2     1 GTP501      0.0000 
      8 O2B        69.3010   45.3500   58.0120 O.co2     1 GTP501      0.0000 
      9 O3A        70.5540   43.1640   58.2080 O.3       1 GTP501      0.0000 
     10 PA         71.8140   42.9620   57.2560 P.3       1 GTP501      0.0000 
     11 O1A        71.5220   43.6930   55.9540 O.co2     1 GTP501      0.0000 
     12 O2A        73.0110   43.5420   57.8970 O.co2     1 GTP501      0.0000 
     13 O5'        72.0150   41.4200   56.9140 O.3       1 GTP501      0.0000 
     14 C5'        72.9250   40.5630   57.6360 C.3       1 GTP501      0.0000 
     15 C4'        73.7560   39.7650   56.6630 C.3       1 GTP501      0.0000 
     16 O4'        74.4170   40.6570   55.7480 O.3       1 GTP501      0.0000 
     17 C3'        74.8940   38.9770   57.2870 C.3       1 GTP501      0.0000 
     18 O3'        74.4240   37.7290   57.7820 O.3       1 GTP501      0.0000 
     19 C2'        75.8530   38.7880   56.1070 C.3       1 GTP501      0.0000 
     20 O2'        75.5630   37.5930   55.3920 O.3       1 GTP501      0.0000 
     21 C1'        75.5590   40.0090   55.2230 C.3       1 GTP501      0.0000 
     22 N9         76.6540   40.9820   55.1690 N.pl3     1 GTP501      0.0000 
     23 C8         77.3140   41.5590   56.2180 C.2       1 GTP501      0.0000 
     24 N7         78.2100   42.4390   55.8410 N.2       1 GTP501      0.0000 
     25 C5         78.1310   42.4350   54.4590 C.2       1 GTP501      0.0000 
     26 C6         78.8380   43.1880   53.4720 C.2       1 GTP501      0.0000 
     27 O6         79.6820   44.0560   53.6660 O.2       1 GTP501      0.0000 
     28 N1         78.4550   42.8630   52.1890 N.am      1 GTP501      0.0000 
     29 C2         77.5040   41.9390   51.8660 C.2       1 GTP501      0.0000 
     30 N2         77.2660   41.7420   50.5700 N.pl3     1 GTP501      0.0000 
     31 N3         76.8270   41.2400   52.7740 N.2       1 GTP501      0.0000 
     32 C4         77.1850   41.5360   54.0350 C.2       1 GTP501      0.0000 
@<TRIPOS>BOND
     1    1    2 ar   
     2    1    3 ar   
     3    1    4 ar   
     4    1    5 1    
     5    5    6 1    
     6    6    7 ar   
     7    6    8 ar   
     8    6    9 1    
     9    9   10 1    
    10   10   11 ar   
    11   10   12 ar   
    12   10   13 1    
    13   13   14 1    
    14   14   15 1    
    15   15   16 1    
    16   15   17 1    
    17   16   21 1    
    18   17   18 1    
    19   17   19 1    
    20   19   20 1    
    21   19   21 1    
    22   21   22 1    
    23   22   23 1    
    24   22   32 1    
    25   23   24 2    
    26   24   25 1    
    27   25   26 1    
    28   25   32 2    
    29   26   27 2    
    30   26   28 am   
    31   28   29 1    
    32   29   30 1    
    33   29   31 2    
    34   31   32 1    
@<TRIPOS>SUBSTRUCTURE
     1 GTP501      1 GROUP   
@<TRIPOS>SET
ATOM$ORANGE STATIC     ATOMS   COLORGROUP SYSTEM 
20 14 14 15 15 17 17 19 19 21 21 23 23 25 25 26 26 29 \
29 32 32 

