#    Name: 6evw_5_G2P_CAVITY_N1_8
#    Modification time : Fri May 22 19:28:47 2020

@<TRIPOS>MOLECULE
6evw_5_G2P_CAVITY_N1_8
  115     0     7     0     0
SMALL
NO_CHARGES


@<TRIPOS>ATOM
      1 OG         47.9100   79.8800  190.1200 O.3       1 SER1        0.0000 
      2 OG         46.6700   78.6000  191.2700 O.3       1 SER1        0.0000 
      3 OG         46.9000   77.4000  192.1300 O.3       1 SER1        0.0000 
      4 OG         43.0100   84.1800  189.6100 O.3       1 SER1        0.0000 
      5 OG         42.0000   81.7000  191.6200 O.3       1 SER1        0.0000 
      6 OG         48.1000   80.7700  191.3100 O.3       1 SER1        0.0000 
      7 OG         42.2300   80.4900  192.4800 O.3       1 SER1        0.0000 
      8 OG         43.2100   85.0700  190.8100 O.3       1 SER1        0.0000 
      9 OG         48.0700   82.8600  191.6500 O.3       1 SER1        0.0000 
     10 OG         43.6600   82.6500  192.5300 O.3       1 SER1        0.0000 
     11 OG         42.1900   82.5800  192.8200 O.3       1 SER1        0.0000 
     12 OG         48.3000   81.6500  192.5000 O.3       1 SER1        0.0000 
     13 OG         48.5300   80.4400  193.3600 O.3       1 SER1        0.0000 
     14 OG         41.7000   87.0900  191.4400 O.3       1 SER1        0.0000 
     15 OG         43.4000   85.9600  192.0000 O.3       1 SER1        0.0000 
     16 OG         48.2700   83.7500  192.8400 O.3       1 SER1        0.0000 
     17 OG         43.8600   83.5400  193.7200 O.3       1 SER1        0.0000 
     18 OG         42.3900   83.4700  194.0100 O.3       1 SER1        0.0000 
     19 OG         42.5900   84.3500  195.2100 O.3       1 SER1        0.0000 
     20 N          41.3800   81.1300  188.3800 N.am      2 ALA2        0.0000 
     21 N          48.9500   80.2800  187.7700 N.am      2 ALA2        0.0000 
     22 N          47.4500   82.3000  188.4000 N.am      2 ALA2        0.0000 
     23 N          45.9800   82.2300  188.6900 N.am      2 ALA2        0.0000 
     24 N          44.5100   82.1600  188.9800 N.am      2 ALA2        0.0000 
     25 O          43.0400   82.0900  189.2800 O.2       2 ALA2        0.0000 
     26 O          41.5700   82.0200  189.5700 O.2       2 ALA2        0.0000 
     27 N          47.6800   81.0900  189.2600 N.am      2 ALA2        0.0000 
     28 O          44.7400   80.9500  189.8400 O.2       2 ALA2        0.0000 
     29 O          43.2700   80.8800  190.1400 O.2       2 ALA2        0.0000 
     30 O          41.8000   80.8100  190.4300 O.2       2 ALA2        0.0000 
     31 N          46.4400   79.8100  190.4100 N.am      2 ALA2        0.0000 
     32 O          42.0300   79.6000  191.2900 O.2       2 ALA2        0.0000 
     33 O          45.2000   78.5300  191.5600 O.2       2 ALA2        0.0000 
     34 N          47.6500   83.1900  189.5900 N.am      2 ALA2        0.0000 
     35 N          46.1800   83.1200  189.8900 N.am      2 ALA2        0.0000 
     36 N          46.4100   81.9100  190.7400 N.am      2 ALA2        0.0000 
     37 O          44.9400   81.8400  191.0400 O.2       2 ALA2        0.0000 
     38 O          43.4700   81.7700  191.3300 O.2       2 ALA2        0.0000 
     39 N          49.0800   85.3500  189.6400 N.am      2 ALA2        0.0000 
     40 O          41.9700   83.7900  191.9600 O.2       2 ALA2        0.0000 
     41 N          49.2800   86.2400  190.8300 N.am      2 ALA2        0.0000 
     42 O          41.9300   85.8900  192.3000 O.2       2 ALA2        0.0000 
     43 O          42.1600   84.6800  193.1600 O.2       2 ALA2        0.0000 
     44 N          49.4800   87.1200  192.0300 N.am      2 ALA2        0.0000 
     45 O          46.5400   86.9800  192.6100 O.2       2 ALA2        0.0000 
     46 O          45.0700   86.9100  192.9100 O.2       2 ALA2        0.0000 
     47 N          49.7000   85.9100  192.8800 N.am      2 ALA2        0.0000 
     48 O          49.6700   88.0100  193.2200 O.2       2 ALA2        0.0000 
     49 N          45.2600   87.8000  194.1000 N.am      2 ALA2        0.0000 
     50 O          48.4300   86.7300  194.3700 O.2       2 ALA2        0.0000 
     51 N          45.4900   86.5900  194.9600 N.am      2 ALA2        0.0000 
     52 N          44.0200   86.5200  195.2500 N.am      2 ALA2        0.0000 
     53 OD1        43.7900   87.7300  194.3900 O.co2     3 ASP3        0.0000 
     54 OD1        42.3200   87.6600  194.6900 O.co2     3 ASP3        0.0000 
     55 NZ         40.5600   79.5300  191.5800 N.4       4 LYS4        0.0000 
     56 NZ         46.6400   80.7000  191.6000 N.4       4 LYS4        0.0000 
     57 NZ         45.1700   80.6300  191.9000 N.4       4 LYS4        0.0000 
     58 NZ         46.8600   79.4900  192.4600 N.4       4 LYS4        0.0000 
     59 NZ         47.0900   78.2800  193.3200 N.4       4 LYS4        0.0000 
     60 NZ         45.1300   82.7200  192.2300 N.4       4 LYS4        0.0000 
     61 NZ         46.8300   81.5800  192.8000 N.4       4 LYS4        0.0000 
     62 NZ         45.3600   81.5100  193.0900 N.4       4 LYS4        0.0000 
     63 NZ         43.8900   81.4400  193.3800 N.4       4 LYS4        0.0000 
     64 NZ         46.8000   83.6800  193.1300 N.4       4 LYS4        0.0000 
     65 NZ         45.3300   83.6100  193.4300 N.4       4 LYS4        0.0000 
     66 NZ         44.0900   82.3300  194.5800 N.4       4 LYS4        0.0000 
     67 NZ         45.5300   84.4900  194.6200 N.4       4 LYS4        0.0000 
     68 CZ         49.1500   81.1600  188.9600 C.ar      5 PHE5        0.0000 
     69 CZ         49.1200   83.2600  189.3000 C.ar      5 PHE5        0.0000 
     70 CZ         47.8800   81.9800  190.4500 C.ar      5 PHE5        0.0000 
     71 CZ         49.3100   84.1400  190.5000 C.ar      5 PHE5        0.0000 
     72 CZ         47.8400   84.0700  190.7900 C.ar      5 PHE5        0.0000 
     73 CZ         49.5100   85.0300  191.6900 C.ar      5 PHE5        0.0000 
     74 CZ         51.1700   85.9800  192.5900 C.ar      5 PHE5        0.0000 
     75 CA         44.2800   83.3700  188.1300 C.3       6 GLY6        0.0000 
     76 CA         42.8100   83.3000  188.4200 C.3       6 GLY6        0.0000 
     77 CA         40.3300   80.7400  190.7200 C.3       6 GLY6        0.0000 
     78 CA         45.4300   77.3300  192.4200 C.3       6 GLY6        0.0000 
     79 CA         44.4800   84.2500  189.3200 C.3       6 GLY6        0.0000 
     80 CA         41.5400   84.1100  189.9100 C.3       6 GLY6        0.0000 
     81 CA         41.7700   82.9100  190.7700 C.3       6 GLY6        0.0000 
     82 CA         40.5300   81.6300  191.9200 C.3       6 GLY6        0.0000 
     83 CA         43.7000   80.5600  192.1900 C.3       6 GLY6        0.0000 
     84 CA         45.3900   79.4200  192.7500 C.3       6 GLY6        0.0000 
     85 CA         47.6100   85.2800  189.9300 C.3       6 GLY6        0.0000 
     86 CA         44.6800   85.1400  190.5200 C.3       6 GLY6        0.0000 
     87 CA         41.7400   85.0000  191.1000 C.3       6 GLY6        0.0000 
     88 CA         46.3700   84.0000  191.0800 C.3       6 GLY6        0.0000 
     89 CA         44.9000   83.9300  191.3700 C.3       6 GLY6        0.0000 
     90 CA         47.8100   86.1700  191.1200 C.3       6 GLY6        0.0000 
     91 CA         46.3400   86.1000  191.4200 C.3       6 GLY6        0.0000 
     92 CA         44.8700   86.0300  191.7100 C.3       6 GLY6        0.0000 
     93 CA         46.5700   84.8900  192.2800 C.3       6 GLY6        0.0000 
     94 CA         43.3700   88.0500  192.3400 C.3       6 GLY6        0.0000 
     95 CA         41.9000   87.9800  192.6300 C.3       6 GLY6        0.0000 
     96 CA         48.0100   87.0500  192.3200 C.3       6 GLY6        0.0000 
     97 CA         42.1300   86.7700  193.4900 C.3       6 GLY6        0.0000 
     98 CA         42.3600   85.5600  194.3500 C.3       6 GLY6        0.0000 
     99 CA         48.2000   87.9400  193.5100 C.3       6 GLY6        0.0000 
    100 CA         46.7300   87.8700  193.8100 C.3       6 GLY6        0.0000 
    101 DU         44.7100   83.0500  190.1800 H         7 CUB7        0.0000 
    102 DU         43.2400   82.9800  190.4700 H         7 CUB7        0.0000 
    103 DU         43.4300   83.8600  191.6700 H         7 CUB7        0.0000 
    104 DU         46.6000   82.7900  191.9400 H         7 CUB7        0.0000 
    105 DU         48.0400   84.9600  191.9800 H         7 CUB7        0.0000 
    106 DU         45.1000   84.8200  192.5700 H         7 CUB7        0.0000 
    107 DU         43.6300   84.7500  192.8600 H         7 CUB7        0.0000 
    108 DU         43.6000   86.8400  193.2000 H         7 CUB7        0.0000 
    109 DU         48.2400   85.8400  193.1800 H         7 CUB7        0.0000 
    110 DU         46.7700   85.7700  193.4700 H         7 CUB7        0.0000 
    111 DU         45.3000   85.7000  193.7600 H         7 CUB7        0.0000 
    112 DU         43.8300   85.6300  194.0600 H         7 CUB7        0.0000 
    113 DU         44.0600   84.4200  194.9200 H         7 CUB7        0.0000 
    114 DU         49.9000   86.8000  194.0800 H         7 CUB7        0.0000 
    115 DU         42.5500   86.4500  195.5400 H         7 CUB7        0.0000 
@<TRIPOS>BOND
@<TRIPOS>SUBSTRUCTURE
     1 SER1        1 GROUP   
     2 ALA2       20 GROUP   
     3 ASP3       53 GROUP   
     4 LYS4       55 GROUP   
     5 PHE5       68 GROUP   
     6 GLY6       75 GROUP   
     7 CUB7      101 GROUP   
@<TRIPOS>SET

