#    Name: 6evw_2_G2P
#    Modification time : Fri May 22 19:28:08 2020

@<TRIPOS>MOLECULE
6evw_2_G2P
   32    34     1     0     0
SMALL
NO_CHARGES


@<TRIPOS>ATOM
      1 PG         68.3960   43.5090  102.4270 P.3       1 G2P501      0.0000 
      2 O1G        68.7810   42.1470  102.8620 O.co2     1 G2P501      0.0000 
      3 O2G        69.4040   44.5840  102.8180 O.co2     1 G2P501      0.0000 
      4 O3G        67.0260   43.9300  102.9290 O.co2     1 G2P501      0.0000 
      5 O3B        68.3230   43.5440  100.8390 O.3       1 G2P501      0.0000 
      6 PB         69.3970   43.9990   99.7860 P.3       1 G2P501      0.0000 
      7 O1B        69.4190   45.4990   99.6940 O.co2     1 G2P501      0.0000 
      8 O2B        68.9410   43.4250   98.4160 O.co2     1 G2P501      0.0000 
      9 C3A        70.9090   43.1260  100.2160 C.3       1 G2P501      0.0000 
     10 PA         71.9910   42.7200   98.8370 P.3       1 G2P501      0.0000 
     11 O1A        73.4130   43.2020   98.8660 O.co2     1 G2P501      0.0000 
     12 O2A        71.3080   43.3190   97.5770 O.co2     1 G2P501      0.0000 
     13 O5'        71.8870   41.1550   98.7170 O.3       1 G2P501      0.0000 
     14 C5'        72.7600   40.2880   99.4680 C.3       1 G2P501      0.0000 
     15 C4'        73.3370   39.2520   98.5370 C.3       1 G2P501      0.0000 
     16 O4'        74.2100   39.8930   97.5810 O.3       1 G2P501      0.0000 
     17 C3'        74.1860   38.1800   99.2040 C.3       1 G2P501      0.0000 
     18 O3'        74.1090   36.9600   98.4750 O.3       1 G2P501      0.0000 
     19 C2'        75.5850   38.7950   99.1580 C.3       1 G2P501      0.0000 
     20 O2'        76.6030   37.8020   99.1560 O.3       1 G2P501      0.0000 
     21 C1'        75.5540   39.5080   97.8080 C.3       1 G2P501      0.0000 
     22 N9         76.3840   40.7170   97.7660 N.pl3     1 G2P501      0.0000 
     23 C8         76.2780   41.8150   98.5750 C.2       1 G2P501      0.0000 
     24 N7         77.0730   42.7960   98.2250 N.2       1 G2P501      0.0000 
     25 C5         77.7490   42.3080   97.1200 C.2       1 G2P501      0.0000 
     26 C6         78.7030   42.9200   96.2680 C.2       1 G2P501      0.0000 
     27 O6         79.1290   44.0700   96.3410 O.2       1 G2P501      0.0000 
     28 N1         79.1220   42.0790   95.2580 N.am      1 G2P501      0.0000 
     29 C2         78.6820   40.7990   95.0710 C.2       1 G2P501      0.0000 
     30 N2         79.1990   40.1250   94.0430 N.pl3     1 G2P501      0.0000 
     31 N3         77.7760   40.2170   95.8520 N.2       1 G2P501      0.0000 
     32 C4         77.3490   41.0220   96.8410 C.2       1 G2P501      0.0000 
@<TRIPOS>BOND
     1    1    2 ar   
     2    1    3 ar   
     3    1    4 ar   
     4    1    5 1    
     5    5    6 1    
     6    6    7 ar   
     7    6    8 ar   
     8    6    9 1    
     9    9   10 1    
    10   10   11 ar   
    11   10   12 ar   
    12   10   13 1    
    13   13   14 1    
    14   14   15 1    
    15   15   16 1    
    16   15   17 1    
    17   16   21 1    
    18   17   18 1    
    19   17   19 1    
    20   19   20 1    
    21   19   21 1    
    22   21   22 1    
    23   22   23 1    
    24   22   32 1    
    25   23   24 2    
    26   24   25 1    
    27   25   26 1    
    28   25   32 2    
    29   26   27 2    
    30   26   28 am   
    31   28   29 1    
    32   29   30 1    
    33   29   31 2    
    34   31   32 1    
@<TRIPOS>SUBSTRUCTURE
     1 G2P501      1 GROUP   
@<TRIPOS>SET

