#    Name: 6pfc_4_MTX
#    Modification time : Fri May 22 19:33:08 2020

@<TRIPOS>MOLECULE
6pfc_4_MTX
   33    35     1     0     0
SMALL
NO_CHARGES


@<TRIPOS>ATOM
      1 N1         27.0930  -11.3210   25.4160 N.ar      1 MTX604      0.0000 
      2 C2         28.1470  -10.6930   25.9710 C.ar      1 MTX604      0.0000 
      3 NA2        28.0550  -10.2690   27.3440 N.pl3     1 MTX604      0.0000 
      4 N3         29.2790  -10.4500   25.2880 N.ar      1 MTX604      0.0000 
      5 C4         29.3950  -10.8380   23.9990 C.ar      1 MTX604      0.0000 
      6 NA4        30.5830  -10.5950   23.2450 N.pl3     1 MTX604      0.0000 
      7 C4A        28.3140  -11.5000   23.3740 C.ar      1 MTX604      0.0000 
      8 N5         28.3980  -11.9050   22.0750 N.ar      1 MTX604      0.0000 
      9 C6         27.3420  -12.5320   21.5200 C.ar      1 MTX604      0.0000 
     10 C7         26.1680  -12.7810   22.2420 C.ar      1 MTX604      0.0000 
     11 N8         26.1030  -12.3730   23.5280 N.ar      1 MTX604      0.0000 
     12 C8A        27.1670  -11.7310   24.1100 C.ar      1 MTX604      0.0000 
     13 C9         27.4390  -12.9760   20.0830 C.3       1 MTX604      0.0000 
     14 N10        26.1810  -12.9750   19.3660 N.pl3     1 MTX604      0.0000 
     15 CM         25.6430  -14.2170   18.8640 C.3       1 MTX604      0.0000 
     16 C11        24.0370   -9.3460   18.8000 C.ar      1 MTX604      0.0000 
     17 C12        23.3650  -10.5590   18.9040 C.ar      1 MTX604      0.0000 
     18 C13        24.0750  -11.7430   19.0910 C.ar      1 MTX604      0.0000 
     19 C14        25.4620  -11.7220   19.1700 C.ar      1 MTX604      0.0000 
     20 C15        26.1400  -10.5080   19.0700 C.ar      1 MTX604      0.0000 
     21 C16        25.4260   -9.3230   18.8840 C.ar      1 MTX604      0.0000 
     22 C          23.2530   -8.0690   18.5990 C.2       1 MTX604      0.0000 
     23 O          22.2030   -8.1110   17.9810 O.2       1 MTX604      0.0000 
     24 N          23.7010   -6.7950   19.1170 N.am      1 MTX604      0.0000 
     25 CA         22.9070   -5.6140   18.8880 C.3       1 MTX604      0.0000 
     26 CT         23.8160   -4.4500   18.8640 C.2       1 MTX604      0.0000 
     27 O1         25.0220   -4.6060   19.1880 O.co2     1 MTX604      0.0000 
     28 O2         23.3820   -3.3060   18.5270 O.co2     1 MTX604      0.0000 
     29 CB         21.9740   -5.4120   20.0310 C.3       1 MTX604      0.0000 
     30 CG         20.5920   -5.9920   19.9900 C.3       1 MTX604      0.0000 
     31 CD         19.6280   -5.4580   21.0040 C.2       1 MTX604      0.0000 
     32 OE1        19.7160   -4.2550   21.3410 O.co2     1 MTX604      0.0000 
     33 OE2        19.0350   -6.2590   21.7720 O.co2     1 MTX604      0.0000 
@<TRIPOS>BOND
     1    1    2 ar   
     2    1   12 ar   
     3    2    3 1    
     4    2    4 ar   
     5    4    5 ar   
     6    5    6 1    
     7    5    7 ar   
     8    7    8 ar   
     9    7   12 ar   
    10    8    9 ar   
    11    9   10 ar   
    12    9   13 1    
    13   10   11 ar   
    14   11   12 ar   
    15   13   14 1    
    16   14   15 1    
    17   14   19 1    
    18   16   17 ar   
    19   16   21 ar   
    20   16   22 1    
    21   17   18 ar   
    22   18   19 ar   
    23   19   20 ar   
    24   20   21 ar   
    25   22   23 2    
    26   22   24 am   
    27   24   25 1    
    28   25   26 1    
    29   25   29 1    
    30   26   27 ar   
    31   26   28 ar   
    32   29   30 1    
    33   30   31 1    
    34   31   32 ar   
    35   31   33 ar   
@<TRIPOS>SUBSTRUCTURE
     1 MTX604      1 GROUP   
@<TRIPOS>SET

