#    Name: 6pfc_8_NDP
#    Modification time : Fri May 22 19:33:40 2020

@<TRIPOS>MOLECULE
6pfc_8_NDP
   48    52     1     0     1
SMALL
NO_CHARGES


@<TRIPOS>ATOM
      1 PA          6.9740  -36.3880   87.2220 P.3       1 NDP601      0.0000 
      2 O1A         6.0350  -36.7300   86.0830 O.co2     1 NDP601      0.0000 
      3 O2A         6.2980  -36.6830   88.5310 O.co2     1 NDP601      0.0000 
      4 O5B         8.2210  -37.2740   87.1250 O.3       1 NDP601      0.0000 
      5 C5B         9.0760  -37.1990   86.0170 C.3       1 NDP601      0.0000 
      6 C4B        10.1640  -38.1880   85.9680 C.3       1 NDP601      0.0000 
      7 O4B         9.6360  -39.4600   85.6650 O.3       1 NDP601      0.0000 
      8 C3B        11.1410  -37.9190   84.9110 C.3       1 NDP601      0.0000 
      9 O3B        12.1220  -37.0370   85.3300 O.3       1 NDP601      0.0000 
     10 C2B        11.6870  -39.2300   84.6590 C.3       1 NDP601      0.0000 
     11 O2B        12.6050  -39.5910   85.6540 O.3       1 NDP601      0.0000 
     12 C1B        10.5260  -40.0950   84.7650 C.3       1 NDP601      0.0000 
     13 N9A         9.9040  -40.2630   83.4980 N.pl3     1 NDP601      0.0000 
     14 C8A         8.8190  -39.5890   83.0400 C.2       1 NDP601      0.0000 
     15 N7A         8.5140  -40.0190   81.8010 N.2       1 NDP601      0.0000 
     16 C5A         9.4190  -40.9940   81.4530 C.ar      1 NDP601      0.0000 
     17 C6A         9.6130  -41.8020   80.3070 C.ar      1 NDP601      0.0000 
     18 N6A         8.6940  -41.6570   79.1500 N.pl3     1 NDP601      0.0000 
     19 N1A        10.6310  -42.7050   80.2700 N.ar      1 NDP601      0.0000 
     20 C2A        11.4580  -42.8160   81.3460 C.ar      1 NDP601      0.0000 
     21 N3A        11.3170  -42.0780   82.4500 N.ar      1 NDP601      0.0000 
     22 C4A        10.2950  -41.1480   82.5310 C.ar      1 NDP601      0.0000 
     23 O3          7.3960  -34.8470   87.1790 O.3       1 NDP601      0.0000 
     24 PN          6.3330  -33.6800   86.9740 P.3       1 NDP601      0.0000 
     25 O1N         7.0170  -32.3060   86.9200 O.co2     1 NDP601      0.0000 
     26 O2N         5.6010  -33.8980   85.6650 O.co2     1 NDP601      0.0000 
     27 O5D         5.2920  -33.7090   88.2150 O.3       1 NDP601      0.0000 
     28 C5D         5.6780  -33.2510   89.4840 C.3       1 NDP601      0.0000 
     29 C4D         4.9160  -32.1490   90.0460 C.3       1 NDP601      0.0000 
     30 O4D         3.5260  -32.4590   89.9640 O.3       1 NDP601      0.0000 
     31 C3D         5.2160  -31.9550   91.4700 C.3       1 NDP601      0.0000 
     32 O3D         5.1000  -30.6100   91.7980 O.3       1 NDP601      0.0000 
     33 C2D         4.1950  -32.6840   92.1390 C.3       1 NDP601      0.0000 
     34 O2D         3.9850  -32.1560   93.4130 O.3       1 NDP601      0.0000 
     35 C1D         3.0250  -32.4790   91.2590 C.3       1 NDP601      0.0000 
     36 N1N         2.0650  -33.5260   91.4250 N.pl3     1 NDP601      0.0000 
     37 C2N         0.7790  -33.1890   91.6230 C.2       1 NDP601      0.0000 
     38 C3N        -0.2060  -34.1740   91.7860 C.2       1 NDP601      0.0000 
     39 C7N        -1.6460  -33.7410   92.0100 C.2       1 NDP601      0.0000 
     40 O7N        -2.5430  -34.5980   92.0480 O.2       1 NDP601      0.0000 
     41 N7N        -1.9900  -32.3580   92.1830 N.am      1 NDP601      0.0000 
     42 C4N         0.1540  -35.5340   91.7430 C.3       1 NDP601      0.0000 
     43 C5N         1.5020  -35.8480   91.5320 C.2       1 NDP601      0.0000 
     44 C6N         2.4500  -34.8390   91.3730 C.2       1 NDP601      0.0000 
     45 P2B        14.1440  -39.5880   85.3870 P.3       1 NDP601      0.0000 
     46 O1X        14.6340  -38.1340   85.2640 O.co2     1 NDP601      0.0000 
     47 O2X        14.8370  -40.2530   86.5020 O.co2     1 NDP601      0.0000 
     48 O3X        14.4530  -40.3330   84.1270 O.co2     1 NDP601      0.0000 
@<TRIPOS>BOND
     1    1    2 ar   
     2    1    3 ar   
     3    1    4 1    
     4    1   23 1    
     5    4    5 1    
     6    5    6 1    
     7    6    7 1    
     8    6    8 1    
     9    7   12 1    
    10    8    9 1    
    11    8   10 1    
    12   10   11 1    
    13   10   12 1    
    14   11   45 1    
    15   12   13 1    
    16   13   14 1    
    17   13   22 1    
    18   14   15 2    
    19   15   16 1    
    20   16   17 ar   
    21   16   22 ar   
    22   17   18 1    
    23   17   19 ar   
    24   19   20 ar   
    25   20   21 ar   
    26   21   22 ar   
    27   23   24 1    
    28   24   25 ar   
    29   24   26 ar   
    30   24   27 1    
    31   27   28 1    
    32   28   29 1    
    33   29   30 1    
    34   29   31 1    
    35   30   35 1    
    36   31   32 1    
    37   31   33 1    
    38   33   34 1    
    39   33   35 1    
    40   35   36 1    
    41   36   37 1    
    42   36   44 1    
    43   37   38 2    
    44   38   39 1    
    45   38   42 1    
    46   39   40 2    
    47   39   41 am   
    48   42   43 1    
    49   43   44 2    
    50   45   46 ar   
    51   45   47 ar   
    52   45   48 ar   
@<TRIPOS>SUBSTRUCTURE
     1 NDP601      1 GROUP   
@<TRIPOS>SET
ATOM$ORANGE STATIC     ATOMS   COLORGROUP SYSTEM 
42 5 5 6 6 8 8 10 10 12 12 14 14 16 16 17 17 20 \
20 22 22 28 28 29 29 31 31 33 33 35 35 37 37 38 38 39 \
39 42 42 43 43 44 44 

