#    Name: 6pfc_5_MTX
#    Modification time : Fri May 22 19:33:16 2020

@<TRIPOS>MOLECULE
6pfc_5_MTX
   33    35     1     0     0
SMALL
NO_CHARGES


@<TRIPOS>ATOM
      1 N1         49.9740   -0.5230   83.4830 N.ar      1 MTX604      0.0000 
      2 C2         51.2290   -0.7460   83.9180 C.ar      1 MTX604      0.0000 
      3 NA2        51.9360    0.3260   84.5710 N.pl3     1 MTX604      0.0000 
      4 N3         51.8410   -1.9310   83.7650 N.ar      1 MTX604      0.0000 
      5 C4         51.2040   -2.9550   83.1550 C.ar      1 MTX604      0.0000 
      6 NA4        51.8300   -4.2280   82.9750 N.pl3     1 MTX604      0.0000 
      7 C4A        49.8860   -2.7700   82.6810 C.ar      1 MTX604      0.0000 
      8 N5         49.2150   -3.7820   82.0580 N.ar      1 MTX604      0.0000 
      9 C6         47.9560   -3.5600   81.6280 C.ar      1 MTX604      0.0000 
     10 C7         47.3300   -2.3170   81.7920 C.ar      1 MTX604      0.0000 
     11 N8         48.0110   -1.3260   82.4080 N.ar      1 MTX604      0.0000 
     12 C8A        49.2900   -1.5350   82.8590 C.ar      1 MTX604      0.0000 
     13 C9         47.2180   -4.6750   80.9320 C.3       1 MTX604      0.0000 
     14 N10        46.2510   -4.2120   79.9570 N.pl3     1 MTX604      0.0000 
     15 CM         44.8510   -4.5090   80.1570 C.3       1 MTX604      0.0000 
     16 C11        47.4140   -1.8970   76.5810 C.ar      1 MTX604      0.0000 
     17 C12        46.1650   -1.7350   77.1690 C.ar      1 MTX604      0.0000 
     18 C13        45.8020   -2.4990   78.2740 C.ar      1 MTX604      0.0000 
     19 C14        46.6800   -3.4390   78.7960 C.ar      1 MTX604      0.0000 
     20 C15        47.9340   -3.6090   78.2120 C.ar      1 MTX604      0.0000 
     21 C16        48.2980   -2.8380   77.1010 C.ar      1 MTX604      0.0000 
     22 C          47.7730   -1.0510   75.3830 C.2       1 MTX604      0.0000 
     23 O          46.8880   -0.7230   74.6090 O.2       1 MTX604      0.0000 
     24 N          49.1280   -0.6150   75.1170 N.am      1 MTX604      0.0000 
     25 CA         49.4000    0.1930   73.9540 C.3       1 MTX604      0.0000 
     26 CT         50.7650   -0.1210   73.4840 C.2       1 MTX604      0.0000 
     27 O1         51.5320   -0.7940   74.2200 O.co2     1 MTX604      0.0000 
     28 O2         51.1580    0.2880   72.3490 O.co2     1 MTX604      0.0000 
     29 CB         49.3810    1.6320   74.3430 C.3       1 MTX604      0.0000 
     30 CG         48.1620    2.4670   74.0860 C.3       1 MTX604      0.0000 
     31 CD         48.3500    3.9500   74.1890 C.2       1 MTX604      0.0000 
     32 OE1        49.4460    4.4430   73.8320 O.co2     1 MTX604      0.0000 
     33 OE2        47.6040    4.6180   74.9530 O.co2     1 MTX604      0.0000 
@<TRIPOS>BOND
     1    1    2 ar   
     2    1   12 ar   
     3    2    3 1    
     4    2    4 ar   
     5    4    5 ar   
     6    5    6 1    
     7    5    7 ar   
     8    7    8 ar   
     9    7   12 ar   
    10    8    9 ar   
    11    9   10 ar   
    12    9   13 1    
    13   10   11 ar   
    14   11   12 ar   
    15   13   14 1    
    16   14   15 1    
    17   14   19 1    
    18   16   17 ar   
    19   16   21 ar   
    20   16   22 1    
    21   17   18 ar   
    22   18   19 ar   
    23   19   20 ar   
    24   20   21 ar   
    25   22   23 2    
    26   22   24 am   
    27   24   25 1    
    28   25   26 1    
    29   25   29 1    
    30   26   27 ar   
    31   26   28 ar   
    32   29   30 1    
    33   30   31 1    
    34   31   32 ar   
    35   31   33 ar   
@<TRIPOS>SUBSTRUCTURE
     1 MTX604      1 GROUP   
@<TRIPOS>SET

