#    Name: 6pfc_7_NDP
#    Modification time : Fri May 22 19:33:28 2020

@<TRIPOS>MOLECULE
6pfc_7_NDP
   48    52     1     0     1
SMALL
NO_CHARGES


@<TRIPOS>ATOM
      1 PA         51.3630   39.8850   64.3880 P.3       1 NDP601      0.0000 
      2 O1A        50.6110   39.8600   63.0730 O.co2     1 NDP601      0.0000 
      3 O2A        51.6100   38.4750   64.8420 O.co2     1 NDP601      0.0000 
      4 O5B        52.7150   40.5730   64.1760 O.3       1 NDP601      0.0000 
      5 C5B        52.7690   41.9130   63.7670 C.3       1 NDP601      0.0000 
      6 C4B        54.1020   42.4560   63.4660 C.3       1 NDP601      0.0000 
      7 O4B        54.5990   41.8870   62.2750 O.3       1 NDP601      0.0000 
      8 C3B        54.0860   43.8970   63.2110 C.3       1 NDP601      0.0000 
      9 O3B        54.1480   44.6250   64.3860 O.3       1 NDP601      0.0000 
     10 C2B        55.2780   44.0740   62.4230 C.3       1 NDP601      0.0000 
     11 O2B        56.4260   43.9920   63.2220 O.3       1 NDP601      0.0000 
     12 C1B        55.2580   42.9140   61.5530 C.3       1 NDP601      0.0000 
     13 N9A        54.5690   43.2020   60.3430 N.pl3     1 NDP601      0.0000 
     14 C8A        53.2780   42.8930   60.0610 C.2       1 NDP601      0.0000 
     15 N7A        52.9780   43.3150   58.8190 N.2       1 NDP601      0.0000 
     16 C5A        54.0990   43.9050   58.2860 C.ar      1 NDP601      0.0000 
     17 C6A        54.3960   44.5200   57.0470 C.ar      1 NDP601      0.0000 
     18 N6A        53.3360   44.6080   56.0110 N.pl3     1 NDP601      0.0000 
     19 N1A        55.6400   45.0220   56.8140 N.ar      1 NDP601      0.0000 
     20 C2A        56.5890   44.9260   57.7850 C.ar      1 NDP601      0.0000 
     21 N3A        56.3560   44.3530   58.9700 N.ar      1 NDP601      0.0000 
     22 C4A        55.1060   43.8290   59.2510 C.ar      1 NDP601      0.0000 
     23 O3         50.5350   40.6680   65.5040 O.3       1 NDP601      0.0000 
     24 PN         48.9980   40.3630   65.7830 P.3       1 NDP601      0.0000 
     25 O1N        48.4410   41.3030   66.8610 O.co2     1 NDP601      0.0000 
     26 O2N        48.2160   40.5720   64.5030 O.co2     1 NDP601      0.0000 
     27 O5D        48.8430   38.8310   66.2940 O.3       1 NDP601      0.0000 
     28 C5D        49.0990   38.5050   67.6370 C.3       1 NDP601      0.0000 
     29 C4D        48.0150   37.9230   68.4160 C.3       1 NDP601      0.0000 
     30 O4D        47.3560   36.9080   67.6590 O.3       1 NDP601      0.0000 
     31 C3D        48.5230   37.2690   69.6280 C.3       1 NDP601      0.0000 
     32 O3D        47.5820   37.3630   70.6490 O.3       1 NDP601      0.0000 
     33 C2D        48.6730   35.9080   69.2450 C.3       1 NDP601      0.0000 
     34 O2D        48.6100   35.0850   70.3720 O.3       1 NDP601      0.0000 
     35 C1D        47.5320   35.7000   68.3230 C.3       1 NDP601      0.0000 
     36 N1N        47.7870   34.6310   67.4040 N.pl3     1 NDP601      0.0000 
     37 C2N        46.8540   33.6750   67.2620 C.2       1 NDP601      0.0000 
     38 C3N        47.0470   32.6060   66.3730 C.2       1 NDP601      0.0000 
     39 C7N        45.9610   31.5540   66.2520 C.2       1 NDP601      0.0000 
     40 O7N        46.0720   30.6640   65.3940 O.2       1 NDP601      0.0000 
     41 N7N        44.8140   31.5750   67.1170 N.am      1 NDP601      0.0000 
     42 C4N        48.2300   32.5240   65.6160 C.3       1 NDP601      0.0000 
     43 C5N        49.1800   33.5380   65.7890 C.2       1 NDP601      0.0000 
     44 C6N        48.9490   34.5840   66.6810 C.2       1 NDP601      0.0000 
     45 P2B        57.2850   45.2510   63.5650 P.3       1 NDP601      0.0000 
     46 O1X        56.4990   46.1440   64.5440 O.co2     1 NDP601      0.0000 
     47 O2X        58.5500   44.8320   64.1940 O.co2     1 NDP601      0.0000 
     48 O3X        57.6080   46.0120   62.3190 O.co2     1 NDP601      0.0000 
@<TRIPOS>BOND
     1    1    2 ar   
     2    1    3 ar   
     3    1    4 1    
     4    1   23 1    
     5    4    5 1    
     6    5    6 1    
     7    6    7 1    
     8    6    8 1    
     9    7   12 1    
    10    8    9 1    
    11    8   10 1    
    12   10   11 1    
    13   10   12 1    
    14   11   45 1    
    15   12   13 1    
    16   13   14 1    
    17   13   22 1    
    18   14   15 2    
    19   15   16 1    
    20   16   17 ar   
    21   16   22 ar   
    22   17   18 1    
    23   17   19 ar   
    24   19   20 ar   
    25   20   21 ar   
    26   21   22 ar   
    27   23   24 1    
    28   24   25 ar   
    29   24   26 ar   
    30   24   27 1    
    31   27   28 1    
    32   28   29 1    
    33   29   30 1    
    34   29   31 1    
    35   30   35 1    
    36   31   32 1    
    37   31   33 1    
    38   33   34 1    
    39   33   35 1    
    40   35   36 1    
    41   36   37 1    
    42   36   44 1    
    43   37   38 2    
    44   38   39 1    
    45   38   42 1    
    46   39   40 2    
    47   39   41 am   
    48   42   43 1    
    49   43   44 2    
    50   45   46 ar   
    51   45   47 ar   
    52   45   48 ar   
@<TRIPOS>SUBSTRUCTURE
     1 NDP601      1 GROUP   
@<TRIPOS>SET
ATOM$ORANGE STATIC     ATOMS   COLORGROUP SYSTEM 
42 5 5 6 6 8 8 10 10 12 12 14 14 16 16 17 17 20 \
20 22 22 28 28 29 29 31 31 33 33 35 35 37 37 38 38 39 \
39 42 42 43 43 44 44 

