#    Name: 6pfc_3_MTX
#    Modification time : Fri May 22 19:33:00 2020

@<TRIPOS>MOLECULE
6pfc_3_MTX
   33    35     1     0     0
SMALL
NO_CHARGES


@<TRIPOS>ATOM
      1 N1         -4.4890  -35.6390   95.3070 N.ar      1 MTX604      0.0000 
      2 C2         -5.2920  -36.3570   94.5010 C.ar      1 MTX604      0.0000 
      3 NA2        -6.7100  -36.1150   94.5430 N.pl3     1 MTX604      0.0000 
      4 N3         -4.8150  -37.2880   93.6590 N.ar      1 MTX604      0.0000 
      5 C4         -3.4890  -37.5380   93.5970 C.ar      1 MTX604      0.0000 
      6 NA4        -2.9450  -38.5240   92.7190 N.pl3     1 MTX604      0.0000 
      7 C4A        -2.6100  -36.8100   94.4230 C.ar      1 MTX604      0.0000 
      8 N5         -1.2680  -37.0430   94.3830 N.ar      1 MTX604      0.0000 
      9 C6         -0.4620  -36.3190   95.1840 C.ar      1 MTX604      0.0000 
     10 C7         -0.9670  -35.3500   96.0620 C.ar      1 MTX604      0.0000 
     11 N8         -2.3010  -35.1360   96.0900 N.ar      1 MTX604      0.0000 
     12 C8A        -3.1370  -35.8580   95.2750 C.ar      1 MTX604      0.0000 
     13 C9          1.0200  -36.5870   95.1360 C.3       1 MTX604      0.0000 
     14 N10         1.6900  -36.3280   96.3880 N.pl3     1 MTX604      0.0000 
     15 CM          2.7030  -35.3010   96.4540 C.3       1 MTX604      0.0000 
     16 C11         0.6050  -38.4860   99.8790 C.ar      1 MTX604      0.0000 
     17 C12         1.0670  -37.1770   99.9600 C.ar      1 MTX604      0.0000 
     18 C13         1.4200  -36.4830   98.8100 C.ar      1 MTX604      0.0000 
     19 C14         1.3180  -37.0930   97.5690 C.ar      1 MTX604      0.0000 
     20 C15         0.8520  -38.4030   97.4750 C.ar      1 MTX604      0.0000 
     21 C16         0.4980  -39.0990   98.6350 C.ar      1 MTX604      0.0000 
     22 C           0.2280  -39.2060  101.1520 C.2       1 MTX604      0.0000 
     23 O           0.8240  -38.9280  102.1790 O.2       1 MTX604      0.0000 
     24 N          -0.8200  -40.2030  101.2020 N.am      1 MTX604      0.0000 
     25 CA         -1.1350  -40.8500  102.4520 C.3       1 MTX604      0.0000 
     26 CT         -1.6390  -42.2110  102.1720 C.2       1 MTX604      0.0000 
     27 O1         -1.9670  -42.5240  100.9970 O.co2     1 MTX604      0.0000 
     28 O2         -1.7450  -43.0540  103.1150 O.co2     1 MTX604      0.0000 
     29 CB         -2.2420  -40.1090  103.1180 C.3       1 MTX604      0.0000 
     30 CG         -1.9430  -39.1970  104.2700 C.3       1 MTX604      0.0000 
     31 CD         -3.1150  -38.7600  105.0920 C.2       1 MTX604      0.0000 
     32 OE1        -4.0650  -39.5590  105.2620 O.co2     1 MTX604      0.0000 
     33 OE2        -3.3320  -37.5300  105.2410 O.co2     1 MTX604      0.0000 
@<TRIPOS>BOND
     1    1    2 ar   
     2    1   12 ar   
     3    2    3 1    
     4    2    4 ar   
     5    4    5 ar   
     6    5    6 1    
     7    5    7 ar   
     8    7    8 ar   
     9    7   12 ar   
    10    8    9 ar   
    11    9   10 ar   
    12    9   13 1    
    13   10   11 ar   
    14   11   12 ar   
    15   13   14 1    
    16   14   15 1    
    17   14   19 1    
    18   16   17 ar   
    19   16   21 ar   
    20   16   22 1    
    21   17   18 ar   
    22   18   19 ar   
    23   19   20 ar   
    24   20   21 ar   
    25   22   23 2    
    26   22   24 am   
    27   24   25 1    
    28   25   26 1    
    29   25   29 1    
    30   26   27 ar   
    31   26   28 ar   
    32   29   30 1    
    33   30   31 1    
    34   31   32 ar   
    35   31   33 ar   
@<TRIPOS>SUBSTRUCTURE
     1 MTX604      1 GROUP   
@<TRIPOS>SET

