#    Name: 6pfc_2_MTX
#    Modification time : Fri May 22 19:32:52 2020

@<TRIPOS>MOLECULE
6pfc_2_MTX
   33    35     1     0     0
SMALL
NO_CHARGES


@<TRIPOS>ATOM
      1 N1         46.3690   26.9170   66.4670 N.ar      1 MTX604      0.0000 
      2 C2         46.1370   26.6180   65.1770 C.ar      1 MTX604      0.0000 
      3 NA2        45.0860   25.6840   64.8730 N.pl3     1 MTX604      0.0000 
      4 N3         46.8510   27.1570   64.1750 N.ar      1 MTX604      0.0000 
      5 C4         47.8440   28.0350   64.4370 C.ar      1 MTX604      0.0000 
      6 NA4        48.6270   28.6320   63.4020 N.pl3     1 MTX604      0.0000 
      7 C4A        48.1240   28.3780   65.7760 C.ar      1 MTX604      0.0000 
      8 N5         49.1170   29.2610   66.0760 N.ar      1 MTX604      0.0000 
      9 C6         49.3510   29.5610   67.3690 C.ar      1 MTX604      0.0000 
     10 C7         48.5960   28.9940   68.4060 C.ar      1 MTX604      0.0000 
     11 N8         47.6150   28.1200   68.0890 N.ar      1 MTX604      0.0000 
     12 C8A        47.3670   27.8020   66.7790 C.ar      1 MTX604      0.0000 
     13 C9         50.4510   30.5410   67.6930 C.3       1 MTX604      0.0000 
     14 N10        51.1120   30.3250   68.9600 N.pl3     1 MTX604      0.0000 
     15 CM         51.0110   31.3270   69.9930 C.3       1 MTX604      0.0000 
     16 C11        53.2580   26.7310   69.6730 C.ar      1 MTX604      0.0000 
     17 C12        52.6200   27.3960   70.7130 C.ar      1 MTX604      0.0000 
     18 C13        51.9220   28.5740   70.4710 C.ar      1 MTX604      0.0000 
     19 C14        51.8520   29.0910   69.1850 C.ar      1 MTX604      0.0000 
     20 C15        52.4870   28.4270   68.1370 C.ar      1 MTX604      0.0000 
     21 C16        53.1880   27.2440   68.3820 C.ar      1 MTX604      0.0000 
     22 C          54.0020   25.4510   69.9650 C.2       1 MTX604      0.0000 
     23 O          54.5120   25.3070   71.0630 O.2       1 MTX604      0.0000 
     24 N          54.1110   24.3860   68.9890 N.am      1 MTX604      0.0000 
     25 CA         54.8220   23.1760   69.3150 C.3       1 MTX604      0.0000 
     26 CT         55.3960   22.6080   68.0750 C.2       1 MTX604      0.0000 
     27 O1         55.0880   23.1030   66.9590 O.co2     1 MTX604      0.0000 
     28 O2         56.1940   21.6210   68.1380 O.co2     1 MTX604      0.0000 
     29 CB         53.8380   22.1900   69.8450 C.3       1 MTX604      0.0000 
     30 CG         53.7240   21.9490   71.3210 C.3       1 MTX604      0.0000 
     31 CD         52.9610   20.7290   71.7340 C.2       1 MTX604      0.0000 
     32 OE1        53.0160   19.7020   71.0170 O.co2     1 MTX604      0.0000 
     33 OE2        52.0160   20.8440   72.5580 O.co2     1 MTX604      0.0000 
@<TRIPOS>BOND
     1    1    2 ar   
     2    1   12 ar   
     3    2    3 1    
     4    2    4 ar   
     5    4    5 ar   
     6    5    6 1    
     7    5    7 ar   
     8    7    8 ar   
     9    7   12 ar   
    10    8    9 ar   
    11    9   10 ar   
    12    9   13 1    
    13   10   11 ar   
    14   11   12 ar   
    15   13   14 1    
    16   14   15 1    
    17   14   19 1    
    18   16   17 ar   
    19   16   21 ar   
    20   16   22 1    
    21   17   18 ar   
    22   18   19 ar   
    23   19   20 ar   
    24   20   21 ar   
    25   22   23 2    
    26   22   24 am   
    27   24   25 1    
    28   25   26 1    
    29   25   29 1    
    30   26   27 ar   
    31   26   28 ar   
    32   29   30 1    
    33   30   31 1    
    34   31   32 ar   
    35   31   33 ar   
@<TRIPOS>SUBSTRUCTURE
     1 MTX604      1 GROUP   
@<TRIPOS>SET

