#    Name: 6pfc_6_NDP
#    Modification time : Fri May 22 19:33:22 2020

@<TRIPOS>MOLECULE
6pfc_6_NDP
   48    52     1     0     1
SMALL
NO_CHARGES


@<TRIPOS>ATOM
      1 PA         -7.6190   14.4340   37.7080 P.3       1 NDP601      0.0000 
      2 O1A        -8.5520   14.6990   36.5440 O.co2     1 NDP601      0.0000 
      3 O2A        -6.3220   13.8810   37.1920 O.co2     1 NDP601      0.0000 
      4 O5B        -7.3230   15.7450   38.4450 O.3       1 NDP601      0.0000 
      5 C5B        -8.3570   16.4660   39.0580 C.3       1 NDP601      0.0000 
      6 C4B        -7.9990   17.7680   39.6410 C.3       1 NDP601      0.0000 
      7 O4B        -7.6780   18.6910   38.6220 O.3       1 NDP601      0.0000 
      8 C3B        -9.1090   18.3810   40.3740 C.3       1 NDP601      0.0000 
      9 O3B        -9.1840   17.9300   41.6810 O.3       1 NDP601      0.0000 
     10 C2B        -8.7650   19.7790   40.3220 C.3       1 NDP601      0.0000 
     11 O2B        -7.7310   20.0790   41.2160 O.3       1 NDP601      0.0000 
     12 C1B        -8.2540   19.9380   38.9730 C.3       1 NDP601      0.0000 
     13 N9A        -9.3110   20.2950   38.0890 N.pl3     1 NDP601      0.0000 
     14 C8A       -10.0190   19.4530   37.2930 C.2       1 NDP601      0.0000 
     15 N7A       -10.9340   20.1580   36.5980 N.2       1 NDP601      0.0000 
     16 C5A       -10.8130   21.4830   36.9480 C.ar      1 NDP601      0.0000 
     17 C6A       -11.4770   22.6750   36.5660 C.ar      1 NDP601      0.0000 
     18 N6A       -12.5730   22.6140   35.5660 N.pl3     1 NDP601      0.0000 
     19 N1A       -11.1110   23.8680   37.1110 N.ar      1 NDP601      0.0000 
     20 C2A       -10.1040   23.8980   38.0250 C.ar      1 NDP601      0.0000 
     21 N3A        -9.4480   22.8020   38.4170 N.ar      1 NDP601      0.0000 
     22 C4A        -9.7840   21.5660   37.8900 C.ar      1 NDP601      0.0000 
     23 O3         -8.2780   13.4010   38.7320 O.3       1 NDP601      0.0000 
     24 PN         -8.7740   11.9610   38.2680 P.3       1 NDP601      0.0000 
     25 O1N        -9.4270   11.2080   39.4360 O.co2     1 NDP601      0.0000 
     26 O2N        -9.7900   12.1310   37.1580 O.co2     1 NDP601      0.0000 
     27 O5D        -7.4990   11.1070   37.7400 O.3       1 NDP601      0.0000 
     28 C5D        -6.8250   10.2340   38.6100 C.3       1 NDP601      0.0000 
     29 C4D        -6.7720    8.8240   38.2510 C.3       1 NDP601      0.0000 
     30 O4D        -6.6940    8.6820   36.8320 O.3       1 NDP601      0.0000 
     31 C3D        -5.5720    8.1780   38.8000 C.3       1 NDP601      0.0000 
     32 O3D        -5.8720    6.8690   39.1580 O.3       1 NDP601      0.0000 
     33 C2D        -4.6550    8.1770   37.7110 C.3       1 NDP601      0.0000 
     34 O2D        -3.7150    7.1580   37.8640 O.3       1 NDP601      0.0000 
     35 C1D        -5.5500    7.9450   36.5550 C.3       1 NDP601      0.0000 
     36 N1N        -4.9290    8.3420   35.3240 N.pl3     1 NDP601      0.0000 
     37 C2N        -4.8880    7.4520   34.3160 C.2       1 NDP601      0.0000 
     38 C3N        -4.2930    7.7780   33.0880 C.2       1 NDP601      0.0000 
     39 C7N        -4.2720    6.7400   31.9790 C.2       1 NDP601      0.0000 
     40 O7N        -3.8330    7.0570   30.8620 O.2       1 NDP601      0.0000 
     41 N7N        -4.7570    5.4070   32.1960 N.am      1 NDP601      0.0000 
     42 C4N        -3.7330    9.0560   32.9000 C.3       1 NDP601      0.0000 
     43 C5N        -3.7950    9.9580   33.9690 C.2       1 NDP601      0.0000 
     44 C6N        -4.3930    9.5930   35.1750 C.2       1 NDP601      0.0000 
     45 P2B        -7.9750   20.9880   42.4590 P.3       1 NDP601      0.0000 
     46 O1X        -8.8400   20.2090   43.4680 O.co2     1 NDP601      0.0000 
     47 O2X        -6.6800   21.3390   43.0630 O.co2     1 NDP601      0.0000 
     48 O3X        -8.6650   22.2550   42.0680 O.co2     1 NDP601      0.0000 
@<TRIPOS>BOND
     1    1    2 ar   
     2    1    3 ar   
     3    1    4 1    
     4    1   23 1    
     5    4    5 1    
     6    5    6 1    
     7    6    7 1    
     8    6    8 1    
     9    7   12 1    
    10    8    9 1    
    11    8   10 1    
    12   10   11 1    
    13   10   12 1    
    14   11   45 1    
    15   12   13 1    
    16   13   14 1    
    17   13   22 1    
    18   14   15 2    
    19   15   16 1    
    20   16   17 ar   
    21   16   22 ar   
    22   17   18 1    
    23   17   19 ar   
    24   19   20 ar   
    25   20   21 ar   
    26   21   22 ar   
    27   23   24 1    
    28   24   25 ar   
    29   24   26 ar   
    30   24   27 1    
    31   27   28 1    
    32   28   29 1    
    33   29   30 1    
    34   29   31 1    
    35   30   35 1    
    36   31   32 1    
    37   31   33 1    
    38   33   34 1    
    39   33   35 1    
    40   35   36 1    
    41   36   37 1    
    42   36   44 1    
    43   37   38 2    
    44   38   39 1    
    45   38   42 1    
    46   39   40 2    
    47   39   41 am   
    48   42   43 1    
    49   43   44 2    
    50   45   46 ar   
    51   45   47 ar   
    52   45   48 ar   
@<TRIPOS>SUBSTRUCTURE
     1 NDP601      1 GROUP   
@<TRIPOS>SET
ATOM$ORANGE STATIC     ATOMS   COLORGROUP SYSTEM 
42 5 5 6 6 8 8 10 10 12 12 14 14 16 16 17 17 20 \
20 22 22 28 28 29 29 31 31 33 33 35 35 37 37 38 38 39 \
39 42 42 43 43 44 44 

