#    Name: 6s84_3_APC_CAVITY_N1_8
#    Modification time : Fri May 22 19:41:55 2020

@<TRIPOS>MOLECULE
6s84_3_APC_CAVITY_N1_8
   44     0     5     0     0
SMALL
NO_CHARGES


@<TRIPOS>ATOM
      1 OG        -63.8000  -74.9800  -43.5600 O.3       1 SER1        0.0000 
      2 OG        -66.8500  -71.1800  -42.5500 O.3       1 SER1        0.0000 
      3 OG        -65.7000  -71.8500  -43.2400 O.3       1 SER1        0.0000 
      4 OG        -64.5500  -72.5200  -43.9300 O.3       1 SER1        0.0000 
      5 OG        -62.9500  -73.7700  -43.3200 O.3       1 SER1        0.0000 
      6 N         -69.2600  -77.9900  -46.4600 N.am      2 ALA2        0.0000 
      7 N         -68.8100  -78.5700  -45.1600 N.am      2 ALA2        0.0000 
      8 N         -68.5600  -78.0800  -48.4600 N.am      2 ALA2        0.0000 
      9 N         -69.1100  -76.6900  -44.2200 N.am      2 ALA2        0.0000 
     10 N         -67.9600  -77.3600  -44.9100 N.am      2 ALA2        0.0000 
     11 N         -67.7100  -76.8700  -48.2200 N.am      2 ALA2        0.0000 
     12 O         -68.2600  -75.4800  -43.9700 O.2       2 ALA2        0.0000 
     13 N         -68.0000  -74.9900  -47.2800 N.am      2 ALA2        0.0000 
     14 O         -67.1500  -73.7800  -47.0400 O.2       2 ALA2        0.0000 
     15 O         -66.7000  -74.3600  -45.7300 O.2       2 ALA2        0.0000 
     16 O         -66.0000  -74.4500  -47.7300 O.2       2 ALA2        0.0000 
     17 O         -65.5500  -75.0300  -46.4200 O.2       2 ALA2        0.0000 
     18 O         -65.1000  -75.6100  -45.1100 O.2       2 ALA2        0.0000 
     19 O         -66.3000  -72.5700  -46.7900 O.2       2 ALA2        0.0000 
     20 O         -65.8500  -73.1500  -45.4900 O.2       2 ALA2        0.0000 
     21 O         -64.2500  -74.4000  -44.8700 O.2       2 ALA2        0.0000 
     22 O         -65.0000  -71.9400  -45.2400 O.2       2 ALA2        0.0000 
     23 O         -63.4000  -73.1900  -44.6200 O.2       2 ALA2        0.0000 
     24 CZ        -67.4000  -74.2700  -43.7300 C.ar      3 PHE5        0.0000 
     25 CZ        -66.2500  -74.9400  -44.4200 C.ar      3 PHE5        0.0000 
     26 CZ        -65.8100  -75.5200  -43.1100 C.ar      3 PHE5        0.0000 
     27 CZ        -66.5500  -73.0600  -43.4900 C.ar      3 PHE5        0.0000 
     28 CZ        -65.4000  -73.7300  -44.1800 C.ar      3 PHE5        0.0000 
     29 CA        -70.1200  -79.1900  -46.7100 C.3       4 GLY6        0.0000 
     30 CA        -68.9700  -79.8700  -47.4000 C.3       4 GLY6        0.0000 
     31 CA        -67.6600  -79.2400  -45.8500 C.3       4 GLY6        0.0000 
     32 CA        -68.4100  -76.7800  -46.2200 C.3       4 GLY6        0.0000 
     33 CA        -68.7100  -74.9000  -45.2800 C.3       4 GLY6        0.0000 
     34 CA        -69.0000  -73.0200  -44.3500 C.3       4 GLY6        0.0000 
     35 CA        -67.8500  -73.6900  -45.0400 C.3       4 GLY6        0.0000 
     36 CA        -67.7000  -72.3900  -42.7900 C.3       4 GLY6        0.0000 
     37 DU        -68.1100  -78.6600  -47.1600 H         5 CUB7        0.0000 
     38 DU        -67.2600  -77.4500  -46.9100 H         5 CUB7        0.0000 
     39 DU        -66.8100  -78.0300  -45.6000 H         5 CUB7        0.0000 
     40 DU        -67.5600  -75.5700  -45.9700 H         5 CUB7        0.0000 
     41 DU        -67.1100  -76.1500  -44.6700 H         5 CUB7        0.0000 
     42 DU        -66.4100  -76.2400  -46.6700 H         5 CUB7        0.0000 
     43 DU        -65.9600  -76.8200  -45.3600 H         5 CUB7        0.0000 
     44 DU        -67.0000  -72.4800  -44.7900 H         5 CUB7        0.0000 
@<TRIPOS>BOND
@<TRIPOS>SUBSTRUCTURE
     1 SER1        1 GROUP   
     2 ALA2        6 GROUP   
     3 PHE5       24 GROUP   
     4 GLY6       29 GROUP   
     5 CUB7       37 GROUP   
@<TRIPOS>SET

