#    Name: 6s84_3_APC
#    Modification time : Fri May 22 19:41:54 2020

@<TRIPOS>MOLECULE
6s84_3_APC
   31    33     1     0     0
SMALL
NO_CHARGES


@<TRIPOS>ATOM
      1 PG        -62.4280  -77.4380  -38.0880 P.3       1 APC400      0.0000 
      2 O1G       -61.1240  -77.2270  -37.3670 O.co2     1 APC400      0.0000 
      3 O2G       -62.9550  -76.1510  -38.6900 O.co2     1 APC400      0.0000 
      4 O3G       -63.4460  -78.1170  -37.2100 O.co2     1 APC400      0.0000 
      5 PB        -62.8280  -79.5990  -40.1690 P.3       1 APC400      0.0000 
      6 O1B       -62.6600  -80.9470  -39.5240 O.co2     1 APC400      0.0000 
      7 O2B       -64.2440  -79.1560  -40.4220 O.co2     1 APC400      0.0000 
      8 O3B       -62.0750  -78.4570  -39.3310 O.3       1 APC400      0.0000 
      9 PA        -63.4190  -80.5170  -42.8920 P.3       1 APC400      0.0000 
     10 O1A       -64.4460  -79.4540  -43.1700 O.co2     1 APC400      0.0000 
     11 O2A       -62.7560  -81.1210  -44.1020 O.co2     1 APC400      0.0000 
     12 C3A       -62.1280  -79.7720  -41.8340 C.3       1 APC400      0.0000 
     13 O5'       -64.1140  -81.6380  -41.9950 O.3       1 APC400      0.0000 
     14 C5'       -63.6760  -83.0240  -41.9940 C.3       1 APC400      0.0000 
     15 C4'       -64.6770  -83.8710  -41.2460 C.3       1 APC400      0.0000 
     16 O4'       -65.9480  -83.8410  -41.9450 O.3       1 APC400      0.0000 
     17 C3'       -64.3260  -85.3570  -41.0730 C.3       1 APC400      0.0000 
     18 O3'       -64.5550  -85.7650  -39.7310 O.3       1 APC400      0.0000 
     19 C2'       -65.2570  -86.0580  -42.0680 C.3       1 APC400      0.0000 
     20 O2'       -65.6030  -87.3820  -41.7220 O.3       1 APC400      0.0000 
     21 C1'       -66.4730  -85.1420  -42.0250 C.3       1 APC400      0.0000 
     22 N9        -67.3130  -85.2400  -43.2130 N.pl3     1 APC400      0.0000 
     23 C8        -67.0170  -84.7850  -44.4750 C.2       1 APC400      0.0000 
     24 N7        -67.9530  -85.0380  -45.3540 N.2       1 APC400      0.0000 
     25 C5        -68.9270  -85.7150  -44.6310 C.ar      1 APC400      0.0000 
     26 C6        -70.1750  -86.2670  -44.9960 C.ar      1 APC400      0.0000 
     27 N6        -70.6640  -86.2400  -46.2320 N.pl3     1 APC400      0.0000 
     28 N1        -70.8950  -86.8900  -44.0300 N.ar      1 APC400      0.0000 
     29 C2        -70.4000  -86.9250  -42.7850 C.ar      1 APC400      0.0000 
     30 N3        -69.2440  -86.4460  -42.3290 N.ar      1 APC400      0.0000 
     31 C4        -68.5430  -85.8460  -43.3090 C.ar      1 APC400      0.0000 
@<TRIPOS>BOND
     1    1    2 ar   
     2    1    3 ar   
     3    1    4 ar   
     4    1    8 1    
     5    5    6 ar   
     6    5    7 ar   
     7    5    8 1    
     8    5   12 1    
     9    9   10 ar   
    10    9   11 ar   
    11    9   12 1    
    12    9   13 1    
    13   13   14 1    
    14   14   15 1    
    15   15   16 1    
    16   15   17 1    
    17   16   21 1    
    18   17   18 1    
    19   17   19 1    
    20   19   20 1    
    21   19   21 1    
    22   21   22 1    
    23   22   23 1    
    24   22   31 1    
    25   23   24 2    
    26   24   25 1    
    27   25   26 ar   
    28   25   31 ar   
    29   26   27 1    
    30   26   28 ar   
    31   28   29 ar   
    32   29   30 ar   
    33   30   31 ar   
@<TRIPOS>SUBSTRUCTURE
     1 APC400      1 GROUP   
@<TRIPOS>SET

