#    Name: 6s84_3_APC_CAVITY_N1_4
#    Modification time : Fri May 22 19:41:55 2020

@<TRIPOS>MOLECULE
6s84_3_APC_CAVITY_N1_4
    2     0     1     0     0
SMALL
NO_CHARGES


@<TRIPOS>ATOM
      1 DU        -66.8100  -78.0300  -45.6000 H         1 CUB7        0.0000 
      2 DU        -65.9600  -76.8200  -45.3600 H         1 CUB7        0.0000 
@<TRIPOS>BOND
@<TRIPOS>SUBSTRUCTURE
     1 CUB7        1 GROUP   
@<TRIPOS>SET

