#    Name: 6s84_1_APC_CAVITY_N1_12
#    Modification time : Fri May 22 19:41:44 2020

@<TRIPOS>MOLECULE
6s84_1_APC_CAVITY_N1_12
  102     0     5     0     0
SMALL
NO_CHARGES


@<TRIPOS>ATOM
      1 OG        -20.9100  -17.4300   -8.6100 O.3       1 SER1        0.0000 
      2 OG        -20.4600  -18.0100   -7.3000 O.3       1 SER1        0.0000 
      3 OG        -17.9100  -18.8600  -11.9900 O.3       1 SER1        0.0000 
      4 OG        -16.7600  -19.5300  -12.6800 O.3       1 SER1        0.0000 
      5 OG        -18.6500  -16.4000  -12.3600 O.3       1 SER1        0.0000 
      6 OG        -17.0600  -17.6500  -11.7500 O.3       1 SER1        0.0000 
      7 OG        -15.9100  -18.3200  -12.4400 O.3       1 SER1        0.0000 
      8 OG        -15.2000  -18.4100  -14.4400 O.3       1 SER1        0.0000 
      9 OG        -14.7600  -18.9900  -13.1300 O.3       1 SER1        0.0000 
     10 OG        -18.5000  -15.1000  -10.1200 O.3       1 SER1        0.0000 
     11 OG        -17.3500  -15.7700  -10.8100 O.3       1 SER1        0.0000 
     12 N         -20.1600  -19.8900   -8.2400 N.am      2 ALA2        0.0000 
     13 N         -19.0100  -20.5600   -8.9300 N.am      2 ALA2        0.0000 
     14 N         -17.8700  -21.2300   -9.6200 N.am      2 ALA2        0.0000 
     15 N         -17.4200  -21.8100   -8.3100 N.am      2 ALA2        0.0000 
     16 N         -16.7200  -21.9000  -10.3100 N.am      2 ALA2        0.0000 
     17 N         -16.2700  -22.4800   -9.0000 N.am      2 ALA2        0.0000 
     18 N         -16.2100  -20.9200  -16.9300 N.am      2 ALA2        0.0000 
     19 N         -15.7600  -21.5000  -15.6200 N.am      2 ALA2        0.0000 
     20 N         -15.0600  -21.5900  -17.6200 N.am      2 ALA2        0.0000 
     21 N         -19.3100  -18.6800   -7.9900 N.am      2 ALA2        0.0000 
     22 N         -18.1600  -19.3500   -8.6800 N.am      2 ALA2        0.0000 
     23 N         -17.7100  -19.9300   -7.3800 N.am      2 ALA2        0.0000 
     24 N         -16.5600  -20.6000   -8.0700 N.am      2 ALA2        0.0000 
     25 N         -14.7100  -21.3600  -10.7600 N.am      2 ALA2        0.0000 
     26 N         -14.0100  -21.4500  -12.7600 N.am      2 ALA2        0.0000 
     27 N         -14.3100  -19.5700  -11.8200 N.am      2 ALA2        0.0000 
     28 N         -13.8600  -20.1500  -10.5200 N.am      2 ALA2        0.0000 
     29 N         -13.4100  -20.7300   -9.2100 N.am      2 ALA2        0.0000 
     30 N         -16.2000  -16.4400  -11.5000 N.am      2 ALA2        0.0000 
     31 N         -15.7500  -17.0200  -10.2000 N.am      2 ALA2        0.0000 
     32 N         -15.3100  -17.6000   -8.8900 N.am      2 ALA2        0.0000 
     33 N         -14.6000  -17.6900  -10.8900 N.am      2 ALA2        0.0000 
     34 N         -14.1600  -18.2700   -9.5800 N.am      2 ALA2        0.0000 
     35 N         -13.9000  -17.7800  -12.8900 N.am      2 ALA2        0.0000 
     36 N         -13.4600  -18.3600  -11.5800 N.am      2 ALA2        0.0000 
     37 N         -14.4500  -16.3900   -8.6400 N.am      2 ALA2        0.0000 
     38 CZ        -21.5100  -18.1400  -12.1600 C.ar      3 PHE5        0.0000 
     39 CZ        -21.0600  -18.7200  -10.8500 C.ar      3 PHE5        0.0000 
     40 CZ        -20.6100  -19.3100   -9.5500 C.ar      3 PHE5        0.0000 
     41 CZ        -19.9100  -19.4000  -11.5500 C.ar      3 PHE5        0.0000 
     42 CZ        -19.4600  -19.9800  -10.2400 C.ar      3 PHE5        0.0000 
     43 CZ        -20.2100  -17.5200  -10.6100 C.ar      3 PHE5        0.0000 
     44 CZ        -19.7600  -18.1000   -9.3000 C.ar      3 PHE5        0.0000 
     45 CZ        -19.5100  -17.6100  -12.6100 C.ar      3 PHE5        0.0000 
     46 CZ        -18.3600  -18.2800  -13.3000 C.ar      3 PHE5        0.0000 
     47 CZ        -16.0600  -19.6200  -14.6800 C.ar      3 PHE5        0.0000 
     48 CZ        -19.6100  -16.8000   -7.0600 C.ar      3 PHE5        0.0000 
     49 CZ        -19.3500  -16.3100  -10.3600 C.ar      3 PHE5        0.0000 
     50 CZ        -18.9100  -16.8900   -9.0600 C.ar      3 PHE5        0.0000 
     51 CZ        -19.6500  -14.4300   -9.4300 C.ar      3 PHE5        0.0000 
     52 CZ        -19.2000  -15.0100   -8.1200 C.ar      3 PHE5        0.0000 
     53 CZ        -13.7100  -18.8500   -8.2700 C.ar      3 PHE5        0.0000 
     54 CZ        -13.0100  -18.9400  -10.2700 C.ar      3 PHE5        0.0000 
     55 CZ        -12.5600  -19.5300   -8.9600 C.ar      3 PHE5        0.0000 
     56 CZ        -13.3000  -17.0600   -9.3300 C.ar      3 PHE5        0.0000 
     57 CA        -20.3600  -18.8100  -12.8500 C.3       4 GLY6        0.0000 
     58 CA        -19.2100  -19.4900  -13.5500 C.3       4 GLY6        0.0000 
     59 CA        -18.7600  -20.0700  -12.2400 C.3       4 GLY6        0.0000 
     60 CA        -18.0600  -20.1600  -14.2400 C.3       4 GLY6        0.0000 
     61 CA        -17.6100  -20.7400  -12.9300 C.3       4 GLY6        0.0000 
     62 CA        -17.3600  -20.2500  -16.2400 C.3       4 GLY6        0.0000 
     63 CA        -16.9100  -20.8300  -14.9300 C.3       4 GLY6        0.0000 
     64 CA        -16.4600  -21.4100  -13.6200 C.3       4 GLY6        0.0000 
     65 CA        -16.0100  -21.9900  -12.3100 C.3       4 GLY6        0.0000 
     66 CA        -15.3100  -22.0800  -14.3100 C.3       4 GLY6        0.0000 
     67 CA        -14.8700  -22.6600  -13.0000 C.3       4 GLY6        0.0000 
     68 CA        -14.6100  -22.1700  -16.3100 C.3       4 GLY6        0.0000 
     69 CA        -14.1600  -22.7500  -15.0000 C.3       4 GLY6        0.0000 
     70 CA        -20.6600  -16.9300  -11.9200 C.3       4 GLY6        0.0000 
     71 CA        -15.3600  -19.7100  -16.6800 C.3       4 GLY6        0.0000 
     72 CA        -14.9100  -20.2900  -15.3800 C.3       4 GLY6        0.0000 
     73 CA        -14.4600  -20.8700  -14.0700 C.3       4 GLY6        0.0000 
     74 CA        -19.8000  -15.7300  -11.6700 C.3       4 GLY6        0.0000 
     75 CA        -14.0600  -19.0800  -15.1300 C.3       4 GLY6        0.0000 
     76 CA        -18.9500  -14.5200  -11.4300 C.3       4 GLY6        0.0000 
     77 CA        -17.8000  -15.1900  -12.1200 C.3       4 GLY6        0.0000 
     78 CA        -17.2000  -14.4700   -8.5700 C.3       4 GLY6        0.0000 
     79 CA        -16.0500  -15.1400   -9.2600 C.3       4 GLY6        0.0000 
     80 DU        -18.3100  -20.6500  -10.9300 H         5 CUB7        0.0000 
     81 DU        -15.5700  -22.5700  -11.0000 H         5 CUB7        0.0000 
     82 DU        -19.0600  -18.1900  -11.3000 H         5 CUB7        0.0000 
     83 DU        -18.6100  -18.7700   -9.9900 H         5 CUB7        0.0000 
     84 DU        -17.0100  -20.0200   -9.3800 H         5 CUB7        0.0000 
     85 DU        -15.4100  -21.2700   -8.7600 H         5 CUB7        0.0000 
     86 DU        -15.6100  -20.2000  -13.3800 H         5 CUB7        0.0000 
     87 DU        -15.1600  -20.7800  -12.0700 H         5 CUB7        0.0000 
     88 DU        -18.4600  -17.4700   -7.7500 H         5 CUB7        0.0000 
     89 DU        -18.2000  -16.9800  -11.0600 H         5 CUB7        0.0000 
     90 DU        -17.3100  -18.1400   -8.4400 H         5 CUB7        0.0000 
     91 DU        -16.8600  -18.7200   -7.1300 H         5 CUB7        0.0000 
     92 DU        -16.6100  -18.2300  -10.4400 H         5 CUB7        0.0000 
     93 DU        -16.1600  -18.8100   -9.1300 H         5 CUB7        0.0000 
     94 DU        -15.7100  -19.3900   -7.8200 H         5 CUB7        0.0000 
     95 DU        -15.4600  -18.9000  -11.1300 H         5 CUB7        0.0000 
     96 DU        -15.0100  -19.4800   -9.8200 H         5 CUB7        0.0000 
     97 DU        -14.5600  -20.0600   -8.5200 H         5 CUB7        0.0000 
     98 DU        -18.7500  -15.5900   -6.8100 H         5 CUB7        0.0000 
     99 DU        -18.0500  -15.6800   -8.8100 H         5 CUB7        0.0000 
    100 DU        -16.9000  -16.3500   -9.5000 H         5 CUB7        0.0000 
    101 DU        -16.4600  -16.9300   -8.2000 H         5 CUB7        0.0000 
    102 DU        -14.8600  -18.1800   -7.5800 H         5 CUB7        0.0000 
@<TRIPOS>BOND
@<TRIPOS>SUBSTRUCTURE
     1 SER1        1 GROUP   
     2 ALA2       12 GROUP   
     3 PHE5       38 GROUP   
     4 GLY6       57 GROUP   
     5 CUB7       80 GROUP   
@<TRIPOS>SET

