#    Name: 6s84_1_APC
#    Modification time : Fri May 22 19:41:43 2020

@<TRIPOS>MOLECULE
6s84_1_APC
   31    33     1     0     0
SMALL
NO_CHARGES


@<TRIPOS>ATOM
      1 PG        -16.5700  -16.4790  -10.6700 P.3       1 APC400      0.0000 
      2 O1G       -15.9920  -17.8690  -10.8420 O.co2     1 APC400      0.0000 
      3 O2G       -18.0770  -16.4570  -10.7820 O.co2     1 APC400      0.0000 
      4 O3G       -15.9140  -15.4540  -11.5630 O.co2     1 APC400      0.0000 
      5 PB        -14.9300  -15.4590   -8.4290 P.3       1 APC400      0.0000 
      6 O1B       -13.7950  -16.4430   -8.5170 O.co2     1 APC400      0.0000 
      7 O2B       -14.6570  -14.0820   -8.9630 O.co2     1 APC400      0.0000 
      8 O3B       -16.2290  -16.0430   -9.1470 O.3       1 APC400      0.0000 
      9 PA        -15.7870  -13.5750   -6.2860 P.3       1 APC400      0.0000 
     10 O1A       -16.9570  -13.2150   -7.1610 O.co2     1 APC400      0.0000 
     11 O2A       -16.0210  -13.5000   -4.8010 O.co2     1 APC400      0.0000 
     12 C3A       -15.3500  -15.2920   -6.6720 C.3       1 APC400      0.0000 
     13 O5'       -14.5780  -12.6450   -6.7620 O.3       1 APC400      0.0000 
     14 C5'       -13.1890  -12.8670   -6.3880 C.3       1 APC400      0.0000 
     15 C4'       -12.3210  -11.7820   -6.9840 C.3       1 APC400      0.0000 
     16 O4'       -12.8340  -10.4770   -6.5990 O.3       1 APC400      0.0000 
     17 C3'       -10.8470  -11.8040   -6.5600 C.3       1 APC400      0.0000 
     18 O3'        -9.9900  -11.6410   -7.6810 O.3       1 APC400      0.0000 
     19 C2'       -10.7600  -10.6650   -5.5400 C.3       1 APC400      0.0000 
     20 O2'        -9.4720  -10.0970   -5.4620 O.3       1 APC400      0.0000 
     21 C1'       -11.7990   -9.6810   -6.0720 C.3       1 APC400      0.0000 
     22 N9        -12.3440   -8.8000   -5.0400 N.pl3     1 APC400      0.0000 
     23 C8        -13.0270   -9.1860   -3.9140 C.2       1 APC400      0.0000 
     24 N7        -13.3670   -8.1870   -3.1400 N.2       1 APC400      0.0000 
     25 C5        -12.8680   -7.0660   -3.7860 C.ar      1 APC400      0.0000 
     26 C6        -12.8960   -5.6910   -3.4640 C.ar      1 APC400      0.0000 
     27 N6        -13.4510   -5.1950   -2.3590 N.pl3     1 APC400      0.0000 
     28 N1        -12.2860   -4.8340   -4.3190 N.ar      1 APC400      0.0000 
     29 C2        -11.7150   -5.3300   -5.4240 C.ar      1 APC400      0.0000 
     30 N3        -11.6350   -6.5960   -5.8290 N.ar      1 APC400      0.0000 
     31 C4        -12.2330   -7.4290   -4.9590 C.ar      1 APC400      0.0000 
@<TRIPOS>BOND
     1    1    2 ar   
     2    1    3 ar   
     3    1    4 ar   
     4    1    8 1    
     5    5    6 ar   
     6    5    7 ar   
     7    5    8 1    
     8    5   12 1    
     9    9   10 ar   
    10    9   11 ar   
    11    9   12 1    
    12    9   13 1    
    13   13   14 1    
    14   14   15 1    
    15   15   16 1    
    16   15   17 1    
    17   16   21 1    
    18   17   18 1    
    19   17   19 1    
    20   19   20 1    
    21   19   21 1    
    22   21   22 1    
    23   22   23 1    
    24   22   31 1    
    25   23   24 2    
    26   24   25 1    
    27   25   26 ar   
    28   25   31 ar   
    29   26   27 1    
    30   26   28 ar   
    31   28   29 ar   
    32   29   30 ar   
    33   30   31 ar   
@<TRIPOS>SUBSTRUCTURE
     1 APC400      1 GROUP   
@<TRIPOS>SET

