#    Name: 6s84_3_APC_CAVITY_N1_6
#    Modification time : Fri May 22 19:41:55 2020

@<TRIPOS>MOLECULE
6s84_3_APC_CAVITY_N1_6
   23     0     5     0     0
SMALL
NO_CHARGES


@<TRIPOS>ATOM
      1 OG        -63.8000  -74.9800  -43.5600 O.3       1 SER1        0.0000 
      2 OG        -62.9500  -73.7700  -43.3200 O.3       1 SER1        0.0000 
      3 N         -68.8100  -78.5700  -45.1600 N.am      2 ALA2        0.0000 
      4 N         -69.1100  -76.6900  -44.2200 N.am      2 ALA2        0.0000 
      5 N         -67.9600  -77.3600  -44.9100 N.am      2 ALA2        0.0000 
      6 O         -68.2600  -75.4800  -43.9700 O.2       2 ALA2        0.0000 
      7 O         -65.5500  -75.0300  -46.4200 O.2       2 ALA2        0.0000 
      8 O         -65.1000  -75.6100  -45.1100 O.2       2 ALA2        0.0000 
      9 O         -64.2500  -74.4000  -44.8700 O.2       2 ALA2        0.0000 
     10 CZ        -67.4000  -74.2700  -43.7300 C.ar      3 PHE5        0.0000 
     11 CZ        -66.2500  -74.9400  -44.4200 C.ar      3 PHE5        0.0000 
     12 CZ        -65.8100  -75.5200  -43.1100 C.ar      3 PHE5        0.0000 
     13 CZ        -65.4000  -73.7300  -44.1800 C.ar      3 PHE5        0.0000 
     14 CA        -68.9700  -79.8700  -47.4000 C.3       4 GLY6        0.0000 
     15 CA        -67.6600  -79.2400  -45.8500 C.3       4 GLY6        0.0000 
     16 CA        -68.4100  -76.7800  -46.2200 C.3       4 GLY6        0.0000 
     17 DU        -68.1100  -78.6600  -47.1600 H         5 CUB7        0.0000 
     18 DU        -67.2600  -77.4500  -46.9100 H         5 CUB7        0.0000 
     19 DU        -66.8100  -78.0300  -45.6000 H         5 CUB7        0.0000 
     20 DU        -67.5600  -75.5700  -45.9700 H         5 CUB7        0.0000 
     21 DU        -67.1100  -76.1500  -44.6700 H         5 CUB7        0.0000 
     22 DU        -66.4100  -76.2400  -46.6700 H         5 CUB7        0.0000 
     23 DU        -65.9600  -76.8200  -45.3600 H         5 CUB7        0.0000 
@<TRIPOS>BOND
@<TRIPOS>SUBSTRUCTURE
     1 SER1        1 GROUP   
     2 ALA2        3 GROUP   
     3 PHE5       10 GROUP   
     4 GLY6       14 GROUP   
     5 CUB7       17 GROUP   
@<TRIPOS>SET

