#    Name: 6s84_4_APC
#    Modification time : Fri May 22 19:42:00 2020

@<TRIPOS>MOLECULE
6s84_4_APC
   31    33     1     0     0
SMALL
NO_CHARGES


@<TRIPOS>ATOM
      1 PG        -59.2870  -93.8210  -30.1200 P.3       1 APC201      0.0000 
      2 O1G       -57.8820  -93.2990  -30.3150 O.co2     1 APC201      0.0000 
      3 O2G       -60.2870  -92.7120  -29.8710 O.co2     1 APC201      0.0000 
      4 O3G       -59.7090  -94.7590  -31.2250 O.co2     1 APC201      0.0000 
      5 PB        -59.6590  -94.3850  -27.2750 P.3       1 APC201      0.0000 
      6 O1B       -59.7210  -95.6810  -26.5200 O.co2     1 APC201      0.0000 
      7 O2B       -58.7470  -93.3290  -26.7120 O.co2     1 APC201      0.0000 
      8 O3B       -59.2800  -94.7180  -28.7810 O.3       1 APC201      0.0000 
      9 PA        -62.0140  -93.5730  -25.5890 P.3       1 APC201      0.0000 
     10 O1A       -60.8770  -93.7440  -24.6200 O.co2     1 APC201      0.0000 
     11 O2A       -62.7780  -92.2800  -25.4770 O.co2     1 APC201      0.0000 
     12 C3A       -61.3270  -93.6790  -27.2620 C.3       1 APC201      0.0000 
     13 O5'       -63.0310  -94.7970  -25.5230 O.3       1 APC201      0.0000 
     14 C5'       -63.3710  -95.4800  -24.2830 C.3       1 APC201      0.0000 
     15 C4'       -64.8570  -95.7580  -24.2330 C.3       1 APC201      0.0000 
     16 O4'       -65.1040  -97.0090  -23.5350 O.3       1 APC201      0.0000 
     17 C3'       -65.7170  -94.7210  -23.5010 C.3       1 APC201      0.0000 
     18 O3'       -67.0150  -94.6760  -24.0790 O.3       1 APC201      0.0000 
     19 C2'       -65.7740  -95.2990  -22.0860 C.3       1 APC201      0.0000 
     20 O2'       -66.8760  -94.8160  -21.3530 O.3       1 APC201      0.0000 
     21 C1'       -65.9280  -96.7790  -22.4120 C.3       1 APC201      0.0000 
     22 N9        -65.5550  -97.7000  -21.3410 N.pl3     1 APC201      0.0000 
     23 C8        -66.3150  -98.7550  -20.9050 C.2       1 APC201      0.0000 
     24 N7        -65.7510  -99.4400  -19.9440 N.2       1 APC201      0.0000 
     25 C5        -64.5370  -98.8050  -19.7300 C.ar      1 APC201      0.0000 
     26 C6        -63.4780  -99.0690  -18.8370 C.ar      1 APC201      0.0000 
     27 N6        -63.4680 -100.0800  -17.9690 N.pl3     1 APC201      0.0000 
     28 N1        -62.4040  -98.2470  -18.8920 N.ar      1 APC201      0.0000 
     29 C2        -62.4150  -97.2380  -19.7740 C.ar      1 APC201      0.0000 
     30 N3        -63.3500  -96.8970  -20.6570 N.ar      1 APC201      0.0000 
     31 C4        -64.4020  -97.7300  -20.5880 C.ar      1 APC201      0.0000 
@<TRIPOS>BOND
     1    1    2 ar   
     2    1    3 ar   
     3    1    4 ar   
     4    1    8 1    
     5    5    6 ar   
     6    5    7 ar   
     7    5    8 1    
     8    5   12 1    
     9    9   10 ar   
    10    9   11 ar   
    11    9   12 1    
    12    9   13 1    
    13   13   14 1    
    14   14   15 1    
    15   15   16 1    
    16   15   17 1    
    17   16   21 1    
    18   17   18 1    
    19   17   19 1    
    20   19   20 1    
    21   19   21 1    
    22   21   22 1    
    23   22   23 1    
    24   22   31 1    
    25   23   24 2    
    26   24   25 1    
    27   25   26 ar   
    28   25   31 ar   
    29   26   27 1    
    30   26   28 ar   
    31   28   29 ar   
    32   29   30 ar   
    33   30   31 ar   
@<TRIPOS>SUBSTRUCTURE
     1 APC201      1 GROUP   
@<TRIPOS>SET

