#    Name: 6s84_2_APC
#    Modification time : Fri May 22 19:41:48 2020

@<TRIPOS>MOLECULE
6s84_2_APC
   31    33     1     0     0
SMALL
NO_CHARGES


@<TRIPOS>ATOM
      1 PG          0.3580  -15.5700  -15.5100 P.3       1 APC203      0.0000 
      2 O1G        -0.2990  -16.9200  -15.7380 O.co2     1 APC203      0.0000 
      3 O2G        -0.5210  -14.5960  -14.7760 O.co2     1 APC203      0.0000 
      4 O3G         1.7350  -15.6740  -14.9130 O.co2     1 APC203      0.0000 
      5 PB          1.2590  -15.3720  -18.2330 P.3       1 APC203      0.0000 
      6 O1B         0.3180  -16.2730  -18.9740 O.co2     1 APC203      0.0000 
      7 O2B         2.5760  -15.9660  -17.8340 O.co2     1 APC203      0.0000 
      8 O3B         0.5280  -14.8670  -16.9340 O.3       1 APC203      0.0000 
      9 PA          0.2080  -13.3870  -20.3050 P.3       1 APC203      0.0000 
     10 O1A        -1.1060  -13.3700  -19.5640 O.co2     1 APC203      0.0000 
     11 O2A         0.3270  -14.2860  -21.5060 O.co2     1 APC203      0.0000 
     12 C3A         1.5530  -13.8590  -19.1880 C.3       1 APC203      0.0000 
     13 O5'         0.4980  -11.8920  -20.7150 O.3       1 APC203      0.0000 
     14 C5'         1.6060  -11.5550  -21.5680 C.3       1 APC203      0.0000 
     15 C4'         1.5870  -10.0710  -21.8170 C.3       1 APC203      0.0000 
     16 O4'         2.9150   -9.6500  -22.2210 O.3       1 APC203      0.0000 
     17 C3'         0.6330   -9.5970  -22.9190 C.3       1 APC203      0.0000 
     18 O3'         0.0080   -8.3820  -22.5190 O.3       1 APC203      0.0000 
     19 C2'         1.5610   -9.4600  -24.1320 C.3       1 APC203      0.0000 
     20 O2'         1.1050   -8.5380  -25.0990 O.3       1 APC203      0.0000 
     21 C1'         2.8540   -8.9930  -23.4670 C.3       1 APC203      0.0000 
     22 N9          4.0720   -9.3040  -24.2100 N.pl3     1 APC203      0.0000 
     23 C8          5.0380   -8.4060  -24.5970 C.2       1 APC203      0.0000 
     24 N7          6.0320   -8.9600  -25.2450 N.2       1 APC203      0.0000 
     25 C5          5.7090  -10.3110  -25.2880 C.ar      1 APC203      0.0000 
     26 C6          6.3670  -11.4300  -25.8430 C.ar      1 APC203      0.0000 
     27 N6          7.5300  -11.3620  -26.4830 N.pl3     1 APC203      0.0000 
     28 N1          5.7740  -12.6410  -25.7050 N.ar      1 APC203      0.0000 
     29 C2          4.6010  -12.7060  -25.0610 C.ar      1 APC203      0.0000 
     30 N3          3.8910  -11.7270  -24.5040 N.ar      1 APC203      0.0000 
     31 C4          4.5020  -10.5370  -24.6500 C.ar      1 APC203      0.0000 
@<TRIPOS>BOND
     1    1    2 ar   
     2    1    3 ar   
     3    1    4 ar   
     4    1    8 1    
     5    5    6 ar   
     6    5    7 ar   
     7    5    8 1    
     8    5   12 1    
     9    9   10 ar   
    10    9   11 ar   
    11    9   12 1    
    12    9   13 1    
    13   13   14 1    
    14   14   15 1    
    15   15   16 1    
    16   15   17 1    
    17   16   21 1    
    18   17   18 1    
    19   17   19 1    
    20   19   20 1    
    21   19   21 1    
    22   21   22 1    
    23   22   23 1    
    24   22   31 1    
    25   23   24 2    
    26   24   25 1    
    27   25   26 ar   
    28   25   31 ar   
    29   26   27 1    
    30   26   28 ar   
    31   28   29 ar   
    32   29   30 ar   
    33   30   31 ar   
@<TRIPOS>SUBSTRUCTURE
     1 APC203      1 GROUP   
@<TRIPOS>SET

