#    Name: 6s84_2_APC_CAVITY_N1_6
#    Modification time : Fri May 22 19:41:50 2020

@<TRIPOS>MOLECULE
6s84_2_APC_CAVITY_N1_6
   82     0     6     0     0
SMALL
NO_CHARGES


@<TRIPOS>ATOM
      1 OG          1.0700  -13.6100  -21.3200 O.3       1 SER1        0.0000 
      2 OG          1.4800  -11.8200  -22.3900 O.3       1 SER1        0.0000 
      3 OG         -2.4600   -6.8600  -23.9900 O.3       1 SER1        0.0000 
      4 OG          3.0300  -10.7000  -24.1400 O.3       1 SER1        0.0000 
      5 OG          3.4800  -11.2900  -22.8300 O.3       1 SER1        0.0000 
      6 OG          1.5800   -8.1500  -22.5100 O.3       1 SER1        0.0000 
      7 OG          2.0300   -8.7300  -21.2100 O.3       1 SER1        0.0000 
      8 OG          3.5900   -7.6200  -22.9600 O.3       1 SER1        0.0000 
      9 OG          4.0300   -8.2000  -21.6500 O.3       1 SER1        0.0000 
     10 OG          4.7400   -8.2900  -23.6500 O.3       1 SER1        0.0000 
     11 N           2.3700  -12.9900  -19.7700 N.am      2 ALA2        0.0000 
     12 O          -0.8700   -8.1100  -23.3800 O.2       2 ALA2        0.0000 
     13 O          -0.4200   -8.6900  -22.0700 O.2       2 ALA2        0.0000 
     14 N           0.0300   -9.2700  -20.7600 N.am      2 ALA2        0.0000 
     15 N           2.7800  -11.2000  -20.8300 N.am      2 ALA2        0.0000 
     16 N           3.9300  -11.8700  -21.5300 N.am      2 ALA2        0.0000 
     17 N           3.6300   -9.9900  -20.5900 N.am      2 ALA2        0.0000 
     18 N           6.1400   -8.4700  -27.6500 N.am      2 ALA2        0.0000 
     19 N           6.5900   -9.0500  -26.3500 N.am      2 ALA2        0.0000 
     20 N           5.1400   -6.5000  -24.7200 N.am      2 ALA2        0.0000 
     21 OD1        -3.1700  -11.2500  -27.4200 O.co2     3 ASP3        0.0000 
     22 OD1        -2.7700   -9.4600  -28.4800 O.co2     3 ASP3        0.0000 
     23 OD1         0.3700  -13.5200  -19.3200 O.co2     3 ASP3        0.0000 
     24 OD1        -1.6200  -10.1300  -29.1700 O.co2     3 ASP3        0.0000 
     25 OD1         1.2200  -12.3200  -19.0800 O.co2     3 ASP3        0.0000 
     26 OD1         4.6300  -11.9600  -23.5300 O.co2     3 ASP3        0.0000 
     27 OD1         4.3300  -10.0800  -22.5900 O.co2     3 ASP3        0.0000 
     28 OD1         5.0300  -10.1700  -24.5900 O.co2     3 ASP3        0.0000 
     29 OD1         5.8900   -8.9600  -24.3500 O.co2     3 ASP3        0.0000 
     30 NZ         -3.8700  -11.1600  -25.4200 N.4       4 LYS4        0.0000 
     31 NZ         -3.4700   -9.3700  -26.4800 N.4       4 LYS4        0.0000 
     32 NZ         -3.0200   -9.9500  -25.1700 N.4       4 LYS4        0.0000 
     33 NZ         -2.5700  -10.5300  -23.8700 N.4       4 LYS4        0.0000 
     34 NZ         -2.3200  -10.0400  -27.1700 N.4       4 LYS4        0.0000 
     35 NZ         -1.8700  -10.6200  -25.8700 N.4       4 LYS4        0.0000 
     36 NZ         -3.3200   -8.0700  -24.2400 N.4       4 LYS4        0.0000 
     37 NZ         -1.0200   -9.4100  -25.6200 N.4       4 LYS4        0.0000 
     38 NZ          0.2800   -8.7800  -24.0700 N.4       4 LYS4        0.0000 
     39 NZ          1.4300   -9.4500  -24.7600 N.4       4 LYS4        0.0000 
     40 NZ          2.2900   -8.2400  -24.5100 N.4       4 LYS4        0.0000 
     41 NZ          3.4300   -8.9100  -25.2100 N.4       4 LYS4        0.0000 
     42 NZ          3.8400   -7.1200  -26.2700 N.4       4 LYS4        0.0000 
     43 NZ          4.9900   -7.8000  -26.9600 N.4       4 LYS4        0.0000 
     44 CA         -2.7300  -11.8300  -26.1100 C.3       5 GLY6        0.0000 
     45 CA         -0.5300  -12.3600  -21.9400 C.3       5 GLY6        0.0000 
     46 CA         -0.0800  -12.9400  -20.6300 C.3       5 GLY6        0.0000 
     47 CA         -2.8700   -8.6500  -22.9300 C.3       5 GLY6        0.0000 
     48 CA         -1.7200   -9.3200  -23.6200 C.3       5 GLY6        0.0000 
     49 CA         -1.2700   -9.9000  -22.3100 C.3       5 GLY6        0.0000 
     50 CA         -0.3800  -11.0600  -19.7000 C.3       5 GLY6        0.0000 
     51 CA         -0.5700   -9.9900  -24.3100 C.3       5 GLY6        0.0000 
     52 CA         -0.1200  -10.5700  -23.0000 C.3       5 GLY6        0.0000 
     53 CA          0.3300  -11.1500  -21.7000 C.3       5 GLY6        0.0000 
     54 CA          0.7700  -11.7300  -20.3900 C.3       5 GLY6        0.0000 
     55 CA          1.0300  -11.2400  -23.7000 C.3       5 GLY6        0.0000 
     56 CA          1.9200  -12.4100  -21.0800 C.3       5 GLY6        0.0000 
     57 CA          1.1800   -9.9400  -21.4500 C.3       5 GLY6        0.0000 
     58 CA          1.6300  -10.5200  -20.1400 C.3       5 GLY6        0.0000 
     59 CA          4.1800  -11.3800  -24.8300 C.3       5 GLY6        0.0000 
     60 CA          5.3300  -12.0500  -25.5300 C.3       5 GLY6        0.0000 
     61 CA         -0.0100   -6.9000  -23.1300 C.3       5 GLY6        0.0000 
     62 CA          0.4300   -7.4800  -21.8200 C.3       5 GLY6        0.0000 
     63 CA          3.1800   -9.4100  -21.9000 C.3       5 GLY6        0.0000 
     64 CA          4.5800   -9.5900  -25.9000 C.3       5 GLY6        0.0000 
     65 CA          5.7300  -10.2600  -26.5900 C.3       5 GLY6        0.0000 
     66 CA          6.1800  -10.8400  -25.2800 C.3       5 GLY6        0.0000 
     67 CA          5.4400   -8.3800  -25.6500 C.3       5 GLY6        0.0000 
     68 CA          5.6900   -7.8900  -28.9600 C.3       5 GLY6        0.0000 
     69 CA          7.0300   -9.6300  -25.0400 C.3       5 GLY6        0.0000 
     70 CA          5.8400   -6.5900  -26.7200 C.3       5 GLY6        0.0000 
     71 CA          6.2900   -7.1700  -25.4100 C.3       5 GLY6        0.0000 
     72 DU         -3.9200   -8.7900  -27.7900 H         6 CUB7        0.0000 
     73 DU         -2.1700   -8.7400  -24.9300 H         6 CUB7        0.0000 
     74 DU         -1.3100   -7.5300  -24.6800 H         6 CUB7        0.0000 
     75 DU          0.7300   -9.3600  -22.7600 H         6 CUB7        0.0000 
     76 DU          1.8800  -10.0300  -23.4500 H         6 CUB7        0.0000 
     77 DU          2.3300  -10.6100  -22.1400 H         6 CUB7        0.0000 
     78 DU          1.1400   -7.5700  -23.8200 H         6 CUB7        0.0000 
     79 DU          2.7300   -8.8200  -23.2100 H         6 CUB7        0.0000 
     80 DU          3.8800   -9.5000  -23.9000 H         6 CUB7        0.0000 
     81 DU          3.1400   -7.0300  -24.2700 H         6 CUB7        0.0000 
     82 DU          4.2900   -7.7100  -24.9600 H         6 CUB7        0.0000 
@<TRIPOS>BOND
@<TRIPOS>SUBSTRUCTURE
     1 SER1        1 GROUP   
     2 ALA2       11 GROUP   
     3 ASP3       21 GROUP   
     4 LYS4       30 GROUP   
     5 GLY6       44 GROUP   
     6 CUB7       72 GROUP   
@<TRIPOS>SET

