#    Name: 6j5t_5_DTP
#    Modification time : Fri May 22 19:30:15 2020

@<TRIPOS>MOLECULE
6j5t_5_DTP
   30    32     1     0     0
SMALL
NO_CHARGES


@<TRIPOS>ATOM
      1 PG        168.0270  210.8050  177.4680 P.3       1 DTP901      0.0000 
      2 O1G       168.7870  211.7710  178.3160 O.co2     1 DTP901      0.0000 
      3 O2G       167.5560  209.6200  178.2420 O.co2     1 DTP901      0.0000 
      4 O3G       168.7500  210.4260  176.2120 O.co2     1 DTP901      0.0000 
      5 PB        165.8600  211.3890  175.6720 P.3       1 DTP901      0.0000 
      6 O1B       166.7820  211.6000  174.5370 O.co2     1 DTP901      0.0000 
      7 O2B       164.6400  212.2170  175.7870 O.co2     1 DTP901      0.0000 
      8 O3B       166.7060  211.5570  177.0100 O.3       1 DTP901      0.0000 
      9 PA        165.0490  208.9430  174.4710 P.3       1 DTP901      0.0000 
     10 O1A       164.8190  209.8430  173.3100 O.co2     1 DTP901      0.0000 
     11 O2A       166.0540  207.8530  174.3450 O.co2     1 DTP901      0.0000 
     12 O3A       165.4470  209.8500  175.7210 O.3       1 DTP901      0.0000 
     13 O5'       163.6500  208.3270  174.9250 O.3       1 DTP901      0.0000 
     14 C5'       163.6310  207.2270  175.8580 C.3       1 DTP901      0.0000 
     15 C4'       162.6310  206.2090  175.3720 C.3       1 DTP901      0.0000 
     16 O4'       161.4430  206.9110  174.9570 O.3       1 DTP901      0.0000 
     17 C3'       163.0880  205.3790  174.1750 C.3       1 DTP901      0.0000 
     18 O3'       162.6980  204.0240  174.3610 O.3       1 DTP901      0.0000 
     19 C2'       162.3110  205.9960  173.0190 C.3       1 DTP901      0.0000 
     20 C1'       161.0240  206.4040  173.6970 C.3       1 DTP901      0.0000 
     21 N9        160.3500  207.4820  173.0090 N.pl3     1 DTP901      0.0000 
     22 C8        160.6110  208.8160  173.1140 C.2       1 DTP901      0.0000 
     23 N7        159.8130  209.5480  172.3740 N.2       1 DTP901      0.0000 
     24 C5        158.9850  208.6320  171.7440 C.ar      1 DTP901      0.0000 
     25 C6        157.9300  208.7740  170.8270 C.ar      1 DTP901      0.0000 
     26 N6        157.5010  209.9440  170.3700 N.pl3     1 DTP901      0.0000 
     27 N1        157.3190  207.6460  170.4020 N.ar      1 DTP901      0.0000 
     28 C2        157.7510  206.4690  170.8680 C.ar      1 DTP901      0.0000 
     29 N3        158.7310  206.2160  171.7290 N.ar      1 DTP901      0.0000 
     30 C4        159.3110  207.3540  172.1310 C.ar      1 DTP901      0.0000 
@<TRIPOS>BOND
     1    1    2 ar   
     2    1    3 ar   
     3    1    4 ar   
     4    1    8 1    
     5    5    6 ar   
     6    5    7 ar   
     7    5    8 1    
     8    5   12 1    
     9    9   10 ar   
    10    9   11 ar   
    11    9   12 1    
    12    9   13 1    
    13   13   14 1    
    14   14   15 1    
    15   15   16 1    
    16   15   17 1    
    17   16   20 1    
    18   17   18 1    
    19   17   19 1    
    20   19   20 1    
    21   20   21 1    
    22   21   22 1    
    23   21   30 1    
    24   22   23 2    
    25   23   24 1    
    26   24   25 ar   
    27   24   30 ar   
    28   25   26 1    
    29   25   27 ar   
    30   27   28 ar   
    31   28   29 ar   
    32   29   30 ar   
@<TRIPOS>SUBSTRUCTURE
     1 DTP901      1 GROUP   
@<TRIPOS>SET

