#    Name: 6j5t_2_DTP
#    Modification time : Fri May 22 19:29:29 2020

@<TRIPOS>MOLECULE
6j5t_2_DTP
   30    32     1     0     0
SMALL
NO_CHARGES


@<TRIPOS>ATOM
      1 PG        210.8300  168.0580  177.3830 P.3       1 DTP901      0.0000 
      2 O1G       209.7160  167.7460  178.3260 O.co2     1 DTP901      0.0000 
      3 O2G       211.9380  168.8010  178.0450 O.co2     1 DTP901      0.0000 
      4 O3G       210.3650  168.7130  176.1170 O.co2     1 DTP901      0.0000 
      5 PB        212.2830  166.3020  175.6440 P.3       1 DTP901      0.0000 
      6 O1B       211.4290  166.6240  174.4820 O.co2     1 DTP901      0.0000 
      7 O2B       212.8250  164.9360  175.7990 O.co2     1 DTP901      0.0000 
      8 O3B       211.4640  166.6680  176.9590 O.3       1 DTP901      0.0000 
      9 PA        214.4000  167.7790  174.4540 P.3       1 DTP901      0.0000 
     10 O1A       214.0720  166.8930  173.3040 O.co2     1 DTP901      0.0000 
     11 O2A       214.2770  169.2510  174.2800 O.co2     1 DTP901      0.0000 
     12 O3A       213.4870  167.3450  175.6870 O.3       1 DTP901      0.0000 
     13 O5'       215.8660  167.4270  174.9730 O.3       1 DTP901      0.0000 
     14 C5'       216.5070  168.3440  175.8820 C.3       1 DTP901      0.0000 
     15 C4'       217.9130  168.5980  175.4010 C.3       1 DTP901      0.0000 
     16 O4'       218.4760  167.3400  174.9790 O.3       1 DTP901      0.0000 
     17 C3'       218.0320  169.5480  174.2120 C.3       1 DTP901      0.0000 
     18 O3'       219.1630  170.3910  174.3900 O.3       1 DTP901      0.0000 
     19 C2'       218.2700  168.5950  173.0490 C.3       1 DTP901      0.0000 
     20 C1'       219.0950  167.5150  173.7100 C.3       1 DTP901      0.0000 
     21 N9        219.0140  166.2510  173.0190 N.pl3     1 DTP901      0.0000 
     22 C8        218.0280  165.3180  173.1280 C.2       1 DTP901      0.0000 
     23 N7        218.2460  164.2610  172.3830 N.2       1 DTP901      0.0000 
     24 C5        219.4480  164.5260  171.7460 C.ar      1 DTP901      0.0000 
     25 C6        220.2190  163.8000  170.8230 C.ar      1 DTP901      0.0000 
     26 N6        219.8840  162.6010  170.3630 N.pl3     1 DTP901      0.0000 
     27 N1        221.3700  164.3630  170.3930 N.ar      1 DTP901      0.0000 
     28 C2        221.7070  165.5700  170.8610 C.ar      1 DTP901      0.0000 
     29 N3        221.0620  166.3430  171.7280 N.ar      1 DTP901      0.0000 
     30 C4        219.9290  165.7540  172.1350 C.ar      1 DTP901      0.0000 
@<TRIPOS>BOND
     1    1    2 ar   
     2    1    3 ar   
     3    1    4 ar   
     4    1    8 1    
     5    5    6 ar   
     6    5    7 ar   
     7    5    8 1    
     8    5   12 1    
     9    9   10 ar   
    10    9   11 ar   
    11    9   12 1    
    12    9   13 1    
    13   13   14 1    
    14   14   15 1    
    15   15   16 1    
    16   15   17 1    
    17   16   20 1    
    18   17   18 1    
    19   17   19 1    
    20   19   20 1    
    21   20   21 1    
    22   21   22 1    
    23   21   30 1    
    24   22   23 2    
    25   23   24 1    
    26   24   25 ar   
    27   24   30 ar   
    28   25   26 1    
    29   25   27 ar   
    30   27   28 ar   
    31   28   29 ar   
    32   29   30 ar   
@<TRIPOS>SUBSTRUCTURE
     1 DTP901      1 GROUP   
@<TRIPOS>SET

