#    Name: 6j5t_4_DTP
#    Modification time : Fri May 22 19:30:01 2020

@<TRIPOS>MOLECULE
6j5t_4_DTP
   30    32     1     0     0
SMALL
NO_CHARGES


@<TRIPOS>ATOM
      1 PG        173.9080  173.8990  177.4180 P.3       1 DTP901      0.0000 
      2 O1G       173.2400  174.8880  178.3170 O.co2     1 DTP901      0.0000 
      3 O2G       174.9420  173.0960  178.1310 O.co2     1 DTP901      0.0000 
      4 O3G       174.4240  174.5100  176.1510 O.co2     1 DTP901      0.0000 
      5 PB        172.7070  171.9770  175.6610 P.3       1 DTP901      0.0000 
      6 O1B       172.7330  172.9020  174.5090 O.co2     1 DTP901      0.0000 
      7 O2B       171.5890  171.0220  175.8090 O.co2     1 DTP901      0.0000 
      8 O3B       172.7950  172.8540  176.9870 O.3       1 DTP901      0.0000 
      9 PA        174.7690  170.4410  174.4510 P.3       1 DTP901      0.0000 
     10 O1A       173.8230  170.5020  173.3050 O.co2     1 DTP901      0.0000 
     11 O2A       176.1370  171.0030  174.2810 O.co2     1 DTP901      0.0000 
     12 O3A       174.0810  171.1690  175.6920 O.3       1 DTP901      0.0000 
     13 O5'       174.8740  168.9330  174.9550 O.3       1 DTP901      0.0000 
     14 C5'       175.9250  168.5900  175.8810 C.3       1 DTP901      0.0000 
     15 C4'       176.5990  167.3300  175.4030 C.3       1 DTP901      0.0000 
     16 O4'       175.5770  166.4070  174.9770 O.3       1 DTP901      0.0000 
     17 C3'       177.5440  167.5090  174.2160 C.3       1 DTP901      0.0000 
     18 O3'       178.6930  166.6920  174.4010 O.3       1 DTP901      0.0000 
     19 C2'       176.7150  166.9860  173.0520 C.3       1 DTP901      0.0000 
     20 C1'       175.9430  165.8680  173.7130 C.3       1 DTP901      0.0000 
     21 N9        174.7190  165.5460  173.0190 N.pl3     1 DTP901      0.0000 
     22 C8        173.5230  166.1900  173.1240 C.2       1 DTP901      0.0000 
     23 N7        172.5900  165.6500  172.3780 N.2       1 DTP901      0.0000 
     24 C5        173.2210  164.5930  171.7420 C.ar      1 DTP901      0.0000 
     25 C6        172.7760  163.6350  170.8160 C.ar      1 DTP901      0.0000 
     26 N6        171.5330  163.5760  170.3540 N.pl3     1 DTP901      0.0000 
     27 N1        173.6740  162.7210  170.3860 N.ar      1 DTP901      0.0000 
     28 C2        174.9250  162.7820  170.8560 C.ar      1 DTP901      0.0000 
     29 N3        175.4540  163.6350  171.7250 N.ar      1 DTP901      0.0000 
     30 C4        174.5370  164.5230  172.1320 C.ar      1 DTP901      0.0000 
@<TRIPOS>BOND
     1    1    2 ar   
     2    1    3 ar   
     3    1    4 ar   
     4    1    8 1    
     5    5    6 ar   
     6    5    7 ar   
     7    5    8 1    
     8    5   12 1    
     9    9   10 ar   
    10    9   11 ar   
    11    9   12 1    
    12    9   13 1    
    13   13   14 1    
    14   14   15 1    
    15   15   16 1    
    16   15   17 1    
    17   16   20 1    
    18   17   18 1    
    19   17   19 1    
    20   19   20 1    
    21   20   21 1    
    22   21   22 1    
    23   21   30 1    
    24   22   23 2    
    25   23   24 1    
    26   24   25 ar   
    27   24   30 ar   
    28   25   26 1    
    29   25   27 ar   
    30   27   28 ar   
    31   28   29 ar   
    32   29   30 ar   
@<TRIPOS>SUBSTRUCTURE
     1 DTP901      1 GROUP   
@<TRIPOS>SET

