#    Name: 6j5t_3_DTP
#    Modification time : Fri May 22 19:29:45 2020

@<TRIPOS>MOLECULE
6j5t_3_DTP
   30    32     1     0     0
SMALL
NO_CHARGES


@<TRIPOS>ATOM
      1 PG        201.3700  227.7620  177.4040 P.3       1 DTP901      0.0000 
      2 O1G       202.4850  227.3790  178.3230 O.co2     1 DTP901      0.0000 
      3 O2G       200.0480  227.7690  178.0920 O.co2     1 DTP901      0.0000 
      4 O3G       201.3560  226.9680  176.1330 O.co2     1 DTP901      0.0000 
      5 PB        201.1950  230.0400  175.6600 P.3       1 DTP901      0.0000 
      6 O1B       201.7100  229.2760  174.5040 O.co2     1 DTP901      0.0000 
      7 O2B       201.5600  231.4640  175.8160 O.co2     1 DTP901      0.0000 
      8 O3B       201.6300  229.2690  176.9830 O.3       1 DTP901      0.0000 
      9 PA        198.6220  230.0810  174.4520 P.3       1 DTP901      0.0000 
     10 O1A       199.4180  230.6010  173.3080 O.co2     1 DTP901      0.0000 
     11 O2A       197.8610  228.8140  174.2790 O.co2     1 DTP901      0.0000 
     12 O3A       199.6080  229.9040  175.6920 O.3       1 DTP901      0.0000 
     13 O5'       197.6370  231.2290  174.9570 O.3       1 DTP901      0.0000 
     14 C5'       196.5820  230.8860  175.8780 C.3       1 DTP901      0.0000 
     15 C4'       195.3000  231.5110  175.3900 C.3       1 DTP901      0.0000 
     16 O4'       195.5930  232.8570  174.9650 O.3       1 DTP901      0.0000 
     17 C3'       194.6530  230.8090  174.1980 C.3       1 DTP901      0.0000 
     18 O3'       193.2420  230.7710  174.3750 O.3       1 DTP901      0.0000 
     19 C2'       195.0110  231.7260  173.0360 C.3       1 DTP901      0.0000 
     20 C1'       194.9850  233.0810  173.7010 C.3       1 DTP901      0.0000 
     21 N9        195.7920  234.0590  173.0110 N.pl3     1 DTP901      0.0000 
     22 C8        197.1390  234.2370  173.1180 C.2       1 DTP901      0.0000 
     23 N7        197.5810  235.2240  172.3760 N.2       1 DTP901      0.0000 
     24 C5        196.4490  235.7150  171.7430 C.ar      1 DTP901      0.0000 
     25 C6        196.2480  236.7580  170.8230 C.ar      1 DTP901      0.0000 
     26 N6        197.2200  237.5360  170.3640 N.pl3     1 DTP901      0.0000 
     27 N1        194.9840  236.9760  170.3960 N.ar      1 DTP901      0.0000 
     28 C2        194.0060  236.1920  170.8630 C.ar      1 DTP901      0.0000 
     29 N3        194.0780  235.1850  171.7270 N.ar      1 DTP901      0.0000 
     30 C4        195.3420  235.0000  172.1310 C.ar      1 DTP901      0.0000 
@<TRIPOS>BOND
     1    1    2 ar   
     2    1    3 ar   
     3    1    4 ar   
     4    1    8 1    
     5    5    6 ar   
     6    5    7 ar   
     7    5    8 1    
     8    5   12 1    
     9    9   10 ar   
    10    9   11 ar   
    11    9   12 1    
    12    9   13 1    
    13   13   14 1    
    14   14   15 1    
    15   15   16 1    
    16   15   17 1    
    17   16   20 1    
    18   17   18 1    
    19   17   19 1    
    20   19   20 1    
    21   20   21 1    
    22   21   22 1    
    23   21   30 1    
    24   22   23 2    
    25   23   24 1    
    26   24   25 ar   
    27   24   30 ar   
    28   25   26 1    
    29   25   27 ar   
    30   27   28 ar   
    31   28   29 ar   
    32   29   30 ar   
@<TRIPOS>SUBSTRUCTURE
     1 DTP901      1 GROUP   
@<TRIPOS>SET

