#    Name: 6j5t_1_DTP
#    Modification time : Fri May 22 19:29:12 2020

@<TRIPOS>MOLECULE
6j5t_1_DTP
   30    32     1     0     0
SMALL
NO_CHARGES


@<TRIPOS>ATOM
      1 PG        227.7670  201.3430  177.3940 P.3       1 DTP901      0.0000 
      2 O1G       227.7100  200.1730  178.3230 O.co2     1 DTP901      0.0000 
      3 O2G       227.4030  202.6190  178.0730 O.co2     1 DTP901      0.0000 
      4 O3G       227.0010  201.1230  176.1250 O.co2     1 DTP901      0.0000 
      5 PB        229.9160  202.1700  175.6650 P.3       1 DTP901      0.0000 
      6 O1B       229.3100  201.4910  174.5010 O.co2     1 DTP901      0.0000 
      7 O2B       231.3890  202.1910  175.8130 O.co2     1 DTP901      0.0000 
      8 O3B       229.2890  201.5180  176.9760 O.3       1 DTP901      0.0000 
      9 PA        229.1450  204.6330  174.4730 P.3       1 DTP901      0.0000 
     10 O1A       229.8550  204.0510  173.3030 O.co2     1 DTP901      0.0000 
     11 O2A       227.6880  204.9120  174.3590 O.co2     1 DTP901      0.0000 
     12 O3A       229.3690  203.6660  175.7210 O.3       1 DTP901      0.0000 
     13 O5'       229.9070  205.9600  174.9230 O.3       1 DTP901      0.0000 
     14 C5'       229.2670  206.8540  175.8540 C.3       1 DTP901      0.0000 
     15 C4'       229.4690  208.2690  175.3740 C.3       1 DTP901      0.0000 
     16 O4'       230.8410  208.4080  174.9550 O.3       1 DTP901      0.0000 
     17 C3'       228.6060  208.6760  174.1810 C.3       1 DTP901      0.0000 
     18 O3'       228.1350  210.0040  174.3670 O.3       1 DTP901      0.0000 
     19 C2'       229.5920  208.6240  173.0210 C.3       1 DTP901      0.0000 
     20 C1'       230.8740  209.0600  173.6920 C.3       1 DTP901      0.0000 
     21 N9        232.0530  208.5870  173.0060 N.pl3     1 DTP901      0.0000 
     22 C8        232.6320  207.3580  173.1220 C.2       1 DTP901      0.0000 
     23 N7        233.7080  207.2330  172.3840 N.2       1 DTP901      0.0000 
     24 C5        233.8350  208.4560  171.7440 C.ar      1 DTP901      0.0000 
     25 C6        234.7700  208.9580  170.8240 C.ar      1 DTP901      0.0000 
     26 N6        235.8090  208.2650  170.3730 N.pl3     1 DTP901      0.0000 
     27 N1        234.5960  210.2260  170.3880 N.ar      1 DTP901      0.0000 
     28 C2        233.5510  210.9230  170.8480 C.ar      1 DTP901      0.0000 
     29 N3        232.6110  210.5550  171.7110 N.ar      1 DTP901      0.0000 
     30 C4        232.8150  209.2970  172.1230 C.ar      1 DTP901      0.0000 
@<TRIPOS>BOND
     1    1    2 ar   
     2    1    3 ar   
     3    1    4 ar   
     4    1    8 1    
     5    5    6 ar   
     6    5    7 ar   
     7    5    8 1    
     8    5   12 1    
     9    9   10 ar   
    10    9   11 ar   
    11    9   12 1    
    12    9   13 1    
    13   13   14 1    
    14   14   15 1    
    15   15   16 1    
    16   15   17 1    
    17   16   20 1    
    18   17   18 1    
    19   17   19 1    
    20   19   20 1    
    21   20   21 1    
    22   21   22 1    
    23   21   30 1    
    24   22   23 2    
    25   23   24 1    
    26   24   25 ar   
    27   24   30 ar   
    28   25   26 1    
    29   25   27 ar   
    30   27   28 ar   
    31   28   29 ar   
    32   29   30 ar   
@<TRIPOS>SUBSTRUCTURE
     1 DTP901      1 GROUP   
@<TRIPOS>SET

