#    Name: 6mgq_1_THR_PHE_PRO_2X0_7GA
#    Modification time : Fri May 22 19:24:24 2020

@<TRIPOS>MOLECULE
6mgq_1_THR_PHE_PRO_2X0_7GA
   46    48     5     0     0
SMALL
NO_CHARGES


@<TRIPOS>ATOM
      1 N          48.7370   -8.8940   35.7850 N.am      1 THR3        0.0000 
      2 CA         48.2090   -7.8700   34.8730 C.3       1 THR3        0.0000 
      3 C          48.9970   -6.5360   34.9460 C.2       1 THR3        0.0000 
      4 O          48.7840   -5.7430   35.7980 O.2       1 THR3        0.0000 
      5 CB         46.7280   -7.6460   35.1070 C.3       1 THR3        0.0000 
      6 OG1        46.3590   -6.3830   34.6160 O.3       1 THR3        0.0000 
      7 CG2        46.4170   -7.7460   36.6070 C.3       1 THR3        0.0000 
      8 N          50.0210   -6.2800   33.9030 N.am      2 PHE4        0.0000 
      9 CA         50.8150   -5.0520   33.8550 C.3       2 PHE4        0.0000 
     10 C          50.8720   -4.5840   32.3980 C.2       2 PHE4        0.0000 
     11 O          51.8390   -4.0180   32.0120 O.2       2 PHE4        0.0000 
     12 CB         52.2320   -5.3480   34.3150 C.3       2 PHE4        0.0000 
     13 CG         52.7810   -6.5120   33.4760 C.ar      2 PHE4        0.0000 
     14 CD1        52.7110   -7.8140   33.9530 C.ar      2 PHE4        0.0000 
     15 CD2        53.3340   -6.2610   32.2330 C.ar      2 PHE4        0.0000 
     16 CE1        53.2000   -8.8620   33.1930 C.ar      2 PHE4        0.0000 
     17 CE2        53.8250   -7.3140   31.4700 C.ar      2 PHE4        0.0000 
     18 CZ         53.7600   -8.6110   31.9490 C.ar      2 PHE4        0.0000 
     19 N          49.7650   -4.8280   31.4600 N.am      3 PRO5        0.0000 
     20 CA         48.6170   -5.4420   31.7200 C.3       3 PRO5        0.0000 
     21 C          48.7790   -6.9600   31.5710 C.2       3 PRO5        0.0000 
     22 O          47.9620   -7.7300   32.1340 O.2       3 PRO5        0.0000 
     23 CB         47.6000   -4.9080   30.6010 C.3       3 PRO5        0.0000 
     24 CG         48.5250   -4.7240   29.3640 C.3       3 PRO5        0.0000 
     25 CD         49.7520   -4.3670   29.9010 C.3       3 PRO5        0.0000 
     26 C6         44.3080   -4.3060   39.4260           4 2X01        0.0000 
     27 C8         43.0540   -4.4910   38.5410           4 2X01        0.0000 
     28 C3         46.0960   -5.6910   40.6310           4 2X01        0.0000 
     29 P11        47.7900   -5.7500   39.8240           4 2X01        0.0000 
     30 O12        48.7880   -5.5700   40.9440           4 2X01        0.0000 
     31 O13        48.0250   -4.7070   38.7640           4 2X01        0.0000 
     32 N10        46.0350   -4.5560   41.5220           4 2X01        0.0000 
     33 C1         45.0100   -5.6750   39.5400           4 2X01        0.0000 
     34 C17        43.1960   -4.6800   37.1750           4 2X01        0.0000 
     35 C18        42.0770   -4.8500   36.3780           4 2X01        0.0000 
     36 C19        40.8140   -4.8370   36.9450           4 2X01        0.0000 
     37 C20        40.6710   -4.6520   38.3100           4 2X01        0.0000 
     38 C21        41.7930   -4.4810   39.1080           4 2X01        0.0000 
     39 CA         49.0960   -7.3550   37.9460           5 7GA2        0.0000 
     40 C          49.1550   -8.6980   37.2040           5 7GA2        0.0000 
     41 O          49.5560   -9.6440   37.7910           5 7GA2        0.0000 
     42 C8         50.3960   -7.1460   38.7390           5 7GA2        0.0000 
     43 C9         51.6760   -7.4180   37.8740           5 7GA2        0.0000 
     44 C10        52.1340   -8.8740   38.0410           5 7GA2        0.0000 
     45 C11        51.3910   -7.1240   36.3850           5 7GA2        0.0000 
     46 C6         47.9760   -7.4210   38.9770           5 7GA2        0.0000 
@<TRIPOS>BOND
     1    1    2 1    
     2    1   40 du   
     3    2    3 1    
     4    2    5 1    
     5    3    4 2    
     6    3    8 am   
     7    5    6 1    
     8    5    7 1    
     9    8    9 1    
    10    9   10 1    
    11    9   12 1    
    12   10   11 2    
    13   10   19 am   
    14   12   13 1    
    15   13   14 ar   
    16   13   15 ar   
    17   14   16 ar   
    18   15   17 ar   
    19   16   18 ar   
    20   17   18 ar   
    21   19   20 1    
    22   19   25 1    
    23   20   21 1    
    24   20   23 1    
    25   21   22 2    
    26   23   24 1    
    27   24   25 1    
    28   26   27 du   
    29   26   33 du   
    30   27   34 du   
    31   27   38 du   
    32   28   29 du   
    33   28   32 du   
    34   28   33 du   
    35   29   30 du   
    36   29   31 du   
    37   29   46 du   
    38   34   35 du   
    39   35   36 du   
    40   36   37 du   
    41   37   38 du   
    42   39   40 du   
    43   39   42 du   
    44   39   46 du   
    45   40   41 du   
    46   42   43 du   
    47   43   44 du   
    48   43   45 du   
@<TRIPOS>SUBSTRUCTURE
     1 THR3        1 RESIDUE 
     2 PHE4        8 RESIDUE 
     3 PRO5       19 RESIDUE 
     4 2X01       26 GROUP   
     5 7GA2       39 GROUP   
@<TRIPOS>SET

