#    Name: 6mgq_1_THR_PHE_PRO_2X0_7GA_CAVITY_N1_12
#    Modification time : Fri May 22 19:24:25 2020

@<TRIPOS>MOLECULE
6mgq_1_THR_PHE_PRO_2X0_7GA_CAVITY_N1_12
   88     0     7     0     0
SMALL
NO_CHARGES


@<TRIPOS>ATOM
      1 OG         51.9500  -10.5900   34.1500 O.3       1 SER1        0.0000 
      2 OG         53.1500  -10.0500   33.4300 O.3       1 SER1        0.0000 
      3 OG         52.5700   -7.6700   31.1400 O.3       1 SER1        0.0000 
      4 OG         50.9000  -10.0800   35.9200 O.3       1 SER1        0.0000 
      5 OG         52.1000   -9.5300   35.2000 O.3       1 SER1        0.0000 
      6 OG         52.4200   -8.0800   33.7000 O.3       1 SER1        0.0000 
      7 OG         51.8400   -5.7000   31.4000 O.3       1 SER1        0.0000 
      8 OG         52.7300   -6.6200   32.1900 O.3       1 SER1        0.0000 
      9 OG         54.5000   -8.4500   33.7600 O.3       1 SER1        0.0000 
     10 OG         53.9300   -6.0700   31.4700 O.3       1 SER1        0.0000 
     11 OG         52.2600   -8.4800   36.2600 O.3       1 SER1        0.0000 
     12 OG         53.4600   -7.9400   35.5400 O.3       1 SER1        0.0000 
     13 OG         50.3300   -7.0500   37.2500 O.3       1 SER1        0.0000 
     14 OG         50.6400   -5.5900   35.7400 O.3       1 SER1        0.0000 
     15 OG         51.5300   -6.5100   36.5300 O.3       1 SER1        0.0000 
     16 OG         50.4900   -5.9900   38.3000 O.3       1 SER1        0.0000 
     17 N          46.8900   -8.2700   36.8500 N.am      2 ALA2        0.0000 
     18 N          47.7800   -9.1800   37.6300 N.am      2 ALA2        0.0000 
     19 O          48.9800   -8.6400   36.9100 O.2       2 ALA2        0.0000 
     20 O          49.8600   -9.5600   37.7000 O.2       2 ALA2        0.0000 
     21 O          54.6600   -7.4000   34.8200 O.2       2 ALA2        0.0000 
     22 N          45.8500   -7.7500   38.6200 N.am      2 ALA2        0.0000 
     23 N          47.0500   -7.2100   37.9000 N.am      2 ALA2        0.0000 
     24 N          47.9300   -8.1300   38.6900 N.am      2 ALA2        0.0000 
     25 N          48.0900   -7.0700   39.7400 N.am      2 ALA2        0.0000 
     26 OD1        48.4000   -6.2600   34.6200 O.co2     3 ASP3        0.0000 
     27 OD1        49.6000   -5.7200   33.9000 O.co2     3 ASP3        0.0000 
     28 OD1        50.8000   -5.1800   33.1800 O.co2     3 ASP3        0.0000 
     29 OD1        48.5600   -5.2100   35.6700 O.co2     3 ASP3        0.0000 
     30 OD1        49.7600   -4.6700   34.9500 O.co2     3 ASP3        0.0000 
     31 OD1        47.2000   -6.1500   38.9500 O.co2     3 ASP3        0.0000 
     32 OD1        48.4000   -5.6100   38.2300 O.co2     3 ASP3        0.0000 
     33 NZ         52.9900  -11.1000   32.3800 N.4       4 LYS4        0.0000 
     34 NZ         53.3000   -9.6400   30.8700 N.4       4 LYS4        0.0000 
     35 NZ         53.4600   -8.5900   31.9200 N.4       4 LYS4        0.0000 
     36 NZ         54.3500   -9.5100   32.7100 N.4       4 LYS4        0.0000 
     37 NZ         54.6600   -8.0500   31.2000 N.4       4 LYS4        0.0000 
     38 NZ         55.5500   -8.9700   31.9900 N.4       4 LYS4        0.0000 
     39 NZ         47.2000   -6.8100   35.3400 N.4       4 LYS4        0.0000 
     40 NZ         51.6900   -6.1000   33.9600 N.4       4 LYS4        0.0000 
     41 NZ         52.5700   -7.0200   34.7500 N.4       4 LYS4        0.0000 
     42 NZ         52.8900   -5.5600   33.2400 N.4       4 LYS4        0.0000 
     43 NZ         53.7700   -6.4800   34.0300 N.4       4 LYS4        0.0000 
     44 NZ         45.2700   -5.3700   36.3300 N.4       4 LYS4        0.0000 
     45 NZ         46.4700   -4.8300   35.6100 N.4       4 LYS4        0.0000 
     46 NZ         49.1300   -7.5900   37.9700 N.4       4 LYS4        0.0000 
     47 NZ         50.0200   -8.5100   38.7500 N.4       4 LYS4        0.0000 
     48 NZ         51.2200   -7.9700   38.0300 N.4       4 LYS4        0.0000 
     49 NZ         52.7300   -5.9600   35.8100 N.4       4 LYS4        0.0000 
     50 NZ         45.1200   -5.7800   38.8900 N.4       4 LYS4        0.0000 
     51 NZ         45.4300   -4.3200   37.3800 N.4       4 LYS4        0.0000 
     52 NZ         46.3200   -5.2400   38.1700 N.4       4 LYS4        0.0000 
     53 NZ         46.6300   -3.7800   36.6600 N.4       4 LYS4        0.0000 
     54 NZ         47.5200   -4.7000   37.4500 N.4       4 LYS4        0.0000 
     55 NZ         49.2900   -6.5300   39.0200 N.4       4 LYS4        0.0000 
     56 CZ         49.4400   -6.1300   36.4600 C.ar      5 PHE5        0.0000 
     57 CZ         48.7200   -4.1500   36.7300 C.ar      5 PHE5        0.0000 
     58 CA         51.4800  -13.1000   34.6000 C.3       6 GLY6        0.0000 
     59 CA         52.6800  -12.5600   33.8800 C.3       6 GLY6        0.0000 
     60 CA         49.5500  -11.6700   35.5900 C.3       6 GLY6        0.0000 
     61 CA         51.6300  -12.0500   35.6600 C.3       6 GLY6        0.0000 
     62 CA         48.8200   -9.7000   35.8600 C.3       6 GLY6        0.0000 
     63 CA         49.7000  -10.6200   36.6500 C.3       6 GLY6        0.0000 
     64 CA         51.7900  -10.9900   36.7100 C.3       6 GLY6        0.0000 
     65 CA         53.6200   -7.5300   32.9800 C.3       6 GLY6        0.0000 
     66 CA         54.8200   -6.9900   32.2600 C.3       6 GLY6        0.0000 
     67 CA         51.0600   -9.0200   36.9800 C.3       6 GLY6        0.0000 
     68 CA         52.4200   -7.4200   37.3100 C.3       6 GLY6        0.0000 
     69 CA         53.6200   -6.8800   36.5900 C.3       6 GLY6        0.0000 
     70 DU         51.7900  -11.6500   33.1000 H         7 CUB7        0.0000 
     71 DU         50.7500  -11.1300   34.8700 H         7 CUB7        0.0000 
     72 DU         51.0600   -9.6700   33.3600 H         7 CUB7        0.0000 
     73 DU         51.3700   -8.2100   31.8600 H         7 CUB7        0.0000 
     74 DU         52.2600   -9.1300   32.6400 H         7 CUB7        0.0000 
     75 DU         50.0200   -9.1600   35.1400 H         7 CUB7        0.0000 
     76 DU         49.4400   -6.7800   32.8400 H         7 CUB7        0.0000 
     77 DU         51.2200   -8.6200   34.4200 H         7 CUB7        0.0000 
     78 DU         50.6400   -6.2400   32.1200 H         7 CUB7        0.0000 
     79 DU         51.5300   -7.1600   32.9100 H         7 CUB7        0.0000 
     80 DU         48.0900   -7.7200   36.1300 H         7 CUB7        0.0000 
     81 DU         49.2900   -7.1800   35.4000 H         7 CUB7        0.0000 
     82 DU         50.1700   -8.1000   36.1900 H         7 CUB7        0.0000 
     83 DU         50.4900   -6.6400   34.6800 H         7 CUB7        0.0000 
     84 DU         51.3700   -7.5600   35.4700 H         7 CUB7        0.0000 
     85 DU         44.9600   -6.8300   37.8300 H         7 CUB7        0.0000 
     86 DU         46.1600   -6.2900   37.1100 H         7 CUB7        0.0000 
     87 DU         47.3600   -5.7500   36.3900 H         7 CUB7        0.0000 
     88 DU         48.2500   -6.6700   37.1800 H         7 CUB7        0.0000 
@<TRIPOS>BOND
@<TRIPOS>SUBSTRUCTURE
     1 SER1        1 GROUP   
     2 ALA2       17 GROUP   
     3 ASP3       26 GROUP   
     4 LYS4       33 GROUP   
     5 PHE5       56 GROUP   
     6 GLY6       58 GROUP   
     7 CUB7       70 GROUP   
@<TRIPOS>SET

