#    Name: 6mgq_2_THR_PHE_PRO_2X0_7GA_CAVITY_N1_ALL
#    Modification time : Fri May 22 19:24:37 2020

@<TRIPOS>MOLECULE
6mgq_2_THR_PHE_PRO_2X0_7GA_CAVITY_N1_ALL
  144     0     7     0     0
SMALL
NO_CHARGES


@<TRIPOS>ATOM
      1 OG         55.8400   33.1400   92.2300 O.3       1 SER1        0.0000 
      2 OG         57.0400   33.6800   91.5100 O.3       1 SER1        0.0000 
      3 OG         59.1300   33.3000   91.5800 O.3       1 SER1        0.0000 
      4 OG         47.7000   41.0000   87.7100 O.3       1 SER1        0.0000 
      5 OG         48.9000   41.5500   86.9900 O.3       1 SER1        0.0000 
      6 OG         57.2000   34.7400   92.5700 O.3       1 SER1        0.0000 
      7 OG         58.0800   33.8200   93.3500 O.3       1 SER1        0.0000 
      8 OG         56.6200   37.1200   90.2700 O.3       1 SER1        0.0000 
      9 OG         57.8200   37.6600   89.5500 O.3       1 SER1        0.0000 
     10 OG         59.6000   35.8200   91.1300 O.3       1 SER1        0.0000 
     11 OG         57.6700   37.2500   92.1100 O.3       1 SER1        0.0000 
     12 OG         58.5500   36.3300   92.9000 O.3       1 SER1        0.0000 
     13 OG         57.9800   38.7100   90.6100 O.3       1 SER1        0.0000 
     14 OG         58.8700   37.7900   91.3900 O.3       1 SER1        0.0000 
     15 OG         57.8200   38.3100   93.1700 O.3       1 SER1        0.0000 
     16 OG         58.7100   37.3900   93.9500 O.3       1 SER1        0.0000 
     17 OG         57.9800   39.3600   94.2200 O.3       1 SER1        0.0000 
     18 OG         49.2200   44.3100   92.7100 O.3       1 SER1        0.0000 
     19 OG         49.5300   45.7700   91.2100 O.3       1 SER1        0.0000 
     20 OG         50.4200   44.8500   91.9900 O.3       1 SER1        0.0000 
     21 OG         49.3800   45.3600   93.7700 O.3       1 SER1        0.0000 
     22 OG         49.6900   46.8200   92.2600 O.3       1 SER1        0.0000 
     23 N          46.3500   40.0600   90.9900 N.am      2 ALA2        0.0000 
     24 N          47.5500   40.6000   90.2700 N.am      2 ALA2        0.0000 
     25 N          47.8600   42.0600   88.7600 N.am      2 ALA2        0.0000 
     26 N          46.8200   42.5700   90.5400 N.am      2 ALA2        0.0000 
     27 N          51.8800   40.9000   91.4600 N.am      2 ALA2        0.0000 
     28 N          53.0800   41.4400   90.7400 N.am      2 ALA2        0.0000 
     29 N          53.9600   40.5200   91.5300 N.am      2 ALA2        0.0000 
     30 N          54.8500   39.6000   92.3100 N.am      2 ALA2        0.0000 
     31 N          53.3900   42.9000   89.2300 N.am      2 ALA2        0.0000 
     32 N          54.2800   41.9800   90.0200 N.am      2 ALA2        0.0000 
     33 N          55.1600   41.0600   90.8100 N.am      2 ALA2        0.0000 
     34 O          56.0500   40.1400   91.5900 O.2       2 ALA2        0.0000 
     35 N          54.5900   43.4400   88.5100 N.am      2 ALA2        0.0000 
     36 N          55.4800   42.5200   89.3000 N.am      2 ALA2        0.0000 
     37 N          51.1500   42.8700   91.7300 N.am      2 ALA2        0.0000 
     38 N          52.3500   43.4100   91.0100 N.am      2 ALA2        0.0000 
     39 N          55.0100   40.6600   93.3700 N.am      2 ALA2        0.0000 
     40 N          52.6600   44.8700   89.5000 N.am      2 ALA2        0.0000 
     41 O          50.7300   46.3100   90.4900 O.2       2 ALA2        0.0000 
     42 N          48.3300   45.8800   95.5400 N.am      2 ALA2        0.0000 
     43 OD1        54.0700   34.9800   90.6600 O.co2     3 ASP3        0.0000 
     44 OD1        55.2700   35.5200   89.9400 O.co2     3 ASP3        0.0000 
     45 OD1        56.1500   34.6000   90.7200 O.co2     3 ASP3        0.0000 
     46 OD1        53.6500   38.4100   89.4200 O.co2     3 ASP3        0.0000 
     47 OD1        54.5400   37.4900   90.2000 O.co2     3 ASP3        0.0000 
     48 OD1        55.4200   36.5700   90.9900 O.co2     3 ASP3        0.0000 
     49 OD1        54.1200   40.9300   88.9600 O.co2     3 ASP3        0.0000 
     50 OD1        54.4300   42.3900   87.4600 O.co2     3 ASP3        0.0000 
     51 OD1        55.3200   41.4700   88.2400 O.co2     3 ASP3        0.0000 
     52 OD1        56.7800   38.8200   94.9400 O.co2     3 ASP3        0.0000 
     53 OD1        48.3300   45.2300   91.9300 O.co2     3 ASP3        0.0000 
     54 OD1        48.6500   46.6800   90.4200 O.co2     3 ASP3        0.0000 
     55 OD1        47.2900   45.7400   93.7000 O.co2     3 ASP3        0.0000 
     56 OD1        48.4900   46.2800   92.9800 O.co2     3 ASP3        0.0000 
     57 OD1        47.4500   46.7900   94.7600 O.co2     3 ASP3        0.0000 
     58 NZ         53.7500   33.5200   92.1600 N.4       4 LYS4        0.0000 
     59 NZ         56.4700   36.0600   89.2200 N.4       4 LYS4        0.0000 
     60 NZ         57.3500   35.1400   90.0000 N.4       4 LYS4        0.0000 
     61 NZ         58.2400   34.2200   90.7900 N.4       4 LYS4        0.0000 
     62 NZ         49.4800   39.1700   89.2800 N.4       4 LYS4        0.0000 
     63 NZ         51.5600   38.7900   89.3500 N.4       4 LYS4        0.0000 
     64 NZ         52.4500   37.8700   90.1400 N.4       4 LYS4        0.0000 
     65 NZ         53.3400   36.9500   90.9200 N.4       4 LYS4        0.0000 
     66 NZ         54.2200   36.0300   91.7100 N.4       4 LYS4        0.0000 
     67 NZ         50.9900   41.1700   87.0600 N.4       4 LYS4        0.0000 
     68 NZ         51.8800   40.2500   87.8400 N.4       4 LYS4        0.0000 
     69 NZ         52.7600   39.3300   88.6300 N.4       4 LYS4        0.0000 
     70 NZ         53.9600   39.8700   87.9100 N.4       4 LYS4        0.0000 
     71 NZ         57.5100   36.2000   91.0600 N.4       4 LYS4        0.0000 
     72 NZ         59.2800   34.3600   92.6300 N.4       4 LYS4        0.0000 
     73 NZ         58.7100   36.7400   90.3400 N.4       4 LYS4        0.0000 
     74 NZ         48.4400   39.6800   91.0600 N.4       4 LYS4        0.0000 
     75 NZ         48.1700   43.5200   87.2600 N.4       4 LYS4        0.0000 
     76 NZ         49.0600   42.6000   88.0400 N.4       4 LYS4        0.0000 
     77 NZ         51.1500   42.2200   88.1100 N.4       4 LYS4        0.0000 
     78 NZ         58.2400   34.8700   94.4100 N.4       4 LYS4        0.0000 
     79 NZ         52.3500   42.7600   87.3900 N.4       4 LYS4        0.0000 
     80 NZ         53.2300   41.8400   88.1800 N.4       4 LYS4        0.0000 
     81 NZ         59.4400   35.4100   93.6900 N.4       4 LYS4        0.0000 
     82 NZ         56.2100   40.5500   89.0300 N.4       4 LYS4        0.0000 
     83 NZ         57.0900   39.6300   89.8200 N.4       4 LYS4        0.0000 
     84 NZ         46.5100   41.1100   92.0500 N.4       4 LYS4        0.0000 
     85 NZ         48.3300   44.5700   88.3100 N.4       4 LYS4        0.0000 
     86 NZ         49.2200   43.6600   89.1000 N.4       4 LYS4        0.0000 
     87 NZ         51.3000   43.2800   89.1600 N.4       4 LYS4        0.0000 
     88 NZ         52.5000   43.8200   88.4400 N.4       4 LYS4        0.0000 
     89 NZ         56.3600   41.6000   90.0900 N.4       4 LYS4        0.0000 
     90 NZ         46.9800   43.6300   91.5900 N.4       4 LYS4        0.0000 
     91 NZ         47.8600   42.7100   92.3800 N.4       4 LYS4        0.0000 
     92 NZ         48.4900   45.6300   89.3700 N.4       4 LYS4        0.0000 
     93 NZ         49.3700   44.7100   90.1500 N.4       4 LYS4        0.0000 
     94 NZ         50.5700   45.2500   89.4300 N.4       4 LYS4        0.0000 
     95 NZ         47.1300   44.6800   92.6500 N.4       4 LYS4        0.0000 
     96 NZ         48.0200   43.7700   93.4300 N.4       4 LYS4        0.0000 
     97 CZ         48.5900   40.0900   88.5000 C.ar      5 PHE5        0.0000 
     98 CZ         49.7900   40.6300   87.7800 C.ar      5 PHE5        0.0000 
     99 CZ         50.6800   39.7100   88.5600 C.ar      5 PHE5        0.0000 
    100 CZ         54.8500   38.9500   88.7000 C.ar      5 PHE5        0.0000 
    101 CZ         55.7400   38.0300   89.4800 C.ar      5 PHE5        0.0000 
    102 CA         60.4800   34.9000   91.9100 C.3       6 GLY6        0.0000 
    103 CA         47.1300   44.0300   89.0300 C.3       6 GLY6        0.0000 
    104 CA         48.0200   43.1100   89.8200 C.3       6 GLY6        0.0000 
    105 CA         57.2500   40.6900   90.8700 C.3       6 GLY6        0.0000 
    106 CA         58.1400   39.7700   91.6600 C.3       6 GLY6        0.0000 
    107 CA         48.1800   44.1700   90.8700 C.3       6 GLY6        0.0000 
    108 CA         51.4600   44.3300   90.2200 C.3       6 GLY6        0.0000 
    109 CA         55.9000   39.7400   94.1500 C.3       6 GLY6        0.0000 
    110 CA         57.1000   40.2800   93.4300 C.3       6 GLY6        0.0000 
    111 CA         58.2900   40.8200   92.7100 C.3       6 GLY6        0.0000 
    112 CA         51.6200   45.3900   91.2700 C.3       6 GLY6        0.0000 
    113 CA         50.2600   44.4400   94.5600 C.3       6 GLY6        0.0000 
    114 DU         54.9500   34.0600   91.4400 H         7 CUB7        0.0000 
    115 DU         55.1100   35.1100   92.5000 H         7 CUB7        0.0000 
    116 DU         56.3100   35.6600   91.7800 H         7 CUB7        0.0000 
    117 DU         58.4000   35.2800   91.8500 H         7 CUB7        0.0000 
    118 DU         48.7500   41.1400   89.5500 H         7 CUB7        0.0000 
    119 DU         49.6300   40.2200   90.3400 H         7 CUB7        0.0000 
    120 DU         49.9500   41.6800   88.8300 H         7 CUB7        0.0000 
    121 DU         50.8300   40.7600   89.6200 H         7 CUB7        0.0000 
    122 DU         51.7200   39.8400   90.4000 H         7 CUB7        0.0000 
    123 DU         52.6100   38.9300   91.1900 H         7 CUB7        0.0000 
    124 DU         52.0300   41.3000   88.9000 H         7 CUB7        0.0000 
    125 DU         52.9200   40.3900   89.6800 H         7 CUB7        0.0000 
    126 DU         53.8100   39.4700   90.4700 H         7 CUB7        0.0000 
    127 DU         54.6900   38.5500   91.2600 H         7 CUB7        0.0000 
    128 DU         56.4700   36.7100   92.8300 H         7 CUB7        0.0000 
    129 DU         57.3600   35.7900   93.6200 H         7 CUB7        0.0000 
    130 DU         55.0100   40.0100   89.7500 H         7 CUB7        0.0000 
    131 DU         55.8900   39.0900   90.5400 H         7 CUB7        0.0000 
    132 DU         56.7800   38.1700   91.3300 H         7 CUB7        0.0000 
    133 DU         47.7100   41.6600   91.3300 H         7 CUB7        0.0000 
    134 DU         50.1000   42.7400   89.8800 H         7 CUB7        0.0000 
    135 DU         50.9900   41.8200   90.6700 H         7 CUB7        0.0000 
    136 DU         52.1900   42.3600   89.9500 H         7 CUB7        0.0000 
    137 DU         55.7400   38.6800   93.1000 H         7 CUB7        0.0000 
    138 DU         56.6300   37.7700   93.8900 H         7 CUB7        0.0000 
    139 DU         57.5100   36.8500   94.6700 H         7 CUB7        0.0000 
    140 DU         56.9400   39.2300   92.3800 H         7 CUB7        0.0000 
    141 DU         49.0600   43.2500   91.6600 H         7 CUB7        0.0000 
    142 DU         49.9500   42.3300   92.4500 H         7 CUB7        0.0000 
    143 DU         50.2600   43.7900   90.9400 H         7 CUB7        0.0000 
    144 DU         48.1800   44.8200   94.4900 H         7 CUB7        0.0000 
@<TRIPOS>BOND
@<TRIPOS>SUBSTRUCTURE
     1 SER1        1 GROUP   
     2 ALA2       23 GROUP   
     3 ASP3       43 GROUP   
     4 LYS4       58 GROUP   
     5 PHE5       97 GROUP   
     6 GLY6      102 GROUP   
     7 CUB7      114 GROUP   
@<TRIPOS>SET

