#    Name: 6mgq_3_THR_PHE_PRO_2X0_7GA_CAVITY_N1_4
#    Modification time : Fri May 22 19:24:49 2020

@<TRIPOS>MOLECULE
6mgq_3_THR_PHE_PRO_2X0_7GA_CAVITY_N1_4
  139     0     7     0     0
SMALL
NO_CHARGES


@<TRIPOS>ATOM
      1 OG         59.5700   59.6300   24.6200 O.3       1 SER1        0.0000 
      2 OG         60.7700   60.1800   23.9000 O.3       1 SER1        0.0000 
      3 OG         63.4800   62.7200   20.9500 O.3       1 SER1        0.0000 
      4 OG         62.4400   63.2300   22.7200 O.3       1 SER1        0.0000 
      5 OG         63.3300   62.3100   23.5100 O.3       1 SER1        0.0000 
      6 OG         63.6400   63.7700   22.0000 O.3       1 SER1        0.0000 
      7 OG         63.4900   63.3700   24.5700 O.3       1 SER1        0.0000 
      8 OG         63.8000   64.8300   23.0600 O.3       1 SER1        0.0000 
      9 OG         64.6800   63.9100   23.8500 O.3       1 SER1        0.0000 
     10 OG         65.5700   62.9900   24.6300 O.3       1 SER1        0.0000 
     11 OG         61.7100   65.8600   26.6100 O.3       1 SER1        0.0000 
     12 OG         62.6000   64.9400   27.3900 O.3       1 SER1        0.0000 
     13 OG         62.9100   66.4000   25.8900 O.3       1 SER1        0.0000 
     14 OG         63.8000   65.4800   26.6700 O.3       1 SER1        0.0000 
     15 OG         64.6900   64.5600   27.4600 O.3       1 SER1        0.0000 
     16 OG         65.0000   66.0200   25.9500 O.3       1 SER1        0.0000 
     17 OG         65.8900   65.1000   26.7400 O.3       1 SER1        0.0000 
     18 OG         61.8700   66.9100   27.6600 O.3       1 SER1        0.0000 
     19 OG         63.6400   65.0700   29.2400 O.3       1 SER1        0.0000 
     20 N          56.4400   59.2200   19.0900 N.am      2 ALA2        0.0000 
     21 N          57.3300   58.3100   19.8800 N.am      2 ALA2        0.0000 
     22 N          54.8200   62.1200   18.5700 N.am      2 ALA2        0.0000 
     23 N          55.7100   61.2000   19.3600 N.am      2 ALA2        0.0000 
     24 N          56.6000   60.2800   20.1500 N.am      2 ALA2        0.0000 
     25 N          57.4800   59.3600   20.9300 N.am      2 ALA2        0.0000 
     26 N          59.5700   58.9800   21.0000 N.am      2 ALA2        0.0000 
     27 N          54.9800   63.1700   19.6300 N.am      2 ALA2        0.0000 
     28 N          55.8700   62.2500   20.4100 N.am      2 ALA2        0.0000 
     29 N          56.7500   61.3400   21.2000 N.am      2 ALA2        0.0000 
     30 N          57.6400   60.4200   21.9900 N.am      2 ALA2        0.0000 
     31 N          58.8400   60.9600   21.2700 N.am      2 ALA2        0.0000 
     32 O          60.0400   61.5000   20.5500 O.2       2 ALA2        0.0000 
     33 N          58.1100   62.9300   21.5400 N.am      2 ALA2        0.0000 
     34 O          60.2000   62.5500   21.6000 O.2       2 ALA2        0.0000 
     35 O          61.4000   63.0900   20.8800 O.2       2 ALA2        0.0000 
     36 N          51.7000   63.6600   23.9000 N.am      2 ALA2        0.0000 
     37 OD1        52.5800   61.4400   17.4500 O.co2     3 ASP3        0.0000 
     38 OD1        53.4700   60.5200   18.2400 O.co2     3 ASP3        0.0000 
     39 OD1        51.8500   63.4100   17.7200 O.co2     3 ASP3        0.0000 
     40 OD1        52.7400   62.4900   18.5100 O.co2     3 ASP3        0.0000 
     41 OD1        53.6200   61.5800   19.2900 O.co2     3 ASP3        0.0000 
     42 OD1        54.5100   60.6600   20.0800 O.co2     3 ASP3        0.0000 
     43 OD1        57.1700   57.9000   22.4400 O.co2     3 ASP3        0.0000 
     44 OD1        58.3700   58.4400   21.7200 O.co2     3 ASP3        0.0000 
     45 OD1        53.1600   59.7100   23.3600 O.co2     3 ASP3        0.0000 
     46 OD1        51.6900   63.0100   20.2800 O.co2     3 ASP3        0.0000 
     47 OD1        54.3600   60.2500   22.6400 O.co2     3 ASP3        0.0000 
     48 OD1        52.8900   63.5500   19.5600 O.co2     3 ASP3        0.0000 
     49 OD1        53.7800   62.6300   20.3500 O.co2     3 ASP3        0.0000 
     50 OD1        54.6700   61.7100   21.1300 O.co2     3 ASP3        0.0000 
     51 OD1        58.5300   59.5000   22.7800 O.co2     3 ASP3        0.0000 
     52 OD1        50.6500   63.5200   22.0600 O.co2     3 ASP3        0.0000 
     53 OD1        51.5400   62.6000   22.8400 O.co2     3 ASP3        0.0000 
     54 OD1        52.4300   61.6900   23.6300 O.co2     3 ASP3        0.0000 
     55 OD1        51.8500   64.0600   21.3300 O.co2     3 ASP3        0.0000 
     56 OD1        52.7400   63.1500   22.1200 O.co2     3 ASP3        0.0000 
     57 OD1        53.6300   62.2300   22.9100 O.co2     3 ASP3        0.0000 
     58 OD1        58.8400   61.6100   24.8800 O.co2     3 ASP3        0.0000 
     59 OD1        62.7500   64.6900   21.2200 O.co2     3 ASP3        0.0000 
     60 OD1        60.2000   63.2000   25.2200 O.co2     3 ASP3        0.0000 
     61 OD1        61.0900   62.2900   26.0100 O.co2     3 ASP3        0.0000 
     62 OD1        62.4400   63.8800   26.3400 O.co2     3 ASP3        0.0000 
     63 OD1        60.5100   65.3100   27.3300 O.co2     3 ASP3        0.0000 
     64 OD1        61.4000   64.4000   28.1100 O.co2     3 ASP3        0.0000 
     65 OD1        60.6700   66.3700   28.3800 O.co2     3 ASP3        0.0000 
     66 NZ         55.2400   58.6800   19.8100 N.4       4 LYS4        0.0000 
     67 NZ         56.1300   57.7700   20.6000 N.4       4 LYS4        0.0000 
     68 NZ         55.4000   59.7400   20.8700 N.4       4 LYS4        0.0000 
     69 NZ         56.2800   58.8200   21.6500 N.4       4 LYS4        0.0000 
     70 NZ         55.2400   59.3300   23.4300 N.4       4 LYS4        0.0000 
     71 NZ         57.3300   58.9600   23.5000 N.4       4 LYS4        0.0000 
     72 NZ         59.7300   60.0400   22.0600 N.4       4 LYS4        0.0000 
     73 NZ         60.9300   60.5800   21.3400 N.4       4 LYS4        0.0000 
     74 NZ         57.4900   60.0100   24.5500 N.4       4 LYS4        0.0000 
     75 NZ         58.6900   60.5500   23.8300 N.4       4 LYS4        0.0000 
     76 NZ         61.0800   61.6300   22.3900 N.4       4 LYS4        0.0000 
     77 NZ         61.9700   60.7200   23.1800 N.4       4 LYS4        0.0000 
     78 NZ         50.8100   64.5800   23.1100 N.4       4 LYS4        0.0000 
     79 NZ         52.9000   64.2000   23.1800 N.4       4 LYS4        0.0000 
     80 NZ         53.7800   63.2800   23.9600 N.4       4 LYS4        0.0000 
     81 NZ         54.6700   62.3600   24.7500 N.4       4 LYS4        0.0000 
     82 NZ         54.9800   63.8200   23.2400 N.4       4 LYS4        0.0000 
     83 NZ         55.8700   62.9000   24.0300 N.4       4 LYS4        0.0000 
     84 NZ         56.7600   61.9900   24.8200 N.4       4 LYS4        0.0000 
     85 NZ         57.0700   63.4500   23.3100 N.4       4 LYS4        0.0000 
     86 NZ         57.9600   62.5300   24.1000 N.4       4 LYS4        0.0000 
     87 NZ         63.0200   60.8500   25.0200 N.4       4 LYS4        0.0000 
     88 NZ         58.1100   63.5800   25.1500 N.4       4 LYS4        0.0000 
     89 NZ         62.2900   62.8300   25.2900 N.4       4 LYS4        0.0000 
     90 NZ         64.3700   62.4500   25.3500 N.4       4 LYS4        0.0000 
     91 NZ         62.1300   62.4200   27.8500 N.4       4 LYS4        0.0000 
     92 NZ         63.3300   62.9600   27.1300 N.4       4 LYS4        0.0000 
     93 NZ         64.5300   63.5000   26.4100 N.4       4 LYS4        0.0000 
     94 NZ         63.0700   66.8000   23.3300 N.4       4 LYS4        0.0000 
     95 NZ         63.9500   65.8800   24.1100 N.4       4 LYS4        0.0000 
     96 NZ         64.8400   64.9600   24.9000 N.4       4 LYS4        0.0000 
     97 NZ         65.7300   64.0500   25.6900 N.4       4 LYS4        0.0000 
     98 NZ         63.1700   62.5600   29.6900 N.4       4 LYS4        0.0000 
     99 NZ         63.4900   64.0200   28.1800 N.4       4 LYS4        0.0000 
    100 NZ         64.1100   66.9400   25.1700 N.4       4 LYS4        0.0000 
    101 NZ         62.1300   63.0700   31.4600 N.4       4 LYS4        0.0000 
    102 CZ         53.3100   60.7700   24.4200 C.ar      5 PHE5        0.0000 
    103 CZ         54.5100   61.3100   23.7000 C.ar      5 PHE5        0.0000 
    104 CZ         55.4000   60.3900   24.4800 C.ar      5 PHE5        0.0000 
    105 CZ         59.7300   60.6900   25.6700 C.ar      5 PHE5        0.0000 
    106 CZ         60.9300   61.2300   24.9500 C.ar      5 PHE5        0.0000 
    107 CZ         63.3300   63.6100   30.7400 C.ar      5 PHE5        0.0000 
    108 CA         53.7800   61.9800   16.7300 C.3       6 GLY6        0.0000 
    109 CA         55.5500   60.1400   18.3100 C.3       6 GLY6        0.0000 
    110 CA         53.9400   63.0400   17.7900 C.3       6 GLY6        0.0000 
    111 CA         59.3100   63.4700   20.8200 C.3       6 GLY6        0.0000 
    112 CA         62.2800   62.1800   21.6700 C.3       6 GLY6        0.0000 
    113 CA         63.1700   61.2600   22.4600 C.3       6 GLY6        0.0000 
    114 CA         62.6000   63.6400   20.1600 C.3       6 GLY6        0.0000 
    115 CA         64.2100   61.3900   24.3000 C.3       6 GLY6        0.0000 
    116 CA         62.2900   63.4800   28.9000 C.3       6 GLY6        0.0000 
    117 CA         67.0900   65.6400   26.0200 C.3       6 GLY6        0.0000 
    118 CA         61.5600   65.4500   29.1700 C.3       6 GLY6        0.0000 
    119 CA         62.4400   64.5300   29.9600 C.3       6 GLY6        0.0000 
    120 DU         55.5600   60.7900   21.9200 H         7 CUB7        0.0000 
    121 DU         56.4400   59.8800   22.7100 H         7 CUB7        0.0000 
    122 DU         54.8300   62.7700   22.1900 H         7 CUB7        0.0000 
    123 DU         55.7100   61.8500   22.9800 H         7 CUB7        0.0000 
    124 DU         56.6000   60.9300   23.7600 H         7 CUB7        0.0000 
    125 DU         56.9100   62.3900   22.2600 H         7 CUB7        0.0000 
    126 DU         57.8000   61.4700   23.0400 H         7 CUB7        0.0000 
    127 DU         59.0000   62.0100   22.3200 H         7 CUB7        0.0000 
    128 DU         59.8800   61.0900   23.1100 H         7 CUB7        0.0000 
    129 DU         59.1600   63.0700   23.3800 H         7 CUB7        0.0000 
    130 DU         60.0400   62.1500   24.1600 H         7 CUB7        0.0000 
    131 DU         60.3500   63.6100   22.6600 H         7 CUB7        0.0000 
    132 DU         62.1300   61.7700   24.2300 H         7 CUB7        0.0000 
    133 DU         61.5500   64.1500   21.9400 H         7 CUB7        0.0000 
    134 DU         61.4000   63.7500   24.5000 H         7 CUB7        0.0000 
    135 DU         61.7100   65.2100   22.9900 H         7 CUB7        0.0000 
    136 DU         62.6000   64.2900   23.7800 H         7 CUB7        0.0000 
    137 DU         61.5600   64.8000   25.5500 H         7 CUB7        0.0000 
    138 DU         62.7600   65.3400   24.8300 H         7 CUB7        0.0000 
    139 DU         63.6400   64.4200   25.6200 H         7 CUB7        0.0000 
@<TRIPOS>BOND
@<TRIPOS>SUBSTRUCTURE
     1 SER1        1 GROUP   
     2 ALA2       20 GROUP   
     3 ASP3       37 GROUP   
     4 LYS4       66 GROUP   
     5 PHE5      102 GROUP   
     6 GLY6      108 GROUP   
     7 CUB7      120 GROUP   
@<TRIPOS>SET

