#    Name: 6mgq_2_THR_PHE_PRO_2X0_7GA
#    Modification time : Fri May 22 19:24:36 2020

@<TRIPOS>MOLECULE
6mgq_2_THR_PHE_PRO_2X0_7GA
   46    48     5     0     0
SMALL
NO_CHARGES


@<TRIPOS>ATOM
      1 N          55.0930   39.8740   92.2960 N.am      1 THR3        0.0000 
      2 CA         54.1350   38.8000   91.9840 C.3       1 THR3        0.0000 
      3 C          54.5770   37.9660   90.7500 C.2       1 THR3        0.0000 
      4 O          54.2130   38.2670   89.6640 O.2       1 THR3        0.0000 
      5 CB         52.7390   39.3710   91.7940 C.3       1 THR3        0.0000 
      6 OG1        52.0290   38.6450   90.8230 O.3       1 THR3        0.0000 
      7 CG2        52.8120   40.8490   91.3820 C.3       1 THR3        0.0000 
      8 N          55.4430   36.7740   90.9360 N.am      2 PHE4        0.0000 
      9 CA         55.8560   35.9790   89.7700 C.3       2 PHE4        0.0000 
     10 C          55.2570   34.5650   89.8170 C.2       2 PHE4        0.0000 
     11 O          55.1670   33.9480   88.8080 O.2       2 PHE4        0.0000 
     12 CB         57.3760   35.8920   89.7000 C.3       2 PHE4        0.0000 
     13 CG         57.9490   35.4210   91.0480 C.ar      2 PHE4        0.0000 
     14 CD1        58.4180   34.1190   91.1850 C.ar      2 PHE4        0.0000 
     15 CD2        58.0030   36.2930   92.1230 C.ar      2 PHE4        0.0000 
     16 CE1        58.9350   33.6920   92.3980 C.ar      2 PHE4        0.0000 
     17 CE2        58.5240   35.8640   93.3410 C.ar      2 PHE4        0.0000 
     18 CZ         58.9890   34.5660   93.4770 C.ar      2 PHE4        0.0000 
     19 N          54.7920   33.9490   91.0690 N.am      3 PRO5        0.0000 
     20 CA         54.8130   34.4870   92.2830 C.3       3 PRO5        0.0000 
     21 C          56.1740   34.2470   92.9510 C.2       3 PRO5        0.0000 
     22 O          56.3150   33.2990   93.7670 O.2       3 PRO5        0.0000 
     23 CB         53.6650   33.7150   93.0970 C.3       3 PRO5        0.0000 
     24 CG         53.7070   32.2830   92.4870 C.3       3 PRO5        0.0000 
     25 CD         54.1480   32.4610   91.1830 C.3       3 PRO5        0.0000 
     26 C6         50.5580   42.1740   87.3010           4 2X01        0.0000 
     27 C8         49.2340   42.1050   88.0920           4 2X01        0.0000 
     28 C3         52.8130   43.3570   87.3550           4 2X01        0.0000 
     29 P11        54.2630   42.1820   87.5960           4 2X01        0.0000 
     30 O12        53.9650   40.8070   87.0220           4 2X01        0.0000 
     31 O13        55.4960   42.7110   86.9040           4 2X01        0.0000 
     32 N10        52.4460   43.4450   85.9670           4 2X01        0.0000 
     33 C1         51.6220   42.8590   88.1910           4 2X01        0.0000 
     34 C17        48.1420   42.8650   87.6950           4 2X01        0.0000 
     35 C18        46.9590   42.8010   88.4130           4 2X01        0.0000 
     36 C19        46.8680   41.9790   89.5260           4 2X01        0.0000 
     37 C20        47.9570   41.2190   89.9210           4 2X01        0.0000 
     38 C21        49.1410   41.2840   89.2020           4 2X01        0.0000 
     39 CA         55.2860   40.7430   89.7980           5 7GA2        0.0000 
     40 C          55.6650   40.8160   91.2870           5 7GA2        0.0000 
     41 O          56.4260   41.6510   91.6480           5 7GA2        0.0000 
     42 C8         56.5250   40.6730   88.8890           5 7GA2        0.0000 
     43 C9         57.7290   39.8430   89.4670           5 7GA2        0.0000 
     44 C10        57.3180   38.6780   90.3790           5 7GA2        0.0000 
     45 C11        58.6870   40.7870   90.2340           5 7GA2        0.0000 
     46 C6         54.5490   42.0350   89.4530           5 7GA2        0.0000 
@<TRIPOS>BOND
     1    1    2 1    
     2    1   40 du   
     3    2    3 1    
     4    2    5 1    
     5    3    4 2    
     6    3    8 am   
     7    5    6 1    
     8    5    7 1    
     9    8    9 1    
    10    9   10 1    
    11    9   12 1    
    12   10   11 2    
    13   10   19 am   
    14   12   13 1    
    15   13   14 ar   
    16   13   15 ar   
    17   14   16 ar   
    18   15   17 ar   
    19   16   18 ar   
    20   17   18 ar   
    21   19   20 1    
    22   19   25 1    
    23   20   21 1    
    24   20   23 1    
    25   21   22 2    
    26   23   24 1    
    27   24   25 1    
    28   26   27 du   
    29   26   33 du   
    30   27   34 du   
    31   27   38 du   
    32   28   29 du   
    33   28   32 du   
    34   28   33 du   
    35   29   30 du   
    36   29   31 du   
    37   29   46 du   
    38   34   35 du   
    39   35   36 du   
    40   36   37 du   
    41   37   38 du   
    42   39   40 du   
    43   39   42 du   
    44   39   46 du   
    45   40   41 du   
    46   42   43 du   
    47   43   44 du   
    48   43   45 du   
@<TRIPOS>SUBSTRUCTURE
     1 THR3        1 RESIDUE 
     2 PHE4        8 RESIDUE 
     3 PRO5       19 RESIDUE 
     4 2X01       26 GROUP   
     5 7GA2       39 GROUP   
@<TRIPOS>SET

