#    Name: 6mgq_3_THR_PHE_PRO_2X0_7GA
#    Modification time : Fri May 22 19:24:48 2020

@<TRIPOS>MOLECULE
6mgq_3_THR_PHE_PRO_2X0_7GA
   46    48     5     0     0
SMALL
NO_CHARGES


@<TRIPOS>ATOM
      1 N          60.7480   63.2940   22.0840 N.am      1 THR3        0.0000 
      2 CA         59.6390   63.7360   22.9420 C.3       1 THR3        0.0000 
      3 C          59.8840   63.3330   24.4200 C.2       1 THR3        0.0000 
      4 O          59.5140   62.2790   24.8170 O.2       1 THR3        0.0000 
      5 CB         58.3120   63.1880   22.4510 C.3       1 THR3        0.0000 
      6 OG1        57.9570   62.0350   23.1700 O.3       1 THR3        0.0000 
      7 CG2        58.4040   62.8610   20.9510 C.3       1 THR3        0.0000 
      8 N          60.5750   64.2770   25.3360 N.am      2 PHE4        0.0000 
      9 CA         60.8110   63.9120   26.7390 C.3       2 PHE4        0.0000 
     10 C          60.9900   65.1770   27.5840 C.2       2 PHE4        0.0000 
     11 O          61.8280   65.2120   28.4220 O.2       2 PHE4        0.0000 
     12 CB         62.0670   63.0620   26.8460 C.3       2 PHE4        0.0000 
     13 CG         63.2700   63.8370   26.2790 C.ar      2 PHE4        0.0000 
     14 CD1        63.2760   64.2340   24.9460 C.ar      2 PHE4        0.0000 
     15 CD2        64.3470   64.1390   27.0970 C.ar      2 PHE4        0.0000 
     16 CE1        64.3600   64.9320   24.4360 C.ar      2 PHE4        0.0000 
     17 CE2        65.4350   64.8400   26.5830 C.ar      2 PHE4        0.0000 
     18 CZ         65.4400   65.2350   25.2560 C.ar      2 PHE4        0.0000 
     19 N          60.1320   66.3470   27.3630 N.am      3 PRO5        0.0000 
     20 CA         59.1600   66.4420   26.4650 C.3       3 PRO5        0.0000 
     21 C          59.7330   66.8940   25.1130 C.2       3 PRO5        0.0000 
     22 O          60.1200   66.0390   24.2760 O.2       3 PRO5        0.0000 
     23 CB         58.1780   67.5720   27.0430 C.3       3 PRO5        0.0000 
     24 CG         59.1500   68.5390   27.7830 C.3       3 PRO5        0.0000 
     25 CD         60.2140   67.7460   28.1860 C.3       3 PRO5        0.0000 
     26 C6         54.9910   60.2960   20.8410           4 2X01        0.0000 
     27 C8         54.6660   61.8010   20.9810           4 2X01        0.0000 
     28 C3         56.6650   58.5990   21.6600           4 2X01        0.0000 
     29 P11        58.3830   58.7340   22.4190           4 2X01        0.0000 
     30 O12        58.3600   59.0100   23.8990           4 2X01        0.0000 
     31 O13        59.2700   57.5440   22.1370           4 2X01        0.0000 
     32 N10        55.9800   57.4210   22.1170           4 2X01        0.0000 
     33 C1         55.8440   59.8390   22.0480           4 2X01        0.0000 
     34 C17        53.4350   62.2930   20.5700           4 2X01        0.0000 
     35 C18        53.1440   63.6410   20.6950           4 2X01        0.0000 
     36 C19        54.0870   64.5020   21.2320           4 2X01        0.0000 
     37 C20        55.3170   64.0130   21.6420           4 2X01        0.0000 
     38 C21        55.6050   62.6610   21.5150           4 2X01        0.0000 
     39 CA         60.3450   60.7180   22.5630           5 7GA2        0.0000 
     40 C          61.1150   61.8610   21.8780           5 7GA2        0.0000 
     41 O          62.0270   61.5970   21.1650           5 7GA2        0.0000 
     42 C8         61.3090   59.5560   22.8590           5 7GA2        0.0000 
     43 C9         62.4720   60.0160   23.8100           5 7GA2        0.0000 
     44 C10        63.6830   60.4580   22.9750           5 7GA2        0.0000 
     45 C11        61.9870   61.1940   24.6890           5 7GA2        0.0000 
     46 C6         59.2380   60.2170   21.6330           5 7GA2        0.0000 
@<TRIPOS>BOND
     1    1    2 1    
     2    1   40 du   
     3    2    3 1    
     4    2    5 1    
     5    3    4 2    
     6    3    8 am   
     7    5    6 1    
     8    5    7 1    
     9    8    9 1    
    10    9   10 1    
    11    9   12 1    
    12   10   11 2    
    13   10   19 am   
    14   12   13 1    
    15   13   14 ar   
    16   13   15 ar   
    17   14   16 ar   
    18   15   17 ar   
    19   16   18 ar   
    20   17   18 ar   
    21   19   20 1    
    22   19   25 1    
    23   20   21 1    
    24   20   23 1    
    25   21   22 2    
    26   23   24 1    
    27   24   25 1    
    28   26   27 du   
    29   26   33 du   
    30   27   34 du   
    31   27   38 du   
    32   28   29 du   
    33   28   32 du   
    34   28   33 du   
    35   29   30 du   
    36   29   31 du   
    37   29   46 du   
    38   34   35 du   
    39   35   36 du   
    40   36   37 du   
    41   37   38 du   
    42   39   40 du   
    43   39   42 du   
    44   39   46 du   
    45   40   41 du   
    46   42   43 du   
    47   43   44 du   
    48   43   45 du   
@<TRIPOS>SUBSTRUCTURE
     1 THR3        1 RESIDUE 
     2 PHE4        8 RESIDUE 
     3 PRO5       19 RESIDUE 
     4 2X01       26 GROUP   
     5 7GA2       39 GROUP   
@<TRIPOS>SET

