#    Name: 5y8h_5_NAD
#    Modification time : Fri May 22 19:12:42 2020

@<TRIPOS>MOLECULE
5y8h_5_NAD
   44    48     1     0     1
SMALL
NO_CHARGES


@<TRIPOS>ATOM
      1 PA          8.0390   39.1260    7.1960 P.3       1 NAD301      0.0000 
      2 O1A         7.3010   39.2810    8.4870 O.co2     1 NAD301      0.0000 
      3 O2A         7.8060   39.7960    5.8940 O.co2     1 NAD301      0.0000 
      4 O5B         8.0620   37.5270    6.9290 O.3       1 NAD301      0.0000 
      5 C5B         8.2110   36.5730    7.9620 C.3       1 NAD301      0.0000 
      6 C4B         7.4080   35.3720    7.5480 C.3       1 NAD301      0.0000 
      7 O4B         7.5580   34.3280    8.5170 O.3       1 NAD301      0.0000 
      8 C3B         5.9080   35.6720    7.4470 C.3       1 NAD301      0.0000 
      9 O3B         5.4630   35.4400    6.0740 O.3       1 NAD301      0.0000 
     10 C2B         5.3190   34.7280    8.4620 C.3       1 NAD301      0.0000 
     11 O2B         4.0160   34.2850    8.1150 O.3       1 NAD301      0.0000 
     12 C1B         6.3420   33.6120    8.5060 C.3       1 NAD301      0.0000 
     13 N9A         6.3190   32.7470    9.6820 N.pl3     1 NAD301      0.0000 
     14 C8A         6.0410   33.1020   10.9520 C.2       1 NAD301      0.0000 
     15 N7A         6.1050   31.9970   11.7340 N.2       1 NAD301      0.0000 
     16 C5A         6.4670   30.9550   10.9790 C.ar      1 NAD301      0.0000 
     17 C6A         6.7770   29.5510   11.1480 C.ar      1 NAD301      0.0000 
     18 N6A         6.7420   28.9410   12.3280 N.pl3     1 NAD301      0.0000 
     19 N1A         7.1080   28.8270   10.1030 N.ar      1 NAD301      0.0000 
     20 C2A         7.2210   29.3360    8.9090 C.ar      1 NAD301      0.0000 
     21 N3A         6.9860   30.6080    8.6860 N.ar      1 NAD301      0.0000 
     22 C4A         6.5920   31.4530    9.6390 C.ar      1 NAD301      0.0000 
     23 O3          9.5920   39.3510    7.6200 O.3       1 NAD301      0.0000 
     24 PN         10.8000   39.5190    6.5650 P.3       1 NAD301      0.0000 
     25 O1N        10.7650   40.9680    6.1300 O.co2     1 NAD301      0.0000 
     26 O2N        10.9000   38.4450    5.5050 O.co2     1 NAD301      0.0000 
     27 O5D        12.0590   39.3960    7.5780 O.3       1 NAD301      0.0000 
     28 C5D        12.3780   38.2090    8.3180 C.3       1 NAD301      0.0000 
     29 C4D        13.6920   38.4260    9.0950 C.3       1 NAD301      0.0000 
     30 O4D        14.6640   39.0800    8.2900 O.3       1 NAD301      0.0000 
     31 C3D        13.5110   39.2930   10.3380 C.3       1 NAD301      0.0000 
     32 O3D        14.1510   38.6080   11.4300 O.3       1 NAD301      0.0000 
     33 C2D        14.0810   40.6590    9.9260 C.3       1 NAD301      0.0000 
     34 O2D        14.5040   41.5390   11.0150 O.3       1 NAD301      0.0000 
     35 C1D        15.2010   40.1960    8.9650 C.3       1 NAD301      0.0000 
     36 N1N        15.6780   41.1420    7.9460 N.pl3     1 NAD301      0.0000 
     37 C2N        14.7490   41.8530    7.2530 C.ar      1 NAD301      0.0000 
     38 C3N        15.1070   42.7960    6.2490 C.ar      1 NAD301      0.0000 
     39 C7N        14.0080   43.5160    5.5010 C.2       1 NAD301      0.0000 
     40 O7N        14.3000   44.5260    4.8980 O.2       1 NAD301      0.0000 
     41 N7N        12.7320   43.0940    5.4540 N.am      1 NAD301      0.0000 
     42 C4N        16.4820   43.0290    6.0070 C.ar      1 NAD301      0.0000 
     43 C5N        17.4470   42.2850    6.7210 C.ar      1 NAD301      0.0000 
     44 C6N        17.0230   41.3240    7.6850 C.ar      1 NAD301      0.0000 
@<TRIPOS>BOND
     1    1    2 ar   
     2    1    3 ar   
     3    1    4 1    
     4    1   23 1    
     5    4    5 1    
     6    5    6 1    
     7    6    7 1    
     8    6    8 1    
     9    7   12 1    
    10    8    9 1    
    11    8   10 1    
    12   10   11 1    
    13   10   12 1    
    14   12   13 1    
    15   13   14 1    
    16   13   22 1    
    17   14   15 2    
    18   15   16 1    
    19   16   17 ar   
    20   16   22 ar   
    21   17   18 1    
    22   17   19 ar   
    23   19   20 ar   
    24   20   21 ar   
    25   21   22 ar   
    26   23   24 1    
    27   24   25 ar   
    28   24   26 ar   
    29   24   27 1    
    30   27   28 1    
    31   28   29 1    
    32   29   30 1    
    33   29   31 1    
    34   30   35 1    
    35   31   32 1    
    36   31   33 1    
    37   33   34 1    
    38   33   35 1    
    39   35   36 1    
    40   36   37 ar   
    41   36   44 ar   
    42   37   38 ar   
    43   38   39 1    
    44   38   42 ar   
    45   39   40 2    
    46   39   41 am   
    47   42   43 ar   
    48   43   44 ar   
@<TRIPOS>SUBSTRUCTURE
     1 NAD301      1 GROUP   
@<TRIPOS>SET
ATOM$ORANGE STATIC     ATOMS   COLORGROUP SYSTEM 
42 5 5 6 6 8 8 10 10 12 12 14 14 16 16 17 17 20 \
20 22 22 28 28 29 29 31 31 33 33 35 35 37 37 38 38 39 \
39 42 42 43 43 44 44 

