#    Name: 6ptn_3_ATP
#    Modification time : Fri May 22 19:27:41 2020

@<TRIPOS>MOLECULE
6ptn_3_ATP
   31    33     1     0     1
SMALL
NO_CHARGES


@<TRIPOS>ATOM
      1 PG        255.0320  262.8520   32.8040 P.3       1 ATP801      0.0000 
      2 O1G       254.6510  263.1770   34.1970 O.co2     1 ATP801      0.0000 
      3 O2G       253.9190  262.2310   32.0000 O.co2     1 ATP801      0.0000 
      4 O3G       255.8160  263.9400   32.1250 O.co2     1 ATP801      0.0000 
      5 PB        255.4950  260.2710   33.4010 P.3       1 ATP801      0.0000 
      6 O1B       255.0370  259.6240   32.1250 O.co2     1 ATP801      0.0000 
      7 O2B       254.5560  260.4270   34.5550 O.co2     1 ATP801      0.0000 
      8 O3B       256.0980  261.6920   33.0310 O.3       1 ATP801      0.0000 
      9 PA        256.5450  257.9040   34.0980 P.3       1 ATP801      0.0000 
     10 O1A       256.8510  257.2270   32.7870 O.co2     1 ATP801      0.0000 
     11 O2A       255.2350  257.6720   34.7950 O.co2     1 ATP801      0.0000 
     12 O3A       256.7630  259.4750   33.9390 O.3       1 ATP801      0.0000 
     13 O5'       257.7120  257.5020   35.1060 O.3       1 ATP801      0.0000 
     14 C5'       258.0590  256.1330   35.1200 C.3       1 ATP801      0.0000 
     15 C4'       259.5480  256.0460   35.3470 C.3       1 ATP801      0.0000 
     16 O4'       260.2350  257.1010   34.6710 O.3       1 ATP801      0.0000 
     17 C3'       259.8640  256.2110   36.8150 C.3       1 ATP801      0.0000 
     18 O3'       260.2300  254.9420   37.3580 O.3       1 ATP801      0.0000 
     19 C2'       261.0530  257.1360   36.8430 C.3       1 ATP801      0.0000 
     20 O2'       262.1340  256.5340   37.5530 O.3       1 ATP801      0.0000 
     21 C1'       261.4490  257.2810   35.3890 C.3       1 ATP801      0.0000 
     22 N9        262.1180  258.5710   35.1200 N.pl3     1 ATP801      0.0000 
     23 C8        261.7070  259.5350   34.2880 C.2       1 ATP801      0.0000 
     24 N7        262.5910  260.5620   34.2830 N.2       1 ATP801      0.0000 
     25 C5        263.5880  260.2520   35.1250 C.ar      1 ATP801      0.0000 
     26 C6        264.8390  260.8780   35.5960 C.ar      1 ATP801      0.0000 
     27 N6        265.2340  262.0940   35.1660 N.pl3     1 ATP801      0.0000 
     28 N1        265.5820  260.2000   36.4800 N.ar      1 ATP801      0.0000 
     29 C2        265.2420  258.9950   36.9240 C.ar      1 ATP801      0.0000 
     30 N3        264.1270  258.3740   36.5470 N.ar      1 ATP801      0.0000 
     31 C4        263.2750  258.9340   35.6640 C.ar      1 ATP801      0.0000 
@<TRIPOS>BOND
     1    1    2 ar   
     2    1    3 ar   
     3    1    4 ar   
     4    1    8 1    
     5    5    6 ar   
     6    5    7 ar   
     7    5    8 1    
     8    5   12 1    
     9    9   10 ar   
    10    9   11 ar   
    11    9   12 1    
    12    9   13 1    
    13   13   14 1    
    14   14   15 1    
    15   15   16 1    
    16   15   17 1    
    17   16   21 1    
    18   17   18 1    
    19   17   19 1    
    20   19   20 1    
    21   19   21 1    
    22   21   22 1    
    23   22   23 1    
    24   22   31 1    
    25   23   24 2    
    26   24   25 1    
    27   25   26 ar   
    28   25   31 ar   
    29   26   27 1    
    30   26   28 ar   
    31   28   29 ar   
    32   29   30 ar   
    33   30   31 ar   
@<TRIPOS>SUBSTRUCTURE
     1 ATP801      1 GROUP   
@<TRIPOS>SET
ATOM$ORANGE STATIC     ATOMS   COLORGROUP SYSTEM 
20 14 14 15 15 17 17 19 19 21 21 23 23 25 25 26 26 29 \
29 31 31 

