#    Name: 6ptn_4_ATP
#    Modification time : Fri May 22 19:28:17 2020

@<TRIPOS>MOLECULE
6ptn_4_ATP
   31    33     1     0     1
SMALL
NO_CHARGES


@<TRIPOS>ATOM
      1 PG        187.0120  248.6320  219.9740 P.3       1 ATP901      0.0000 
      2 O1G       186.8670  249.5090  221.1850 O.co2     1 ATP901      0.0000 
      3 O2G       188.2190  248.9350  219.1330 O.co2     1 ATP901      0.0000 
      4 O3G       186.7490  247.1690  220.2050 O.co2     1 ATP901      0.0000 
      5 PB        185.5740  250.5750  218.5760 P.3       1 ATP901      0.0000 
      6 O1B       186.7820  251.0830  217.8450 O.co2     1 ATP901      0.0000 
      7 O2B       184.9390  251.3950  219.6640 O.co2     1 ATP901      0.0000 
      8 O3B       185.7820  249.0670  219.0580 O.3       1 ATP901      0.0000 
      9 PA        184.0330  251.4360  216.5370 P.3       1 ATP901      0.0000 
     10 O1A       185.1550  251.7260  215.5840 O.co2     1 ATP901      0.0000 
     11 O2A       183.4580  252.4940  217.4320 O.co2     1 ATP901      0.0000 
     12 O3A       184.4700  250.2500  217.4860 O.3       1 ATP901      0.0000 
     13 O5'       182.8750  250.7150  215.7140 O.3       1 ATP901      0.0000 
     14 C5'       181.5960  251.3150  215.6840 C.3       1 ATP901      0.0000 
     15 C4'       181.3710  251.9670  214.3320 C.3       1 ATP901      0.0000 
     16 O4'       181.5070  253.3830  214.4390 O.3       1 ATP901      0.0000 
     17 C3'       182.3760  251.5310  213.2870 C.3       1 ATP901      0.0000 
     18 O3'       181.7920  250.5410  212.4480 O.3       1 ATP901      0.0000 
     19 C2'       182.6820  252.7840  212.4960 C.3       1 ATP901      0.0000 
     20 O2'       182.1690  252.6710  211.1700 O.3       1 ATP901      0.0000 
     21 C1'       181.9340  253.8990  213.1840 C.3       1 ATP901      0.0000 
     22 N9        182.8330  255.0440  213.3660 N.pl3     1 ATP901      0.0000 
     23 C8        183.3490  255.4580  214.5270 C.2       1 ATP901      0.0000 
     24 N7        184.1330  256.5430  214.3390 N.2       1 ATP901      0.0000 
     25 C5        184.1160  256.8330  213.0310 C.ar      1 ATP901      0.0000 
     26 C6        184.7380  257.8470  212.1660 C.ar      1 ATP901      0.0000 
     27 N6        185.5460  258.7980  212.6800 N.pl3     1 ATP901      0.0000 
     28 N1        184.4690  257.7930  210.8500 N.ar      1 ATP901      0.0000 
     29 C2        183.6640  256.8450  210.3370 C.ar      1 ATP901      0.0000 
     30 N3        183.0670  255.8880  211.0640 N.ar      1 ATP901      0.0000 
     31 C4        183.2570  255.8350  212.3950 C.ar      1 ATP901      0.0000 
@<TRIPOS>BOND
     1    1    2 ar   
     2    1    3 ar   
     3    1    4 ar   
     4    1    8 1    
     5    5    6 ar   
     6    5    7 ar   
     7    5    8 1    
     8    5   12 1    
     9    9   10 ar   
    10    9   11 ar   
    11    9   12 1    
    12    9   13 1    
    13   13   14 1    
    14   14   15 1    
    15   15   16 1    
    16   15   17 1    
    17   16   21 1    
    18   17   18 1    
    19   17   19 1    
    20   19   20 1    
    21   19   21 1    
    22   21   22 1    
    23   22   23 1    
    24   22   31 1    
    25   23   24 2    
    26   24   25 1    
    27   25   26 ar   
    28   25   31 ar   
    29   26   27 1    
    30   26   28 ar   
    31   28   29 ar   
    32   29   30 ar   
    33   30   31 ar   
@<TRIPOS>SUBSTRUCTURE
     1 ATP901      1 GROUP   
@<TRIPOS>SET
ATOM$ORANGE STATIC     ATOMS   COLORGROUP SYSTEM 
20 14 14 15 15 17 17 19 19 21 21 23 23 25 25 26 26 29 \
29 31 31 

