#    Name: 6ptn_6_ATP
#    Modification time : Fri May 22 19:29:23 2020

@<TRIPOS>MOLECULE
6ptn_6_ATP
   31    33     1     0     1
SMALL
NO_CHARGES


@<TRIPOS>ATOM
      1 PG        216.4760  243.9010  227.9550 P.3       1 ATP801      0.0000 
      2 O1G       217.0390  242.5670  227.6380 O.co2     1 ATP801      0.0000 
      3 O2G       214.9900  244.0030  227.7220 O.co2     1 ATP801      0.0000 
      4 O3G       216.9890  244.4790  229.2440 O.co2     1 ATP801      0.0000 
      5 PB        216.5230  244.6710  225.3790 P.3       1 ATP801      0.0000 
      6 O1B       215.2830  245.5180  225.3390 O.co2     1 ATP801      0.0000 
      7 O2B       216.4690  243.2250  225.0030 O.co2     1 ATP801      0.0000 
      8 O3B       217.1500  244.8030  226.8320 O.3       1 ATP801      0.0000 
      9 PA        217.1450  245.6570  222.9640 P.3       1 ATP801      0.0000 
     10 O1A       216.4800  247.0080  222.9270 O.co2     1 ATP801      0.0000 
     11 O2A       216.4430  244.4410  222.4280 O.co2     1 ATP801      0.0000 
     12 O3A       217.6240  245.3500  224.4530 O.3       1 ATP801      0.0000 
     13 O5'       218.5280  245.8030  222.1870 O.3       1 ATP801      0.0000 
     14 C5'       218.4640  246.4880  220.9530 C.3       1 ATP801      0.0000 
     15 C4'       219.7440  247.2730  220.8050 C.3       1 ATP801      0.0000 
     16 O4'       220.1740  247.8010  222.0610 O.3       1 ATP801      0.0000 
     17 C3'       220.8570  246.3720  220.3240 C.3       1 ATP801      0.0000 
     18 O3'       221.1290  246.6600  218.9520 O.3       1 ATP801      0.0000 
     19 C2'       222.0450  246.7580  221.1680 C.3       1 ATP801      0.0000 
     20 O2'       223.1430  247.1330  220.3380 O.3       1 ATP801      0.0000 
     21 C1'       221.5790  247.9770  221.9360 C.3       1 ATP801      0.0000 
     22 N9        222.2820  248.1250  223.2280 N.pl3     1 ATP801      0.0000 
     23 C8        221.7340  248.1200  224.4500 C.2       1 ATP801      0.0000 
     24 N7        222.6880  248.3060  225.3920 N.2       1 ATP801      0.0000 
     25 C5        223.8680  248.4340  224.7680 C.ar      1 ATP801      0.0000 
     26 C6        225.2770  248.6490  225.1520 C.ar      1 ATP801      0.0000 
     27 N6        225.6540  248.7690  226.4420 N.pl3     1 ATP801      0.0000 
     28 N1        226.1880  248.7200  224.1720 N.ar      1 ATP801      0.0000 
     29 C2        225.8640  248.6220  222.8880 C.ar      1 ATP801      0.0000 
     30 N3        224.6160  248.4220  222.4700 N.ar      1 ATP801      0.0000 
     31 C4        223.5900  248.3230  223.3410 C.ar      1 ATP801      0.0000 
@<TRIPOS>BOND
     1    1    2 ar   
     2    1    3 ar   
     3    1    4 ar   
     4    1    8 1    
     5    5    6 ar   
     6    5    7 ar   
     7    5    8 1    
     8    5   12 1    
     9    9   10 ar   
    10    9   11 ar   
    11    9   12 1    
    12    9   13 1    
    13   13   14 1    
    14   14   15 1    
    15   15   16 1    
    16   15   17 1    
    17   16   21 1    
    18   17   18 1    
    19   17   19 1    
    20   19   20 1    
    21   19   21 1    
    22   21   22 1    
    23   22   23 1    
    24   22   31 1    
    25   23   24 2    
    26   24   25 1    
    27   25   26 ar   
    28   25   31 ar   
    29   26   27 1    
    30   26   28 ar   
    31   28   29 ar   
    32   29   30 ar   
    33   30   31 ar   
@<TRIPOS>SUBSTRUCTURE
     1 ATP801      1 GROUP   
@<TRIPOS>SET
ATOM$ORANGE STATIC     ATOMS   COLORGROUP SYSTEM 
20 14 14 15 15 17 17 19 19 21 21 23 23 25 25 26 26 29 \
29 31 31 

