#    Name: 6ptn_1_ATP
#    Modification time : Fri May 22 19:26:35 2020

@<TRIPOS>MOLECULE
6ptn_1_ATP
   31    33     1     0     1
SMALL
NO_CHARGES


@<TRIPOS>ATOM
      1 PG        234.5540  246.5520   16.3990 P.3       1 ATP901      0.0000 
      2 O1G       235.0000  247.2990   15.1750 O.co2     1 ATP901      0.0000 
      3 O2G       235.6750  245.9920   17.2240 O.co2     1 ATP901      0.0000 
      4 O3G       233.4510  247.2080   17.1850 O.co2     1 ATP901      0.0000 
      5 PB        234.5880  244.2470   14.8250 P.3       1 ATP901      0.0000 
      6 O1B       235.8380  243.7130   15.4600 O.co2     1 ATP901      0.0000 
      7 O2B       234.6100  244.7780   13.4200 O.co2     1 ATP901      0.0000 
      8 O3B       233.8330  245.2630   15.7980 O.3       1 ATP901      0.0000 
      9 PA        233.8620  241.7150   14.2360 P.3       1 ATP901      0.0000 
     10 O1A       234.9090  241.0380   15.0720 O.co2     1 ATP901      0.0000 
     11 O2A       234.0770  242.0050   12.7790 O.co2     1 ATP901      0.0000 
     12 O3A       233.4970  243.0980   14.9070 O.3       1 ATP901      0.0000 
     13 O5'       232.4910  240.9350   14.4510 O.3       1 ATP901      0.0000 
     14 C5'       231.8500  240.3740   13.3230 C.3       1 ATP901      0.0000 
     15 C4'       232.0480  238.8690   13.3220 C.3       1 ATP901      0.0000 
     16 O4'       233.0270  238.5030   12.3520 O.3       1 ATP901      0.0000 
     17 C3'       232.5540  238.3340   14.6460 C.3       1 ATP901      0.0000 
     18 O3'       231.4680  237.7790   15.3790 O.3       1 ATP901      0.0000 
     19 C2'       233.5500  237.2580   14.2750 C.3       1 ATP901      0.0000 
     20 O2'       233.0500  235.9720   14.6390 O.3       1 ATP901      0.0000 
     21 C1'       233.6580  237.2980   12.7690 C.3       1 ATP901      0.0000 
     22 N9        235.0740  237.2860   12.3860 N.pl3     1 ATP901      0.0000 
     23 C8        235.7570  238.3170   11.8800 C.2       1 ATP901      0.0000 
     24 N7        237.0390  237.9640   11.6350 N.2       1 ATP901      0.0000 
     25 C5        237.1780  236.6790   11.9860 C.ar      1 ATP901      0.0000 
     26 C6        238.2770  235.6990   11.9940 C.ar      1 ATP901      0.0000 
     27 N6        239.5070  236.0330   11.5520 N.pl3     1 ATP901      0.0000 
     28 N1        238.0070  234.4650   12.4500 N.ar      1 ATP901      0.0000 
     29 C2        236.7790  234.1310   12.8900 C.ar      1 ATP901      0.0000 
     30 N3        235.7350  234.9730   12.9170 N.ar      1 ATP901      0.0000 
     31 C4        235.8770  236.2400   12.4850 C.ar      1 ATP901      0.0000 
@<TRIPOS>BOND
     1    1    2 ar   
     2    1    3 ar   
     3    1    4 ar   
     4    1    8 1    
     5    5    6 ar   
     6    5    7 ar   
     7    5    8 1    
     8    5   12 1    
     9    9   10 ar   
    10    9   11 ar   
    11    9   12 1    
    12    9   13 1    
    13   13   14 1    
    14   14   15 1    
    15   15   16 1    
    16   15   17 1    
    17   16   21 1    
    18   17   18 1    
    19   17   19 1    
    20   19   20 1    
    21   19   21 1    
    22   21   22 1    
    23   22   23 1    
    24   22   31 1    
    25   23   24 2    
    26   24   25 1    
    27   25   26 ar   
    28   25   31 ar   
    29   26   27 1    
    30   26   28 ar   
    31   28   29 ar   
    32   29   30 ar   
    33   30   31 ar   
@<TRIPOS>SUBSTRUCTURE
     1 ATP901      1 GROUP   
@<TRIPOS>SET
ATOM$ORANGE STATIC     ATOMS   COLORGROUP SYSTEM 
20 14 14 15 15 17 17 19 19 21 21 23 23 25 25 26 26 29 \
29 31 31 

