#    Name: 6ptn_2_ATP
#    Modification time : Fri May 22 19:27:07 2020

@<TRIPOS>MOLECULE
6ptn_2_ATP
   31    33     1     0     1
SMALL
NO_CHARGES


@<TRIPOS>ATOM
      1 PG        244.6490  290.6470   41.6780 P.3       1 ATP1001     0.0000 
      2 O1G       243.4020  290.9530   42.4490 O.co2     1 ATP1001     0.0000 
      3 O2G       245.3920  289.4200   42.1090 O.co2     1 ATP1001     0.0000 
      4 O3G       244.4960  290.7860   40.1960 O.co2     1 ATP1001     0.0000 
      5 PB        245.8750  292.2720   43.5130 P.3       1 ATP1001     0.0000 
      6 O1B       245.4080  291.1400   44.3870 O.co2     1 ATP1001     0.0000 
      7 O2B       245.3350  293.6400   43.7770 O.co2     1 ATP1001     0.0000 
      8 O3B       245.6500  291.8730   41.9910 O.3       1 ATP1001     0.0000 
      9 PA        247.9070  292.1600   45.2090 P.3       1 ATP1001     0.0000 
     10 O1A       248.0220  290.6920   45.4440 O.co2     1 ATP1001     0.0000 
     11 O2A       246.9450  292.9450   46.0670 O.co2     1 ATP1001     0.0000 
     12 O3A       247.4660  292.3580   43.6740 O.3       1 ATP1001     0.0000 
     13 O5'       249.3970  292.7500   45.3710 O.3       1 ATP1001     0.0000 
     14 C5'       250.2420  292.0930   46.3240 C.3       1 ATP1001     0.0000 
     15 C4'       251.5450  292.8400   46.6170 C.3       1 ATP1001     0.0000 
     16 O4'       252.0750  293.4850   45.4610 O.3       1 ATP1001     0.0000 
     17 C3'       251.3800  293.9050   47.6860 C.3       1 ATP1001     0.0000 
     18 O3'       252.1460  293.5530   48.8350 O.3       1 ATP1001     0.0000 
     19 C2'       251.9100  295.1930   47.1010 C.3       1 ATP1001     0.0000 
     20 O2'       252.9430  295.7230   47.9260 O.3       1 ATP1001     0.0000 
     21 C1'       252.4790  294.8180   45.7530 C.3       1 ATP1001     0.0000 
     22 N9        251.8440  295.6670   44.7460 N.pl3     1 ATP1001     0.0000 
     23 C8        250.9630  295.2470   43.8290 C.2       1 ATP1001     0.0000 
     24 N7        250.5690  296.2740   43.0430 N.2       1 ATP1001     0.0000 
     25 C5        251.2040  297.3700   43.4800 C.ar      1 ATP1001     0.0000 
     26 C6        251.2440  298.7910   43.0980 C.ar      1 ATP1001     0.0000 
     27 N6        250.5010  299.2550   42.0690 N.pl3     1 ATP1001     0.0000 
     28 N1        252.0440  299.6070   43.8080 N.ar      1 ATP1001     0.0000 
     29 C2        252.7790  299.1550   44.8320 C.ar      1 ATP1001     0.0000 
     30 N3        252.7950  297.8780   45.2300 N.ar      1 ATP1001     0.0000 
     31 C4        252.0420  296.9620   44.6030 C.ar      1 ATP1001     0.0000 
@<TRIPOS>BOND
     1    1    2 ar   
     2    1    3 ar   
     3    1    4 ar   
     4    1    8 1    
     5    5    6 ar   
     6    5    7 ar   
     7    5    8 1    
     8    5   12 1    
     9    9   10 ar   
    10    9   11 ar   
    11    9   12 1    
    12    9   13 1    
    13   13   14 1    
    14   14   15 1    
    15   15   16 1    
    16   15   17 1    
    17   16   21 1    
    18   17   18 1    
    19   17   19 1    
    20   19   20 1    
    21   19   21 1    
    22   21   22 1    
    23   22   23 1    
    24   22   31 1    
    25   23   24 2    
    26   24   25 1    
    27   25   26 ar   
    28   25   31 ar   
    29   26   27 1    
    30   26   28 ar   
    31   28   29 ar   
    32   29   30 ar   
    33   30   31 ar   
@<TRIPOS>SUBSTRUCTURE
     1 ATP1001     1 GROUP   
@<TRIPOS>SET
ATOM$ORANGE STATIC     ATOMS   COLORGROUP SYSTEM 
20 14 14 15 15 17 17 19 19 21 21 23 23 25 25 26 26 29 \
29 31 31 

