#    Name: 6ptn_5_ATP
#    Modification time : Fri May 22 19:28:49 2020

@<TRIPOS>MOLECULE
6ptn_5_ATP
   31    33     1     0     1
SMALL
NO_CHARGES


@<TRIPOS>ATOM
      1 PG        220.2810  221.4800  248.9770 P.3       1 ATP1001     0.0000 
      2 O1G       219.8080  220.0610  248.8960 O.co2     1 ATP1001     0.0000 
      3 O2G       220.7990  222.0630  247.6980 O.co2     1 ATP1001     0.0000 
      4 O3G       219.3650  222.3830  249.7410 O.co2     1 ATP1001     0.0000 
      5 PB        222.6880  220.3650  249.6700 P.3       1 ATP1001     0.0000 
      6 O1B       222.5230  219.8590  248.2630 O.co2     1 ATP1001     0.0000 
      7 O2B       222.7560  219.3680  250.7810 O.co2     1 ATP1001     0.0000 
      8 O3B       221.5560  221.4420  249.9650 O.3       1 ATP1001     0.0000 
      9 PA        225.2130  220.4550  248.8750 P.3       1 ATP1001     0.0000 
     10 O1A       225.0640  220.8770  247.4530 O.co2     1 ATP1001     0.0000 
     11 O2A       225.1330  218.9830  249.1940 O.co2     1 ATP1001     0.0000 
     12 O3A       224.0540  221.1990  249.7080 O.3       1 ATP1001     0.0000 
     13 O5'       226.6280  221.0500  249.3630 O.3       1 ATP1001     0.0000 
     14 C5'       227.6620  221.1280  248.3760 C.3       1 ATP1001     0.0000 
     15 C4'       229.0430  221.4580  248.9460 C.3       1 ATP1001     0.0000 
     16 O4'       228.9760  222.3740  250.0380 O.3       1 ATP1001     0.0000 
     17 C3'       229.7800  220.2280  249.4420 C.3       1 ATP1001     0.0000 
     18 O3'       230.9390  220.0100  248.6420 O.3       1 ATP1001     0.0000 
     19 C2'       230.1960  220.5130  250.8640 C.3       1 ATP1001     0.0000 
     20 O2'       231.6080  220.3790  251.0060 O.3       1 ATP1001     0.0000 
     21 C1'       229.7950  221.9470  251.1200 C.3       1 ATP1001     0.0000 
     22 N9        228.9450  221.9680  252.3100 N.pl3     1 ATP1001     0.0000 
     23 C8        227.6290  222.2230  252.3120 C.2       1 ATP1001     0.0000 
     24 N7        227.1370  222.1750  253.5700 N.2       1 ATP1001     0.0000 
     25 C5        228.1590  221.8710  254.3810 C.ar      1 ATP1001     0.0000 
     26 C6        228.3360  221.6660  255.8280 C.ar      1 ATP1001     0.0000 
     27 N6        227.2900  221.7730  256.6760 N.pl3     1 ATP1001     0.0000 
     28 N1        229.5700  221.3690  256.2710 N.ar      1 ATP1001     0.0000 
     29 C2        230.6100  221.2570  255.4340 C.ar      1 ATP1001     0.0000 
     30 N3        230.5240  221.4350  254.1110 N.ar      1 ATP1001     0.0000 
     31 C4        229.3480  221.7360  253.5430 C.ar      1 ATP1001     0.0000 
@<TRIPOS>BOND
     1    1    2 ar   
     2    1    3 ar   
     3    1    4 ar   
     4    1    8 1    
     5    5    6 ar   
     6    5    7 ar   
     7    5    8 1    
     8    5   12 1    
     9    9   10 ar   
    10    9   11 ar   
    11    9   12 1    
    12    9   13 1    
    13   13   14 1    
    14   14   15 1    
    15   15   16 1    
    16   15   17 1    
    17   16   21 1    
    18   17   18 1    
    19   17   19 1    
    20   19   20 1    
    21   19   21 1    
    22   21   22 1    
    23   22   23 1    
    24   22   31 1    
    25   23   24 2    
    26   24   25 1    
    27   25   26 ar   
    28   25   31 ar   
    29   26   27 1    
    30   26   28 ar   
    31   28   29 ar   
    32   29   30 ar   
    33   30   31 ar   
@<TRIPOS>SUBSTRUCTURE
     1 ATP1001     1 GROUP   
@<TRIPOS>SET
ATOM$ORANGE STATIC     ATOMS   COLORGROUP SYSTEM 
20 14 14 15 15 17 17 19 19 21 21 23 23 25 25 26 26 29 \
29 31 31 

