#    Name: 5msq_1_AMP
#    Modification time : Fri May 22 19:21:27 2020

@<TRIPOS>MOLECULE
5msq_1_AMP
   23    25     1     0     1
SMALL
NO_CHARGES


@<TRIPOS>ATOM
      1 P          -7.2870   12.1360   26.7720 P.3       1 AMP1201     0.0000 
      2 O1P        -5.8000   12.0740   26.7720 O.co2     1 AMP1201     0.0000 
      3 O2P        -8.0730   10.8870   27.0330 O.co2     1 AMP1201     0.0000 
      4 O3P        -7.7460   12.9200   27.9590 O.co2     1 AMP1201     0.0000 
      5 O5'        -7.7430   12.7580   25.3880 O.3       1 AMP1201     0.0000 
      6 C5'        -9.0120   13.3840   25.2800 C.3       1 AMP1201     0.0000 
      7 C4'        -9.2080   13.9750   23.9070 C.3       1 AMP1201     0.0000 
      8 O4'        -8.9840   12.9750   22.8780 O.3       1 AMP1201     0.0000 
      9 C3'       -10.6090   14.4740   23.6280 C.3       1 AMP1201     0.0000 
     10 O3'       -10.8390   15.7380   24.2190 O.3       1 AMP1201     0.0000 
     11 C2'       -10.6770   14.4610   22.1040 C.3       1 AMP1201     0.0000 
     12 O2'       -10.0160   15.5850   21.5540 O.3       1 AMP1201     0.0000 
     13 C1'        -9.8340   13.2320   21.7740 C.3       1 AMP1201     0.0000 
     14 N9        -10.6520   12.0340   21.5130 N.pl3     1 AMP1201     0.0000 
     15 C8        -10.8870   10.9940   22.3610 C.2       1 AMP1201     0.0000 
     16 N7        -11.6240   10.0440   21.7880 N.2       1 AMP1201     0.0000 
     17 C5        -11.9010   10.4710   20.4770 C.ar      1 AMP1201     0.0000 
     18 C6        -12.6100    9.9770   19.3490 C.ar      1 AMP1201     0.0000 
     19 N6        -13.2920    8.6910   19.3890 N.pl3     1 AMP1201     0.0000 
     20 N1        -12.6250   10.7170   18.2480 N.ar      1 AMP1201     0.0000 
     21 C2        -12.0150   11.8570   18.1790 C.ar      1 AMP1201     0.0000 
     22 N3        -11.3230   12.4390   19.1280 N.ar      1 AMP1201     0.0000 
     23 C4        -11.2490   11.7710   20.3040 C.ar      1 AMP1201     0.0000 
@<TRIPOS>BOND
     1    1    2 ar   
     2    1    3 ar   
     3    1    4 ar   
     4    1    5 1    
     5    5    6 1    
     6    6    7 1    
     7    7    8 1    
     8    7    9 1    
     9    8   13 1    
    10    9   10 1    
    11    9   11 1    
    12   11   12 1    
    13   11   13 1    
    14   13   14 1    
    15   14   15 1    
    16   14   23 1    
    17   15   16 2    
    18   16   17 1    
    19   17   18 ar   
    20   17   23 ar   
    21   18   19 1    
    22   18   20 ar   
    23   20   21 ar   
    24   21   22 ar   
    25   22   23 ar   
@<TRIPOS>SUBSTRUCTURE
     1 AMP1201     1 GROUP   
@<TRIPOS>SET
ATOM$ORANGE STATIC     ATOMS   COLORGROUP SYSTEM 
20 6 6 7 7 9 9 11 11 13 13 15 15 17 17 18 18 21 \
21 23 23 

