#    Name: 5msq_1_AMP_CAVITY_N1_8
#    Modification time : Fri May 22 19:21:28 2020

@<TRIPOS>MOLECULE
5msq_1_AMP_CAVITY_N1_8
   53     0     6     0     0
SMALL
NO_CHARGES


@<TRIPOS>ATOM
      1 OG         -7.3400   10.3600   25.4600 O.3       1 SER1        0.0000 
      2 OG         -7.4300   10.3300   27.5800 O.3       1 SER1        0.0000 
      3 OG         -6.6800   11.1300   26.5600 O.3       1 SER1        0.0000 
      4 OG         -7.1200   12.9100   27.6300 O.3       1 SER1        0.0000 
      5 N         -13.3800    5.8700   24.0900 N.am      2 ALA2        0.0000 
      6 N         -12.2600    4.8700   24.1100 N.am      2 ALA2        0.0000 
      7 N         -11.5100    5.6700   23.0900 N.am      2 ALA2        0.0000 
      8 N         -12.7100    6.6400   25.1900 N.am      2 ALA2        0.0000 
      9 N         -11.6000    5.6400   25.2100 N.am      2 ALA2        0.0000 
     10 N         -11.9600    7.4500   24.1700 N.am      2 ALA2        0.0000 
     11 O         -10.8500    6.4400   24.1900 O.2       2 ALA2        0.0000 
     12 O         -11.2100    8.2500   23.1500 O.2       2 ALA2        0.0000 
     13 N         -12.0400    7.4100   26.2900 N.am      2 ALA2        0.0000 
     14 N         -11.2900    8.2200   25.2700 N.am      2 ALA2        0.0000 
     15 N         -10.5400    9.0200   24.2500 N.am      2 ALA2        0.0000 
     16 N         -10.6200    8.9900   26.3700 N.am      2 ALA2        0.0000 
     17 N          -9.8800    9.7900   25.3500 N.am      2 ALA2        0.0000 
     18 N          -9.1300   10.6000   24.3300 N.am      2 ALA2        0.0000 
     19 N          -9.5700   12.3700   25.4100 N.am      2 ALA2        0.0000 
     20 N          -8.4600   11.3700   25.4300 N.am      2 ALA2        0.0000 
     21 O          -8.5400   11.3300   27.5500 O.2       2 ALA2        0.0000 
     22 O          -7.7900   12.1400   26.5300 O.2       2 ALA2        0.0000 
     23 OD1        -8.8200   13.1800   24.3900 O.co2     3 ASP3        0.0000 
     24 OD1        -7.7100   12.1700   24.4100 O.co2     3 ASP3        0.0000 
     25 OD1        -8.0700   13.9800   23.3700 O.co2     3 ASP3        0.0000 
     26 OD1        -7.0400   12.9400   25.5100 O.co2     3 ASP3        0.0000 
     27 CZ        -12.5700    2.2900   24.0600 C.ar      4 PHE5        0.0000 
     28 CZ        -11.9000    3.0600   25.1600 C.ar      4 PHE5        0.0000 
     29 CZ        -10.4800    4.6300   25.2400 C.ar      4 PHE5        0.0000 
     30 CZ         -9.3700    3.6300   25.2600 C.ar      4 PHE5        0.0000 
     31 CZ         -9.7300    5.4400   24.2200 C.ar      4 PHE5        0.0000 
     32 CZ         -8.4000    6.9800   26.4200 C.ar      4 PHE5        0.0000 
     33 CZ         -8.7600    8.7900   25.3700 C.ar      4 PHE5        0.0000 
     34 CZ         -8.0900    9.5600   26.4800 C.ar      4 PHE5        0.0000 
     35 CA        -12.3400    4.8300   26.2300 C.3       5 GLY6        0.0000 
     36 CA        -11.2300    3.8300   26.2600 C.3       5 GLY6        0.0000 
     37 CA        -10.5600    4.6000   27.3600 C.3       5 GLY6        0.0000 
     38 CA         -9.4500    3.5900   27.3800 C.3       5 GLY6        0.0000 
     39 CA        -10.9300    6.4100   26.3100 C.3       5 GLY6        0.0000 
     40 CA         -9.8100    5.4000   26.3400 C.3       5 GLY6        0.0000 
     41 CA         -9.0600    6.2100   25.3200 C.3       5 GLY6        0.0000 
     42 CA         -9.4300    8.0200   24.2700 C.3       5 GLY6        0.0000 
     43 CA         -8.3100    7.0100   24.3000 C.3       5 GLY6        0.0000 
     44 CA        -11.3700    8.1800   27.3900 C.3       5 GLY6        0.0000 
     45 CA        -10.2600    7.1800   27.4100 C.3       5 GLY6        0.0000 
     46 CA         -9.1400    6.1700   27.4400 C.3       5 GLY6        0.0000 
     47 CA         -9.5100    7.9800   26.3900 C.3       5 GLY6        0.0000 
     48 CA         -8.0100    9.5900   24.3600 C.3       5 GLY6        0.0000 
     49 CA         -9.9600    9.7600   27.4700 C.3       5 GLY6        0.0000 
     50 CA         -8.8400    8.7500   27.4900 C.3       5 GLY6        0.0000 
     51 CA         -9.2100   10.5600   26.4500 C.3       5 GLY6        0.0000 
     52 DU        -10.1800    7.2100   25.2900 H         6 CUB7        0.0000 
     53 DU         -8.1600   13.9500   25.4900 H         6 CUB7        0.0000 
@<TRIPOS>BOND
@<TRIPOS>SUBSTRUCTURE
     1 SER1        1 GROUP   
     2 ALA2        5 GROUP   
     3 ASP3       23 GROUP   
     4 PHE5       27 GROUP   
     5 GLY6       35 GROUP   
     6 CUB7       52 GROUP   
@<TRIPOS>SET

