#    Name: 5yec_2_ATP_CAVITY_N1_8
#    Modification time : Fri May 22 19:18:42 2020

@<TRIPOS>MOLECULE
5yec_2_ATP_CAVITY_N1_8
  101     0     6     0     0
SMALL
NO_CHARGES


@<TRIPOS>ATOM
      1 OG        -19.0600  -31.8100  -20.0300 O.3       1 SER1        0.0000 
      2 OG        -25.6300  -23.4100  -11.1000 O.3       1 SER1        0.0000 
      3 OG        -24.7100  -24.3800  -11.7800 O.3       1 SER1        0.0000 
      4 OG        -25.2100  -22.3300  -12.0500 O.3       1 SER1        0.0000 
      5 N         -23.5400  -31.7500  -19.6100 N.am      2 ALA2        0.0000 
      6 N         -22.4400  -31.3500  -18.6600 N.am      2 ALA2        0.0000 
      7 N         -21.5100  -32.3200  -19.3400 N.am      2 ALA2        0.0000 
      8 N         -20.4100  -31.9200  -18.4000 N.am      2 ALA2        0.0000 
      9 N         -19.4800  -32.8900  -19.0800 N.am      2 ALA2        0.0000 
     10 N         -27.9200  -22.5600   -8.8000 N.am      2 ALA2        0.0000 
     11 N         -26.5600  -22.4400  -10.4300 N.am      2 ALA2        0.0000 
     12 N         -20.1400  -26.0800  -16.3900 N.am      2 ALA2        0.0000 
     13 O         -27.2500  -23.2400   -6.9000 O.2       2 ALA2        0.0000 
     14 O         -26.3200  -24.2000   -7.5800 O.2       2 ALA2        0.0000 
     15 O         -26.8200  -22.1600   -7.8600 O.2       2 ALA2        0.0000 
     16 O         -24.9600  -24.0900   -9.2100 O.2       2 ALA2        0.0000 
     17 N         -24.0400  -25.0600   -9.8900 N.am      2 ALA2        0.0000 
     18 N         -23.1100  -26.0200  -10.5600 N.am      2 ALA2        0.0000 
     19 O         -25.4600  -22.0500   -9.4800 O.2       2 ALA2        0.0000 
     20 N         -24.5400  -23.0100  -10.1600 N.am      2 ALA2        0.0000 
     21 N         -23.6100  -23.9800  -10.8400 N.am      2 ALA2        0.0000 
     22 N         -22.6800  -24.9500  -11.5100 N.am      2 ALA2        0.0000 
     23 O         -18.0400  -29.7700  -14.9000 O.2       2 ALA2        0.0000 
     24 O         -25.0400  -20.9700  -10.4400 O.2       2 ALA2        0.0000 
     25 N         -24.1100  -21.9400  -11.1100 N.am      2 ALA2        0.0000 
     26 N         -23.1800  -22.9000  -11.7900 N.am      2 ALA2        0.0000 
     27 O         -17.6200  -28.6900  -15.8500 O.2       2 ALA2        0.0000 
     28 N         -19.9700  -24.7200  -14.7700 N.am      2 ALA2        0.0000 
     29 N         -22.0100  -25.6300   -9.6200 N.am      2 ALA2        0.0000 
     30 N         -21.0800  -26.5900  -10.3000 N.am      2 ALA2        0.0000 
     31 N         -21.5800  -24.5500  -10.5700 N.am      2 ALA2        0.0000 
     32 O         -23.9400  -20.5800   -9.4900 O.2       2 ALA2        0.0000 
     33 N         -23.0100  -21.5400  -10.1700 N.am      2 ALA2        0.0000 
     34 N         -22.0800  -22.5100  -10.8500 N.am      2 ALA2        0.0000 
     35 O         -23.5100  -19.5000  -10.4500 O.2       2 ALA2        0.0000 
     36 N         -22.5800  -20.4600  -11.1200 N.am      2 ALA2        0.0000 
     37 N         -21.2300  -20.3500  -12.7500 N.am      2 ALA2        0.0000 
     38 OD1       -21.3400  -30.9600  -17.7200 O.co2     3 ASP3        0.0000 
     39 OD1       -19.3100  -31.5300  -17.4600 O.co2     3 ASP3        0.0000 
     40 OD1       -19.8100  -29.4900  -17.7300 O.co2     3 ASP3        0.0000 
     41 OD1       -18.6400  -32.2100  -15.5600 O.co2     3 ASP3        0.0000 
     42 OD1       -19.6400  -28.1200  -16.1100 O.co2     3 ASP3        0.0000 
     43 OD1       -18.7100  -29.0900  -16.7900 O.co2     3 ASP3        0.0000 
     44 OD1       -20.3300  -28.9200  -12.5900 O.co2     3 ASP3        0.0000 
     45 OD1       -18.4700  -30.8500  -13.9500 O.co2     3 ASP3        0.0000 
     46 OD1       -18.9700  -28.8100  -14.2200 O.co2     3 ASP3        0.0000 
     47 OD1       -19.2300  -28.5200  -11.6500 O.co2     3 ASP3        0.0000 
     48 OD1       -18.3000  -29.4900  -12.3300 O.co2     3 ASP3        0.0000 
     49 OD1       -19.7300  -26.4800  -11.9300 O.co2     3 ASP3        0.0000 
     50 OD1       -18.8000  -27.4500  -12.6000 O.co2     3 ASP3        0.0000 
     51 OD1       -17.8700  -28.4100  -13.2800 O.co2     3 ASP3        0.0000 
     52 OD1       -18.3700  -26.3700  -13.5500 O.co2     3 ASP3        0.0000 
     53 OD1       -18.6300  -26.0900  -10.9800 O.co2     3 ASP3        0.0000 
     54 NZ        -24.2100  -26.4200  -11.5000 N.4       4 LYS4        0.0000 
     55 NZ        -23.2800  -27.3800  -12.1800 N.4       4 LYS4        0.0000 
     56 NZ        -23.7800  -25.3400  -12.4600 N.4       4 LYS4        0.0000 
     57 NZ        -23.3500  -24.2600  -13.4100 N.4       4 LYS4        0.0000 
     58 NZ        -22.4200  -25.2300  -14.0800 N.4       4 LYS4        0.0000 
     59 NZ        -21.5000  -26.1900  -14.7600 N.4       4 LYS4        0.0000 
     60 NZ        -20.5700  -27.1600  -15.4400 N.4       4 LYS4        0.0000 
     61 NZ        -22.1800  -26.9900  -11.2400 N.4       4 LYS4        0.0000 
     62 NZ        -21.2500  -27.9500  -11.9200 N.4       4 LYS4        0.0000 
     63 NZ        -21.7500  -25.9100  -12.1900 N.4       4 LYS4        0.0000 
     64 NZ        -20.8300  -26.8800  -12.8700 N.4       4 LYS4        0.0000 
     65 NZ        -19.9000  -27.8400  -13.5400 N.4       4 LYS4        0.0000 
     66 NZ        -20.4000  -25.8000  -13.8200 N.4       4 LYS4        0.0000 
     67 NZ        -19.4700  -26.7600  -14.5000 N.4       4 LYS4        0.0000 
     68 NZ        -20.6500  -25.5200  -11.2500 N.4       4 LYS4        0.0000 
     69 NZ        -21.1500  -23.4700  -11.5200 N.4       4 LYS4        0.0000 
     70 NZ        -20.2300  -24.4400  -12.2000 N.4       4 LYS4        0.0000 
     71 NZ        -19.3000  -25.4000  -12.8800 N.4       4 LYS4        0.0000 
     72 NZ        -20.7300  -22.3900  -12.4800 N.4       4 LYS4        0.0000 
     73 CA        -22.0100  -30.2800  -19.6200 C.3       5 GLY6        0.0000 
     74 CA        -21.0800  -31.2400  -20.2900 C.3       5 GLY6        0.0000 
     75 CA        -20.9100  -29.8800  -18.6700 C.3       5 GLY6        0.0000 
     76 CA        -18.8900  -30.4500  -18.4100 C.3       5 GLY6        0.0000 
     77 CA        -27.4200  -24.6000   -8.5200 C.3       5 GLY6        0.0000 
     78 CA        -26.4900  -25.5700   -9.2000 C.3       5 GLY6        0.0000 
     79 CA        -26.9900  -23.5200   -9.4700 C.3       5 GLY6        0.0000 
     80 CA        -26.0600  -24.4900  -10.1500 C.3       5 GLY6        0.0000 
     81 CA        -26.1300  -21.3700  -11.3800 C.3       5 GLY6        0.0000 
     82 CA        -24.2800  -23.3000  -12.7300 C.3       5 GLY6        0.0000 
     83 CA        -18.2900  -28.0100  -17.7400 C.3       5 GLY6        0.0000 
     84 CA        -18.5400  -27.7300  -15.1700 C.3       5 GLY6        0.0000 
     85 CA        -23.6800  -20.8600  -12.0600 C.3       5 GLY6        0.0000 
     86 CA        -22.7500  -21.8200  -12.7400 C.3       5 GLY6        0.0000 
     87 CA        -21.8300  -22.7900  -13.4200 C.3       5 GLY6        0.0000 
     88 CA        -20.9000  -23.7600  -14.0900 C.3       5 GLY6        0.0000 
     89 CA        -19.0400  -25.6900  -15.4500 C.3       5 GLY6        0.0000 
     90 CA        -17.4400  -27.3300  -14.2300 C.3       5 GLY6        0.0000 
     91 CA        -21.6500  -21.4300  -11.8000 C.3       5 GLY6        0.0000 
     92 CA        -22.1500  -19.3900  -12.0700 C.3       5 GLY6        0.0000 
     93 CA        -19.9800  -26.2000   -9.3600 C.3       5 GLY6        0.0000 
     94 CA        -21.4800  -20.0700  -10.1800 C.3       5 GLY6        0.0000 
     95 DU        -19.9800  -30.8500  -19.3500 H         6 CUB7        0.0000 
     96 DU        -18.3900  -32.4900  -18.1300 H         6 CUB7        0.0000 
     97 DU        -25.1300  -25.4500  -10.8300 H         6 CUB7        0.0000 
     98 DU        -19.2100  -27.0500  -17.0700 H         6 CUB7        0.0000 
     99 DU        -22.2500  -23.8700  -12.4700 H         6 CUB7        0.0000 
    100 DU        -21.3300  -24.8300  -13.1400 H         6 CUB7        0.0000 
    101 DU        -20.1500  -27.5600  -10.9700 H         6 CUB7        0.0000 
@<TRIPOS>BOND
@<TRIPOS>SUBSTRUCTURE
     1 SER1        1 GROUP   
     2 ALA2        5 GROUP   
     3 ASP3       38 GROUP   
     4 LYS4       54 GROUP   
     5 GLY6       73 GROUP   
     6 CUB7       95 GROUP   
@<TRIPOS>SET

