#    Name: 5yec_2_ATP
#    Modification time : Fri May 22 19:18:41 2020

@<TRIPOS>MOLECULE
5yec_2_ATP
   31    33     1     0     1
SMALL
NO_CHARGES


@<TRIPOS>ATOM
      1 PG        -18.2540  -32.4380  -14.3000 P.3       1 ATP702      0.0000 
      2 O1G       -19.4060  -32.0390  -15.1880 O.co2     1 ATP702      0.0000 
      3 O2G       -17.1430  -33.1630  -15.0260 O.co2     1 ATP702      0.0000 
      4 O3G       -18.6720  -33.0740  -12.9970 O.co2     1 ATP702      0.0000 
      5 PB        -18.3590  -29.7680  -13.2850 P.3       1 ATP702      0.0000 
      6 O1B       -19.8500  -30.0030  -13.3250 O.co2     1 ATP702      0.0000 
      7 O2B       -17.6960  -29.4260  -11.9740 O.co2     1 ATP702      0.0000 
      8 O3B       -17.5650  -31.0340  -13.9000 O.3       1 ATP702      0.0000 
      9 PA        -18.6040  -28.3660  -15.7880 P.3       1 ATP702      0.0000 
     10 O1A       -17.4850  -28.5360  -16.7810 O.co2     1 ATP702      0.0000 
     11 O2A       -19.8470  -29.2020  -15.9570 O.co2     1 ATP702      0.0000 
     12 O3A       -17.9300  -28.6170  -14.3350 O.3       1 ATP702      0.0000 
     13 O5'       -18.9690  -26.7960  -15.7940 O.3       1 ATP702      0.0000 
     14 C5'       -20.0980  -26.2500  -15.1200 C.3       1 ATP702      0.0000 
     15 C4'       -19.5540  -25.2460  -14.1170 C.3       1 ATP702      0.0000 
     16 O4'       -20.5120  -24.2270  -13.8260 O.3       1 ATP702      0.0000 
     17 C3'       -19.2180  -25.9490  -12.8180 C.3       1 ATP702      0.0000 
     18 O3'       -17.9030  -25.5340  -12.4480 O.3       1 ATP702      0.0000 
     19 C2'       -20.2480  -25.4460  -11.8220 C.3       1 ATP702      0.0000 
     20 O2'       -19.6610  -25.2700  -10.5320 O.3       1 ATP702      0.0000 
     21 C1'       -20.7200  -24.1300  -12.4170 C.3       1 ATP702      0.0000 
     22 N9        -22.1640  -23.8920  -12.2010 N.pl3     1 ATP702      0.0000 
     23 C8        -23.1580  -24.6940  -12.6250 C.2       1 ATP702      0.0000 
     24 N7        -24.3690  -24.1890  -12.2840 N.2       1 ATP702      0.0000 
     25 C5        -24.1520  -23.0320  -11.6290 C.ar      1 ATP702      0.0000 
     26 C6        -24.9980  -21.9930  -10.9970 C.ar      1 ATP702      0.0000 
     27 N6        -26.3490  -22.1040  -11.0020 N.pl3     1 ATP702      0.0000 
     28 N1        -24.3770  -20.9380  -10.4220 N.ar      1 ATP702      0.0000 
     29 C2        -23.0350  -20.8230  -10.4120 C.ar      1 ATP702      0.0000 
     30 N3        -22.2040  -21.7280  -10.9650 N.ar      1 ATP702      0.0000 
     31 C4        -22.6950  -22.8360  -11.5770 C.ar      1 ATP702      0.0000 
@<TRIPOS>BOND
     1    1    2 ar   
     2    1    3 ar   
     3    1    4 ar   
     4    1    8 1    
     5    5    6 ar   
     6    5    7 ar   
     7    5    8 1    
     8    5   12 1    
     9    9   10 ar   
    10    9   11 ar   
    11    9   12 1    
    12    9   13 1    
    13   13   14 1    
    14   14   15 1    
    15   15   16 1    
    16   15   17 1    
    17   16   21 1    
    18   17   18 1    
    19   17   19 1    
    20   19   20 1    
    21   19   21 1    
    22   21   22 1    
    23   22   23 1    
    24   22   31 1    
    25   23   24 2    
    26   24   25 1    
    27   25   26 ar   
    28   25   31 ar   
    29   26   27 1    
    30   26   28 ar   
    31   28   29 ar   
    32   29   30 ar   
    33   30   31 ar   
@<TRIPOS>SUBSTRUCTURE
     1 ATP702      1 GROUP   
@<TRIPOS>SET
ATOM$ORANGE STATIC     ATOMS   COLORGROUP SYSTEM 
20 14 14 15 15 17 17 19 19 21 21 23 23 25 25 26 26 29 \
29 31 31 

