#    Name: 6dft_6_NAD
#    Modification time : Fri May 22 19:30:08 2020

@<TRIPOS>MOLECULE
6dft_6_NAD
   44    48     1     0     1
SMALL
NO_CHARGES


@<TRIPOS>ATOM
      1 PA        -48.6680   52.8120  355.8660 P.3       1 NAD500      0.0000 
      2 O1A       -47.7520   52.6380  357.0600 O.co2     1 NAD500      0.0000 
      3 O2A       -48.8800   54.2830  355.6100 O.co2     1 NAD500      0.0000 
      4 O5B       -50.1490   52.0820  356.1590 O.3       1 NAD500      0.0000 
      5 C5B       -50.7650   52.2260  357.4330 C.3       1 NAD500      0.0000 
      6 C4B       -52.1890   51.7750  357.2850 C.3       1 NAD500      0.0000 
      7 O4B       -52.2640   50.7830  356.1710 O.3       1 NAD500      0.0000 
      8 C3B       -52.6340   51.1070  358.5140 C.3       1 NAD500      0.0000 
      9 O3B       -53.4980   51.9940  359.2750 O.3       1 NAD500      0.0000 
     10 C2B       -53.3930   49.9170  358.1060 C.3       1 NAD500      0.0000 
     11 O2B       -54.8240   50.2200  358.1590 O.3       1 NAD500      0.0000 
     12 C1B       -53.0060   49.6070  356.7270 C.3       1 NAD500      0.0000 
     13 N9A       -52.1380   48.4630  356.7360 N.pl3     1 NAD500      0.0000 
     14 C8A       -50.8810   48.5620  356.7350 C.2       1 NAD500      0.0000 
     15 N7A       -50.3710   47.3200  356.7450 N.2       1 NAD500      0.0000 
     16 C5A       -51.4260   46.4330  356.7530 C.ar      1 NAD500      0.0000 
     17 C6A       -51.5820   45.0470  356.7640 C.ar      1 NAD500      0.0000 
     18 N6A       -50.4060   44.1810  356.7710 N.pl3     1 NAD500      0.0000 
     19 N1A       -52.7890   44.5360  356.7690 N.ar      1 NAD500      0.0000 
     20 C2A       -53.8610   45.3190  356.7630 C.ar      1 NAD500      0.0000 
     21 N3A       -53.7750   46.6410  356.7530 N.ar      1 NAD500      0.0000 
     22 C4A       -52.5970   47.2330  356.7470 C.ar      1 NAD500      0.0000 
     23 O3        -47.9790   52.1150  354.4970 O.3       1 NAD500      0.0000 
     24 PN        -47.1620   53.0100  353.3540 P.3       1 NAD500      0.0000 
     25 O1N       -48.0640   54.0890  352.8220 O.co2     1 NAD500      0.0000 
     26 O2N       -46.7180   52.1260  352.2060 O.co2     1 NAD500      0.0000 
     27 O5D       -45.8150   53.7190  354.0900 O.3       1 NAD500      0.0000 
     28 C5D       -45.8270   55.1490  354.3330 C.3       1 NAD500      0.0000 
     29 C4D       -44.5930   55.7570  353.7210 C.3       1 NAD500      0.0000 
     30 O4D       -43.3620   55.1050  354.3280 O.3       1 NAD500      0.0000 
     31 C3D       -44.5880   55.4910  352.2760 C.3       1 NAD500      0.0000 
     32 O3D       -44.4320   56.7410  351.5440 O.3       1 NAD500      0.0000 
     33 C2D       -43.4530   54.6060  351.9910 C.3       1 NAD500      0.0000 
     34 O2D       -42.8230   55.0150  350.7530 O.3       1 NAD500      0.0000 
     35 C1D       -42.5230   54.7680  353.1200 C.3       1 NAD500      0.0000 
     36 N1N       -41.7900   53.5680  353.3490 N.pl3     1 NAD500      0.0000 
     37 C2N       -42.3130   52.5720  354.1270 C.ar      1 NAD500      0.0000 
     38 C3N       -41.5640   51.3920  354.3410 C.ar      1 NAD500      0.0000 
     39 C7N       -42.1270   50.2620  355.2070 C.2       1 NAD500      0.0000 
     40 O7N       -41.6640   49.1800  355.1370 O.2       1 NAD500      0.0000 
     41 N7N       -43.2350   50.5210  356.1250 N.am      1 NAD500      0.0000 
     42 C4N       -40.3320   51.2610  353.7770 C.ar      1 NAD500      0.0000 
     43 C5N       -39.8260   52.2680  353.0050 C.ar      1 NAD500      0.0000 
     44 C6N       -40.5730   53.4250  352.8000 C.ar      1 NAD500      0.0000 
@<TRIPOS>BOND
     1    1    2 ar   
     2    1    3 ar   
     3    1    4 1    
     4    1   23 1    
     5    4    5 1    
     6    5    6 1    
     7    6    7 1    
     8    6    8 1    
     9    7   12 1    
    10    8    9 1    
    11    8   10 1    
    12   10   11 1    
    13   10   12 1    
    14   12   13 1    
    15   13   14 1    
    16   13   22 1    
    17   14   15 2    
    18   15   16 1    
    19   16   17 ar   
    20   16   22 ar   
    21   17   18 1    
    22   17   19 ar   
    23   19   20 ar   
    24   20   21 ar   
    25   21   22 ar   
    26   23   24 1    
    27   24   25 ar   
    28   24   26 ar   
    29   24   27 1    
    30   27   28 1    
    31   28   29 1    
    32   29   30 1    
    33   29   31 1    
    34   30   35 1    
    35   31   32 1    
    36   31   33 1    
    37   33   34 1    
    38   33   35 1    
    39   35   36 1    
    40   36   37 ar   
    41   36   44 ar   
    42   37   38 ar   
    43   38   39 1    
    44   38   42 ar   
    45   39   40 2    
    46   39   41 am   
    47   42   43 ar   
    48   43   44 ar   
@<TRIPOS>SUBSTRUCTURE
     1 NAD500      1 GROUP   
@<TRIPOS>SET
ATOM$ORANGE STATIC     ATOMS   COLORGROUP SYSTEM 
42 5 5 6 6 8 8 10 10 12 12 14 14 16 16 17 17 20 \
20 22 22 28 28 29 29 31 31 33 33 35 35 37 37 38 38 39 \
39 42 42 43 43 44 44 

