#    Name: 6dft_5_NAD
#    Modification time : Fri May 22 19:29:51 2020

@<TRIPOS>MOLECULE
6dft_5_NAD
   44    48     1     0     1
SMALL
NO_CHARGES


@<TRIPOS>ATOM
      1 PA        -54.0990   57.2980  356.7390 P.3       1 NAD500      0.0000 
      2 O1A       -55.5470   57.6190  356.4330 O.co2     1 NAD500      0.0000 
      3 O2A       -53.5660   56.3800  355.6650 O.co2     1 NAD500      0.0000 
      4 O5B       -53.9910   56.5360  358.2280 O.3       1 NAD500      0.0000 
      5 C5B       -52.8440   55.7370  358.4900 C.3       1 NAD500      0.0000 
      6 C4B       -52.6780   55.6310  359.9760 C.3       1 NAD500      0.0000 
      7 O4B       -52.5170   57.0030  360.5420 O.3       1 NAD500      0.0000 
      8 C3B       -53.8970   55.0430  360.5490 C.3       1 NAD500      0.0000 
      9 O3B       -53.6620   53.6600  360.9320 O.3       1 NAD500      0.0000 
     10 C2B       -54.2440   55.8270  361.7430 C.3       1 NAD500      0.0000 
     11 O2B       -53.8960   55.0620  362.9400 O.3       1 NAD500      0.0000 
     12 C1B       -53.4610   57.0650  361.7040 C.3       1 NAD500      0.0000 
     13 N9A       -54.3710   58.1710  361.5660 N.pl3     1 NAD500      0.0000 
     14 C8A       -54.8190   58.5740  360.4590 C.2       1 NAD500      0.0000 
     15 N7A       -55.6370   59.6150  360.7000 N.2       1 NAD500      0.0000 
     16 C5A       -55.6600   59.8230  362.0650 C.ar      1 NAD500      0.0000 
     17 C6A       -56.2820   60.7070  362.9470 C.ar      1 NAD500      0.0000 
     18 N6A       -57.1760   61.7430  362.4350 N.pl3     1 NAD500      0.0000 
     19 N1A       -56.0540   60.5950  364.2350 N.ar      1 NAD500      0.0000 
     20 C2A       -55.2440   59.6550  364.7090 C.ar      1 NAD500      0.0000 
     21 N3A       -54.6270   58.7910  363.9200 N.ar      1 NAD500      0.0000 
     22 C4A       -54.8020   58.8360  362.6130 C.ar      1 NAD500      0.0000 
     23 O3        -53.1980   58.7180  356.7420 O.3       1 NAD500      0.0000 
     24 PN        -52.8520   59.5590  355.3470 P.3       1 NAD500      0.0000 
     25 O1N       -51.8270   58.7930  354.5590 O.co2     1 NAD500      0.0000 
     26 O2N       -52.2960   60.9260  355.6880 O.co2     1 NAD500      0.0000 
     27 O5D       -54.2490   59.7340  354.4010 O.3       1 NAD500      0.0000 
     28 C5D       -54.7110   58.6130  353.6000 C.3       1 NAD500      0.0000 
     29 C4D       -54.3060   58.7680  352.1520 C.3       1 NAD500      0.0000 
     30 O4D       -55.5410   59.0420  351.3040 O.3       1 NAD500      0.0000 
     31 C3D       -53.3730   59.8940  351.9910 C.3       1 NAD500      0.0000 
     32 O3D       -52.0590   59.4150  351.5740 O.3       1 NAD500      0.0000 
     33 C2D       -53.9220   60.8200  350.9930 C.3       1 NAD500      0.0000 
     34 O2D       -53.1360   60.7150  349.7800 O.3       1 NAD500      0.0000 
     35 C1D       -55.3160   60.4150  350.7160 C.3       1 NAD500      0.0000 
     36 N1N       -56.2530   61.3420  351.2730 N.pl3     1 NAD500      0.0000 
     37 C2N       -57.1700   61.9330  350.4540 C.ar      1 NAD500      0.0000 
     38 C3N       -58.1090   62.8410  350.9920 C.ar      1 NAD500      0.0000 
     39 C7N       -59.1370   63.5080  350.0790 C.2       1 NAD500      0.0000 
     40 O7N       -60.2700   63.5390  350.3990 O.2       1 NAD500      0.0000 
     41 N7N       -58.7100   64.1060  348.8150 N.am      1 NAD500      0.0000 
     42 C4N       -58.1010   63.1270  352.3210 C.ar      1 NAD500      0.0000 
     43 C5N       -57.1820   62.5270  353.1310 C.ar      1 NAD500      0.0000 
     44 C6N       -56.2610   61.6320  352.5890 C.ar      1 NAD500      0.0000 
@<TRIPOS>BOND
     1    1    2 ar   
     2    1    3 ar   
     3    1    4 1    
     4    1   23 1    
     5    4    5 1    
     6    5    6 1    
     7    6    7 1    
     8    6    8 1    
     9    7   12 1    
    10    8    9 1    
    11    8   10 1    
    12   10   11 1    
    13   10   12 1    
    14   12   13 1    
    15   13   14 1    
    16   13   22 1    
    17   14   15 2    
    18   15   16 1    
    19   16   17 ar   
    20   16   22 ar   
    21   17   18 1    
    22   17   19 ar   
    23   19   20 ar   
    24   20   21 ar   
    25   21   22 ar   
    26   23   24 1    
    27   24   25 ar   
    28   24   26 ar   
    29   24   27 1    
    30   27   28 1    
    31   28   29 1    
    32   29   30 1    
    33   29   31 1    
    34   30   35 1    
    35   31   32 1    
    36   31   33 1    
    37   33   34 1    
    38   33   35 1    
    39   35   36 1    
    40   36   37 ar   
    41   36   44 ar   
    42   37   38 ar   
    43   38   39 1    
    44   38   42 ar   
    45   39   40 2    
    46   39   41 am   
    47   42   43 ar   
    48   43   44 ar   
@<TRIPOS>SUBSTRUCTURE
     1 NAD500      1 GROUP   
@<TRIPOS>SET
ATOM$ORANGE STATIC     ATOMS   COLORGROUP SYSTEM 
42 5 5 6 6 8 8 10 10 12 12 14 14 16 16 17 17 20 \
20 22 22 28 28 29 29 31 31 33 33 35 35 37 37 38 38 39 \
39 42 42 43 43 44 44 

