#    Name: 6dft_4_NAD
#    Modification time : Fri May 22 19:29:33 2020

@<TRIPOS>MOLECULE
6dft_4_NAD
   44    48     1     0     1
SMALL
NO_CHARGES


@<TRIPOS>ATOM
      1 PA        -28.9230   13.1070  310.5670 P.3       1 NAD500      0.0000 
      2 O1A       -27.7580   12.3510  309.9680 O.co2     1 NAD500      0.0000 
      3 O2A       -29.2210   12.5420  311.9280 O.co2     1 NAD500      0.0000 
      4 O5B       -30.3000   12.9510  309.6240 O.3       1 NAD500      0.0000 
      5 C5B       -31.4760   12.4940  310.2800 C.3       1 NAD500      0.0000 
      6 C4B       -32.6630   13.1100  309.6050 C.3       1 NAD500      0.0000 
      7 O4B       -32.2720   14.4120  308.9840 O.3       1 NAD500      0.0000 
      8 C3B       -33.1490   12.2430  308.5220 C.3       1 NAD500      0.0000 
      9 O3B       -34.2050   11.3720  308.9990 O.3       1 NAD500      0.0000 
     10 C2B       -33.7050   13.1520  307.5170 C.3       1 NAD500      0.0000 
     11 O2B       -35.1260   13.3710  307.8170 O.3       1 NAD500      0.0000 
     12 C1B       -32.9380   14.3970  307.6360 C.3       1 NAD500      0.0000 
     13 N9A       -31.9470   14.4400  306.5910 N.pl3     1 NAD500      0.0000 
     14 C8A       -30.8070   13.9180  306.7090 C.2       1 NAD500      0.0000 
     15 N7A       -30.1240   14.1340  305.5730 N.2       1 NAD500      0.0000 
     16 C5A       -30.9490   14.8420  304.7260 C.ar      1 NAD500      0.0000 
     17 C6A       -30.8610   15.3660  303.4410 C.ar      1 NAD500      0.0000 
     18 N6A       -29.6250   15.1880  302.6840 N.pl3     1 NAD500      0.0000 
     19 N1A       -31.8890   16.0080  302.9380 N.ar      1 NAD500      0.0000 
     20 C2A       -33.0080   16.1630  303.6370 C.ar      1 NAD500      0.0000 
     21 N3A       -33.1470   15.6860  304.8620 N.ar      1 NAD500      0.0000 
     22 C4A       -32.1610   15.0300  305.4370 C.ar      1 NAD500      0.0000 
     23 O3        -28.5060   14.7230  310.7480 O.3       1 NAD500      0.0000 
     24 PN        -27.5870   15.2440  312.0300 P.3       1 NAD500      0.0000 
     25 O1N       -28.4740   15.4450  313.2250 O.co2     1 NAD500      0.0000 
     26 O2N       -26.8740   16.5380  311.7020 O.co2     1 NAD500      0.0000 
     27 O5D       -26.4410   14.0490  312.3500 O.3       1 NAD500      0.0000 
     28 C5D       -26.5500   13.2560  313.5550 C.3       1 NAD500      0.0000 
     29 C4D       -25.2400   13.3710  314.2820 C.3       1 NAD500      0.0000 
     30 O4D       -24.1240   12.8950  313.3690 O.3       1 NAD500      0.0000 
     31 C3D       -24.9950   14.7840  314.6150 C.3       1 NAD500      0.0000 
     32 O3D       -25.0010   14.9900  316.0600 O.3       1 NAD500      0.0000 
     33 C2D       -23.6880   15.1570  314.0640 C.3       1 NAD500      0.0000 
     34 O2D       -22.9100   15.8180  315.0950 O.3       1 NAD500      0.0000 
     35 C1D       -23.0340   13.9080  313.6360 C.3       1 NAD500      0.0000 
     36 N1N       -22.2660   14.1280  312.4590 N.pl3     1 NAD500      0.0000 
     37 C2N       -22.7140   13.6600  311.2550 C.ar      1 NAD500      0.0000 
     38 C3N       -21.9500   13.8760  310.0880 C.ar      1 NAD500      0.0000 
     39 C7N       -22.4350   13.3550  308.7330 C.2       1 NAD500      0.0000 
     40 O7N       -22.8760   14.0960  307.9330 O.2       1 NAD500      0.0000 
     41 N7N       -22.3460   11.9320  308.4090 N.am      1 NAD500      0.0000 
     42 C4N       -20.7710   14.5480  310.1790 C.ar      1 NAD500      0.0000 
     43 C5N       -20.3370   15.0070  311.3910 C.ar      1 NAD500      0.0000 
     44 C6N       -21.1010   14.7890  312.5350 C.ar      1 NAD500      0.0000 
@<TRIPOS>BOND
     1    1    2 ar   
     2    1    3 ar   
     3    1    4 1    
     4    1   23 1    
     5    4    5 1    
     6    5    6 1    
     7    6    7 1    
     8    6    8 1    
     9    7   12 1    
    10    8    9 1    
    11    8   10 1    
    12   10   11 1    
    13   10   12 1    
    14   12   13 1    
    15   13   14 1    
    16   13   22 1    
    17   14   15 2    
    18   15   16 1    
    19   16   17 ar   
    20   16   22 ar   
    21   17   18 1    
    22   17   19 ar   
    23   19   20 ar   
    24   20   21 ar   
    25   21   22 ar   
    26   23   24 1    
    27   24   25 ar   
    28   24   26 ar   
    29   24   27 1    
    30   27   28 1    
    31   28   29 1    
    32   29   30 1    
    33   29   31 1    
    34   30   35 1    
    35   31   32 1    
    36   31   33 1    
    37   33   34 1    
    38   33   35 1    
    39   35   36 1    
    40   36   37 ar   
    41   36   44 ar   
    42   37   38 ar   
    43   38   39 1    
    44   38   42 ar   
    45   39   40 2    
    46   39   41 am   
    47   42   43 ar   
    48   43   44 ar   
@<TRIPOS>SUBSTRUCTURE
     1 NAD500      1 GROUP   
@<TRIPOS>SET
ATOM$ORANGE STATIC     ATOMS   COLORGROUP SYSTEM 
42 5 5 6 6 8 8 10 10 12 12 14 14 16 16 17 17 20 \
20 22 22 28 28 29 29 31 31 33 33 35 35 37 37 38 38 39 \
39 42 42 43 43 44 44 

