#    Name: 6dft_12_NAD
#    Modification time : Fri May 22 19:31:48 2020

@<TRIPOS>MOLECULE
6dft_12_NAD
   44    48     1     0     1
SMALL
NO_CHARGES


@<TRIPOS>ATOM
      1 PA        -21.5190   91.7730  296.9390 P.3       1 NAD500      0.0000 
      2 O1A       -20.4390   92.4270  297.7770 O.co2     1 NAD500      0.0000 
      3 O2A       -22.8120   91.7750  297.7180 O.co2     1 NAD500      0.0000 
      4 O5B       -21.0860   90.1950  296.5710 O.3       1 NAD500      0.0000 
      5 C5B       -21.5180   89.1590  297.4430 C.3       1 NAD500      0.0000 
      6 C4B       -22.2600   88.1250  296.6500 C.3       1 NAD500      0.0000 
      7 O4B       -22.5720   88.6280  295.2780 O.3       1 NAD500      0.0000 
      8 C3B       -21.4090   86.9420  296.4880 C.3       1 NAD500      0.0000 
      9 O3B       -21.6530   86.0050  297.5740 O.3       1 NAD500      0.0000 
     10 C2B       -21.7840   86.3590  295.1910 C.3       1 NAD500      0.0000 
     11 O2B       -22.8250   85.3480  295.3920 O.3       1 NAD500      0.0000 
     12 C1B       -22.3160   87.4560  294.3730 C.3       1 NAD500      0.0000 
     13 N9A       -21.3620   87.8270  293.3590 N.pl3     1 NAD500      0.0000 
     14 C8A       -20.7140   88.9090  293.4020 C.2       1 NAD500      0.0000 
     15 N7A       -19.9160   88.9590  292.3210 N.2       1 NAD500      0.0000 
     16 C5A       -20.1230   87.8060  291.5930 C.ar      1 NAD500      0.0000 
     17 C6A       -19.6280   87.2580  290.4090 C.ar      1 NAD500      0.0000 
     18 N6A       -18.6220   87.9810  289.6320 N.pl3     1 NAD500      0.0000 
     19 N1A       -20.0740   86.0910  290.0070 N.ar      1 NAD500      0.0000 
     20 C2A       -20.9870   85.4300  290.7080 C.ar      1 NAD500      0.0000 
     21 N3A       -21.4930   85.9020  291.8400 N.ar      1 NAD500      0.0000 
     22 C4A       -21.0980   87.0680  292.3160 C.ar      1 NAD500      0.0000 
     23 O3        -21.7240   92.6390  295.5120 O.3       1 NAD500      0.0000 
     24 PN        -22.2940   94.2020  295.4920 P.3       1 NAD500      0.0000 
     25 O1N       -23.6130   94.2530  296.2100 O.co2     1 NAD500      0.0000 
     26 O2N       -22.4940   94.6600  294.0630 O.co2     1 NAD500      0.0000 
     27 O5D       -21.1880   95.2120  296.2790 O.3       1 NAD500      0.0000 
     28 C5D       -21.4870   95.6490  297.6280 C.3       1 NAD500      0.0000 
     29 C4D       -21.6750   97.1430  297.6260 C.3       1 NAD500      0.0000 
     30 O4D       -20.3920   97.8330  297.1960 O.3       1 NAD500      0.0000 
     31 C3D       -22.7240   97.5140  296.6670 C.3       1 NAD500      0.0000 
     32 O3D       -23.9310   97.9210  297.3760 O.3       1 NAD500      0.0000 
     33 C2D       -22.2250   98.6310  295.8540 C.3       1 NAD500      0.0000 
     34 O2D       -23.1410   99.7490  295.9620 O.3       1 NAD500      0.0000 
     35 C1D       -20.9020   99.0050  296.3890 C.3       1 NAD500      0.0000 
     36 N1N       -19.9980   99.2900  295.3260 N.pl3     1 NAD500      0.0000 
     37 C2N       -19.2070   98.2980  294.8200 C.ar      1 NAD500      0.0000 
     38 C3N       -18.3090   98.5840  293.7670 C.ar      1 NAD500      0.0000 
     39 C7N       -17.4210   97.4810  293.1880 C.2       1 NAD500      0.0000 
     40 O7N       -16.6580   97.7310  292.3240 O.2       1 NAD500      0.0000 
     41 N7N       -17.5160   96.1150  293.7030 N.am      1 NAD500      0.0000 
     42 C4N       -18.2370   99.8490  293.2700 C.ar      1 NAD500      0.0000 
     43 C5N       -19.0320  100.8310  293.7910 C.ar      1 NAD500      0.0000 
     44 C6N       -19.9150  100.5350  294.8280 C.ar      1 NAD500      0.0000 
@<TRIPOS>BOND
     1    1    2 ar   
     2    1    3 ar   
     3    1    4 1    
     4    1   23 1    
     5    4    5 1    
     6    5    6 1    
     7    6    7 1    
     8    6    8 1    
     9    7   12 1    
    10    8    9 1    
    11    8   10 1    
    12   10   11 1    
    13   10   12 1    
    14   12   13 1    
    15   13   14 1    
    16   13   22 1    
    17   14   15 2    
    18   15   16 1    
    19   16   17 ar   
    20   16   22 ar   
    21   17   18 1    
    22   17   19 ar   
    23   19   20 ar   
    24   20   21 ar   
    25   21   22 ar   
    26   23   24 1    
    27   24   25 ar   
    28   24   26 ar   
    29   24   27 1    
    30   27   28 1    
    31   28   29 1    
    32   29   30 1    
    33   29   31 1    
    34   30   35 1    
    35   31   32 1    
    36   31   33 1    
    37   33   34 1    
    38   33   35 1    
    39   35   36 1    
    40   36   37 ar   
    41   36   44 ar   
    42   37   38 ar   
    43   38   39 1    
    44   38   42 ar   
    45   39   40 2    
    46   39   41 am   
    47   42   43 ar   
    48   43   44 ar   
@<TRIPOS>SUBSTRUCTURE
     1 NAD500      1 GROUP   
@<TRIPOS>SET
ATOM$ORANGE STATIC     ATOMS   COLORGROUP SYSTEM 
42 5 5 6 6 8 8 10 10 12 12 14 14 16 16 17 17 20 \
20 22 22 28 28 29 29 31 31 33 33 35 35 37 37 38 38 39 \
39 42 42 43 43 44 44 

