#    Name: 6dft_9_NAD
#    Modification time : Fri May 22 19:30:57 2020

@<TRIPOS>MOLECULE
6dft_9_NAD
   44    48     1     0     1
SMALL
NO_CHARGES


@<TRIPOS>ATOM
      1 PA        -11.5190   65.6060  296.2460 P.3       1 NAD500      0.0000 
      2 O1A       -12.8220   64.9020  296.5670 O.co2     1 NAD500      0.0000 
      3 O2A       -10.7960   65.9330  297.5300 O.co2     1 NAD500      0.0000 
      4 O5B       -11.8470   67.0200  295.4140 O.3       1 NAD500      0.0000 
      5 C5B       -12.2520   68.1190  296.2090 C.3       1 NAD500      0.0000 
      6 C4B       -11.4130   69.3090  295.8670 C.3       1 NAD500      0.0000 
      7 O4B       -11.0750   69.2900  294.4120 O.3       1 NAD500      0.0000 
      8 C3B       -12.2410   70.4840  296.1420 C.3       1 NAD500      0.0000 
      9 O3B       -11.4960   71.4090  296.9850 O.3       1 NAD500      0.0000 
     10 C2B       -12.6390   71.0630  294.8420 C.3       1 NAD500      0.0000 
     11 O2B       -12.2930   72.4810  294.7940 O.3       1 NAD500      0.0000 
     12 C1B       -11.9240   70.3480  293.7770 C.3       1 NAD500      0.0000 
     13 N9A       -12.8670   69.7440  292.8710 N.pl3     1 NAD500      0.0000 
     14 C8A       -13.2700   68.5540  292.9950 C.2       1 NAD500      0.0000 
     15 N7A       -14.1320   68.2990  291.9960 N.2       1 NAD500      0.0000 
     16 C5A       -14.2320   69.4410  291.2300 C.ar      1 NAD500      0.0000 
     17 C6A       -14.9320   69.8250  290.0890 C.ar      1 NAD500      0.0000 
     18 N6A       -15.8250   68.8710  289.4350 N.pl3     1 NAD500      0.0000 
     19 N1A       -14.7790   71.0410  289.6200 N.ar      1 NAD500      0.0000 
     20 C2A       -13.9660   71.9040  290.2190 C.ar      1 NAD500      0.0000 
     21 N3A       -13.2740   71.5930  291.3060 N.ar      1 NAD500      0.0000 
     22 C4A       -13.3730   70.3910  291.8420 C.ar      1 NAD500      0.0000 
     23 O3        -10.5820   64.5980  295.2850 O.3       1 NAD500      0.0000 
     24 PN        -10.9900   62.9990  295.0980 P.3       1 NAD500      0.0000 
     25 O1N        -9.7690   62.1830  294.7750 O.co2     1 NAD500      0.0000 
     26 O2N       -12.0090   62.8570  293.9890 O.co2     1 NAD500      0.0000 
     27 O5D       -11.6750   62.4750  296.5510 O.3       1 NAD500      0.0000 
     28 C5D       -10.8140   61.9170  297.5720 C.3       1 NAD500      0.0000 
     29 C4D       -11.0380   60.4310  297.5820 C.3       1 NAD500      0.0000 
     30 O4D       -12.4970   60.1480  297.2590 O.3       1 NAD500      0.0000 
     31 C3D       -10.2080   59.8190  296.5350 C.3       1 NAD500      0.0000 
     32 O3D        -9.2160   58.9350  297.1300 O.3       1 NAD500      0.0000 
     33 C2D       -11.0940   59.0550  295.6510 C.3       1 NAD500      0.0000 
     34 O2D       -10.5370   57.7350  295.4380 O.3       1 NAD500      0.0000 
     35 C1D       -12.3870   58.9490  296.3500 C.3       1 NAD500      0.0000 
     36 N1N       -13.4590   58.8910  295.4130 N.pl3     1 NAD500      0.0000 
     37 C2N       -14.0990   57.7030  295.2250 C.ar      1 NAD500      0.0000 
     38 C3N       -15.1650   57.6160  294.3060 C.ar      1 NAD500      0.0000 
     39 C7N       -15.8780   56.2770  294.1030 C.2       1 NAD500      0.0000 
     40 O7N       -16.9500   56.2410  293.6140 O.2       1 NAD500      0.0000 
     41 N7N       -15.2220   55.0370  294.5180 N.am      1 NAD500      0.0000 
     42 C4N       -15.5450   58.7230  293.6090 C.ar      1 NAD500      0.0000 
     43 C5N       -14.8920   59.9090  293.8080 C.ar      1 NAD500      0.0000 
     44 C6N       -13.8390   59.9800  294.7200 C.ar      1 NAD500      0.0000 
@<TRIPOS>BOND
     1   33   34 1    
     2   33   35 1    
     3   35   36 1    
     4   36   37 ar   
     5   36   44 ar   
     6   37   38 ar   
     7   38   39 1    
     8   38   42 ar   
     9   39   40 2    
    10   39   41 am   
    11   42   43 ar   
    12   43   44 ar   
    13    1    2 ar   
    14    1    3 ar   
    15    1    4 1    
    16    1   23 1    
    17    4    5 1    
    18    5    6 1    
    19    6    7 1    
    20    6    8 1    
    21    7   12 1    
    22    8    9 1    
    23    8   10 1    
    24   10   11 1    
    25   10   12 1    
    26   12   13 1    
    27   13   14 1    
    28   13   22 1    
    29   14   15 2    
    30   15   16 1    
    31   16   17 ar   
    32   16   22 ar   
    33   17   18 1    
    34   17   19 ar   
    35   19   20 ar   
    36   20   21 ar   
    37   21   22 ar   
    38   23   24 1    
    39   24   25 ar   
    40   24   26 ar   
    41   24   27 1    
    42   27   28 1    
    43   28   29 1    
    44   29   30 1    
    45   29   31 1    
    46   30   35 1    
    47   31   32 1    
    48   31   33 1    
@<TRIPOS>SUBSTRUCTURE
     1 NAD500      1 GROUP   
@<TRIPOS>SET
ATOM$ORANGE STATIC     ATOMS   COLORGROUP SYSTEM 
42 5 5 6 6 8 8 10 10 12 12 14 14 16 16 17 17 20 \
20 22 22 28 28 29 29 31 31 33 33 35 35 37 37 38 38 39 \
39 42 42 43 43 44 44 

