#    Name: 6dft_7_NAD
#    Modification time : Fri May 22 19:30:24 2020

@<TRIPOS>MOLECULE
6dft_7_NAD
   44    48     1     0     1
SMALL
NO_CHARGES


@<TRIPOS>ATOM
      1 PA        -65.6480   41.0000  375.6780 P.3       1 NAD500      0.0000 
      2 O1A       -66.5600   41.9840  374.9730 O.co2     1 NAD500      0.0000 
      3 O2A       -65.5510   41.3590  377.1400 O.co2     1 NAD500      0.0000 
      4 O5B       -64.1150   41.0520  375.0090 O.3       1 NAD500      0.0000 
      5 C5B       -63.5090   42.3140  374.7800 C.3       1 NAD500      0.0000 
      6 C4B       -62.1050   42.0450  374.3380 C.3       1 NAD500      0.0000 
      7 O4B       -62.0150   40.6260  373.8780 O.3       1 NAD500      0.0000 
      8 C3B       -61.8090   42.9310  373.2090 C.3       1 NAD500      0.0000 
      9 O3B       -60.7140   43.8220  373.5650 O.3       1 NAD500      0.0000 
     10 C2B       -61.4730   42.0920  372.0440 C.3       1 NAD500      0.0000 
     11 O2B       -60.1040   42.3640  371.6140 O.3       1 NAD500      0.0000 
     12 C1B       -61.5840   40.6850  372.4450 C.3       1 NAD500      0.0000 
     13 N9A       -62.5470   40.0350  371.5970 N.pl3     1 NAD500      0.0000 
     14 C8A       -63.7640   39.9010  371.9000 C.2       1 NAD500      0.0000 
     15 N7A       -64.3720   39.2540  370.8890 N.2       1 NAD500      0.0000 
     16 C5A       -63.4200   38.9960  369.9240 C.ar      1 NAD500      0.0000 
     17 C6A       -63.3860   38.3800  368.6730 C.ar      1 NAD500      0.0000 
     18 N6A       -64.6060   37.8090  368.1060 N.pl3     1 NAD500      0.0000 
     19 N1A       -62.2530   38.3200  368.0160 N.ar      1 NAD500      0.0000 
     20 C2A       -61.1400   38.8360  368.5240 C.ar      1 NAD500      0.0000 
     21 N3A       -61.1120   39.4330  369.7070 N.ar      1 NAD500      0.0000 
     22 C4A       -62.2100   39.5350  370.4300 C.ar      1 NAD500      0.0000 
     23 O3        -66.2420   39.4360  375.5070 O.3       1 NAD500      0.0000 
     24 PN        -67.2200   38.7090  376.6390 P.3       1 NAD500      0.0000 
     25 O1N       -66.4610   38.5500  377.9260 O.co2     1 NAD500      0.0000 
     26 O2N       -67.6550   37.3430  376.1460 O.co2     1 NAD500      0.0000 
     27 O5D       -68.5720   39.6920  376.8990 O.3       1 NAD500      0.0000 
     28 C5D       -68.5190   40.7850  377.8520 C.3       1 NAD500      0.0000 
     29 C4D       -69.5960   40.5930  378.8870 C.3       1 NAD500      0.0000 
     30 O4D       -70.9460   40.9890  378.3060 O.3       1 NAD500      0.0000 
     31 C3D       -69.6470   39.1670  379.2310 C.3       1 NAD500      0.0000 
     32 O3D       -69.0730   38.9450  380.5530 O.3       1 NAD500      0.0000 
     33 C2D       -71.0470   38.7360  379.1940 C.3       1 NAD500      0.0000 
     34 O2D       -71.5320   38.6460  380.5560 O.3       1 NAD500      0.0000 
     35 C1D       -71.8160   39.7600  378.4530 C.3       1 NAD500      0.0000 
     36 N1N       -72.2120   39.2820  377.1630 N.pl3     1 NAD500      0.0000 
     37 C2N       -73.4630   38.7760  376.9600 C.ar      1 NAD500      0.0000 
     38 C3N       -73.8290   38.3200  375.6710 C.ar      1 NAD500      0.0000 
     39 C7N       -75.2210   37.7460  375.4150 C.2       1 NAD500      0.0000 
     40 O7N       -75.7830   37.1590  376.2670 O.2       1 NAD500      0.0000 
     41 N7N       -75.8450   37.9360  374.1080 N.am      1 NAD500      0.0000 
     42 C4N       -72.9470   38.3830  374.6400 C.ar      1 NAD500      0.0000 
     43 C5N       -71.7020   38.8930  374.8570 C.ar      1 NAD500      0.0000 
     44 C6N       -71.3560   39.3400  376.1280 C.ar      1 NAD500      0.0000 
@<TRIPOS>BOND
     1    1    2 ar   
     2    1    3 ar   
     3    1    4 1    
     4    1   23 1    
     5    4    5 1    
     6    5    6 1    
     7    6    7 1    
     8    6    8 1    
     9    7   12 1    
    10    8    9 1    
    11    8   10 1    
    12   10   11 1    
    13   10   12 1    
    14   12   13 1    
    15   13   14 1    
    16   13   22 1    
    17   14   15 2    
    18   15   16 1    
    19   16   17 ar   
    20   16   22 ar   
    21   17   18 1    
    22   17   19 ar   
    23   19   20 ar   
    24   20   21 ar   
    25   21   22 ar   
    26   23   24 1    
    27   24   25 ar   
    28   24   26 ar   
    29   24   27 1    
    30   27   28 1    
    31   28   29 1    
    32   29   30 1    
    33   29   31 1    
    34   30   35 1    
    35   31   32 1    
    36   31   33 1    
    37   33   34 1    
    38   33   35 1    
    39   35   36 1    
    40   36   37 ar   
    41   36   44 ar   
    42   37   38 ar   
    43   38   39 1    
    44   38   42 ar   
    45   39   40 2    
    46   39   41 am   
    47   42   43 ar   
    48   43   44 ar   
@<TRIPOS>SUBSTRUCTURE
     1 NAD500      1 GROUP   
@<TRIPOS>SET
ATOM$ORANGE STATIC     ATOMS   COLORGROUP SYSTEM 
42 5 5 6 6 8 8 10 10 12 12 14 14 16 16 17 17 20 \
20 22 22 28 28 29 29 31 31 33 33 35 35 37 37 38 38 39 \
39 42 42 43 43 44 44 

