#    Name: 6dft_10_NAD
#    Modification time : Fri May 22 19:31:13 2020

@<TRIPOS>MOLECULE
6dft_10_NAD
   44    48     1     0     1
SMALL
NO_CHARGES


@<TRIPOS>ATOM
      1 PA         -6.4710   67.9900  300.2090 P.3       1 NAD500      0.0000 
      2 O1A        -5.1820   68.7820  300.1220 O.co2     1 NAD500      0.0000 
      3 O2A        -6.6970   67.2740  298.9000 O.co2     1 NAD500      0.0000 
      4 O5B        -7.7580   69.0260  300.4880 O.3       1 NAD500      0.0000 
      5 C5B        -8.9080   68.8720  299.6650 C.3       1 NAD500      0.0000 
      6 C4B       -10.1330   68.9430  300.5240 C.3       1 NAD500      0.0000 
      7 O4B        -9.7820   68.6850  301.9530 O.3       1 NAD500      0.0000 
      8 C3B       -10.6910   70.2980  300.4730 C.3       1 NAD500      0.0000 
      9 O3B       -11.6060   70.4320  299.3450 O.3       1 NAD500      0.0000 
     10 C2B       -11.3750   70.4730  301.7660 C.3       1 NAD500      0.0000 
     11 O2B       -12.7650   70.0260  301.6580 O.3       1 NAD500      0.0000 
     12 C1B       -10.6670   69.6160  302.7290 C.3       1 NAD500      0.0000 
     13 N9A        -9.8820   70.4200  303.6340 N.pl3     1 NAD500      0.0000 
     14 C8A        -8.6890   70.7510  303.3970 C.2       1 NAD500      0.0000 
     15 N7A        -8.2460   71.4890  304.4310 N.2       1 NAD500      0.0000 
     16 C5A        -9.2750   71.5900  305.3450 C.ar      1 NAD500      0.0000 
     17 C6A        -9.4690   72.1950  306.5870 C.ar      1 NAD500      0.0000 
     18 N6A        -8.3870   72.9550  307.2100 N.pl3     1 NAD500      0.0000 
     19 N1A       -10.6300   72.0740  307.1860 N.ar      1 NAD500      0.0000 
     20 C2A       -11.6170   71.3850  306.6270 C.ar      1 NAD500      0.0000 
     21 N3A       -11.4900   70.7900  305.4490 N.ar      1 NAD500      0.0000 
     22 C4A       -10.3560   70.8630  304.7800 C.ar      1 NAD500      0.0000 
     23 O3         -6.3460   66.8530  301.4450 O.3       1 NAD500      0.0000 
     24 PN         -5.1390   65.7040  301.4710 P.3       1 NAD500      0.0000 
     25 O1N        -5.6070   64.4680  300.7550 O.co2     1 NAD500      0.0000 
     26 O2N        -4.7850   65.3430  302.8980 O.co2     1 NAD500      0.0000 
     27 O5D        -3.7720   66.3200  300.6820 O.3       1 NAD500      0.0000 
     28 C5D        -3.6680   66.1910  299.2400 C.3       1 NAD500      0.0000 
     29 C4D        -2.4600   65.3620  298.8980 C.3       1 NAD500      0.0000 
     30 O4D        -1.1970   66.1780  299.1220 O.3       1 NAD500      0.0000 
     31 C3D        -2.4170   64.1930  299.7890 C.3       1 NAD500      0.0000 
     32 O3D        -2.4300   62.9590  299.0130 O.3       1 NAD500      0.0000 
     33 C2D        -1.1900   64.2760  300.5890 C.3       1 NAD500      0.0000 
     34 O2D        -0.5770   62.9660  300.6530 O.3       1 NAD500      0.0000 
     35 C1D        -0.3110   65.2150  299.8740 C.3       1 NAD500      0.0000 
     36 N1N         0.5430   65.9250  300.7630 N.pl3     1 NAD500      0.0000 
     37 C2N         0.1440   67.1080  301.3180 C.ar      1 NAD500      0.0000 
     38 C3N         1.0180   67.7960  302.1900 C.ar      1 NAD500      0.0000 
     39 C7N         0.5920   69.1200  302.8250 C.2       1 NAD500      0.0000 
     40 O7N        -0.4880   69.5520  302.6270 O.2       1 NAD500      0.0000 
     41 N7N         1.5280   69.8520  303.6780 N.am      1 NAD500      0.0000 
     42 C4N         2.2460   67.2770  302.4640 C.ar      1 NAD500      0.0000 
     43 C5N         2.6280   66.0960  301.8940 C.ar      1 NAD500      0.0000 
     44 C6N         1.7580   65.4270  301.0390 C.ar      1 NAD500      0.0000 
@<TRIPOS>BOND
     1    1    2 ar   
     2    1    3 ar   
     3    1    4 1    
     4    1   23 1    
     5    4    5 1    
     6    5    6 1    
     7    6    7 1    
     8    6    8 1    
     9    7   12 1    
    10    8    9 1    
    11    8   10 1    
    12   10   11 1    
    13   10   12 1    
    14   12   13 1    
    15   13   14 1    
    16   13   22 1    
    17   14   15 2    
    18   15   16 1    
    19   16   17 ar   
    20   16   22 ar   
    21   17   18 1    
    22   17   19 ar   
    23   19   20 ar   
    24   20   21 ar   
    25   21   22 ar   
    26   23   24 1    
    27   24   25 ar   
    28   24   26 ar   
    29   24   27 1    
    30   27   28 1    
    31   28   29 1    
    32   29   30 1    
    33   29   31 1    
    34   30   35 1    
    35   31   32 1    
    36   31   33 1    
    37   33   34 1    
    38   33   35 1    
    39   35   36 1    
    40   36   37 ar   
    41   36   44 ar   
    42   37   38 ar   
    43   38   39 1    
    44   38   42 ar   
    45   39   40 2    
    46   39   41 am   
    47   42   43 ar   
    48   43   44 ar   
@<TRIPOS>SUBSTRUCTURE
     1 NAD500      1 GROUP   
@<TRIPOS>SET
ATOM$ORANGE STATIC     ATOMS   COLORGROUP SYSTEM 
42 5 5 6 6 8 8 10 10 12 12 14 14 16 16 17 17 20 \
20 22 22 28 28 29 29 31 31 33 33 35 35 37 37 38 38 39 \
39 42 42 43 43 44 44 

