#    Name: 6dft_3_NAD
#    Modification time : Fri May 22 19:29:16 2020

@<TRIPOS>MOLECULE
6dft_3_NAD
   44    48     1     0     1
SMALL
NO_CHARGES


@<TRIPOS>ATOM
      1 PA        -34.8460   11.9890  314.3490 P.3       1 NAD500      0.0000 
      2 O1A       -36.2380   12.0460  314.9330 O.co2     1 NAD500      0.0000 
      3 O2A       -34.4730   13.3360  313.7920 O.co2     1 NAD500      0.0000 
      4 O5B       -34.7520   10.7860  313.1890 O.3       1 NAD500      0.0000 
      5 C5B       -33.7520    9.8100  313.4480 C.3       1 NAD500      0.0000 
      6 C4B       -33.6470    8.8080  312.3360 C.3       1 NAD500      0.0000 
      7 O4B       -33.7780    7.4470  312.9340 O.3       1 NAD500      0.0000 
      8 C3B       -34.7410    8.9960  311.3700 C.3       1 NAD500      0.0000 
      9 O3B       -34.2180    9.4220  310.0850 O.3       1 NAD500      0.0000 
     10 C2B       -35.4090    7.7020  311.1880 C.3       1 NAD500      0.0000 
     11 O2B       -35.0200    7.1590  309.8840 O.3       1 NAD500      0.0000 
     12 C1B       -34.9530    6.8120  312.2560 C.3       1 NAD500      0.0000 
     13 N9A       -36.0220    6.6210  313.1960 N.pl3     1 NAD500      0.0000 
     14 C8A       -36.3910    7.4980  314.0220 C.2       1 NAD500      0.0000 
     15 N7A       -37.4030    6.9870  314.7410 N.2       1 NAD500      0.0000 
     16 C5A       -37.6310    5.7060  314.2830 C.ar      1 NAD500      0.0000 
     17 C6A       -38.5070    4.6680  314.5890 C.ar      1 NAD500      0.0000 
     18 N6A       -39.4960    4.8430  315.6480 N.pl3     1 NAD500      0.0000 
     19 N1A       -38.4290    3.5450  313.9190 N.ar      1 NAD500      0.0000 
     20 C2A       -37.5320    3.3880  312.9550 C.ar      1 NAD500      0.0000 
     21 N3A       -36.6740    4.3370  312.6210 N.ar      1 NAD500      0.0000 
     22 C4A       -36.6890    5.4940  313.2500 C.ar      1 NAD500      0.0000 
     23 O3        -33.7490   11.6060  315.5560 O.3       1 NAD500      0.0000 
     24 PN        -34.0750   11.9100  317.1500 P.3       1 NAD500      0.0000 
     25 O1N       -32.8120   11.9630  317.9660 O.co2     1 NAD500      0.0000 
     26 O2N       -34.9860   10.8240  317.6600 O.co2     1 NAD500      0.0000 
     27 O5D       -34.8920   13.3790  317.2200 O.3       1 NAD500      0.0000 
     28 C5D       -34.2120   14.5700  316.7640 C.3       1 NAD500      0.0000 
     29 C4D       -34.3340   15.5480  317.8870 C.3       1 NAD500      0.0000 
     30 O4D       -35.8100   15.7610  318.1630 O.3       1 NAD500      0.0000 
     31 C3D       -33.7800   14.9480  319.1070 C.3       1 NAD500      0.0000 
     32 O3D       -32.3530   15.2050  319.2350 O.3       1 NAD500      0.0000 
     33 C2D       -34.5120   15.5860  320.2010 C.3       1 NAD500      0.0000 
     34 O2D       -33.7710   16.7470  320.6640 O.3       1 NAD500      0.0000 
     35 C1D       -35.8290   15.9850  319.6590 C.3       1 NAD500      0.0000 
     36 N1N       -36.8640   15.2270  320.2810 N.pl3     1 NAD500      0.0000 
     37 C2N       -37.4390   15.7220  321.4100 C.ar      1 NAD500      0.0000 
     38 C3N       -38.4610   15.0020  322.0540 C.ar      1 NAD500      0.0000 
     39 C7N       -39.0860   15.5820  323.3240 C.2       1 NAD500      0.0000 
     40 O7N       -39.0040   16.7340  323.5500 O.2       1 NAD500      0.0000 
     41 N7N       -39.7750   14.7100  324.2700 N.am      1 NAD500      0.0000 
     42 C4N       -38.8710   13.8120  321.5360 C.ar      1 NAD500      0.0000 
     43 C5N       -38.2850   13.3270  320.3990 C.ar      1 NAD500      0.0000 
     44 C6N       -37.2730   14.0510  319.7720 C.ar      1 NAD500      0.0000 
@<TRIPOS>BOND
     1    1    2 ar   
     2    1    3 ar   
     3    1    4 1    
     4    1   23 1    
     5    4    5 1    
     6    5    6 1    
     7    6    7 1    
     8    6    8 1    
     9    7   12 1    
    10    8    9 1    
    11    8   10 1    
    12   10   11 1    
    13   10   12 1    
    14   12   13 1    
    15   13   14 1    
    16   13   22 1    
    17   14   15 2    
    18   15   16 1    
    19   16   17 ar   
    20   16   22 ar   
    21   17   18 1    
    22   17   19 ar   
    23   19   20 ar   
    24   20   21 ar   
    25   21   22 ar   
    26   23   24 1    
    27   24   25 ar   
    28   24   26 ar   
    29   24   27 1    
    30   27   28 1    
    31   28   29 1    
    32   29   30 1    
    33   29   31 1    
    34   30   35 1    
    35   31   32 1    
    36   31   33 1    
    37   33   34 1    
    38   33   35 1    
    39   35   36 1    
    40   36   37 ar   
    41   36   44 ar   
    42   37   38 ar   
    43   38   39 1    
    44   38   42 ar   
    45   39   40 2    
    46   39   41 am   
    47   42   43 ar   
    48   43   44 ar   
@<TRIPOS>SUBSTRUCTURE
     1 NAD500      1 GROUP   
@<TRIPOS>SET
ATOM$ORANGE STATIC     ATOMS   COLORGROUP SYSTEM 
42 5 5 6 6 8 8 10 10 12 12 14 14 16 16 17 17 20 \
20 22 22 28 28 29 29 31 31 33 33 35 35 37 37 38 38 39 \
39 42 42 43 43 44 44 

