#    Name: 6dft_11_NAD
#    Modification time : Fri May 22 19:31:30 2020

@<TRIPOS>MOLECULE
6dft_11_NAD
   44    48     1     0     1
SMALL
NO_CHARGES


@<TRIPOS>ATOM
      1 PA        -25.1220   88.9220  301.1780 P.3       1 NAD500      0.0000 
      2 O1A       -26.3100   87.9810  301.2060 O.co2     1 NAD500      0.0000 
      3 O2A       -24.9240   89.4400  299.7750 O.co2     1 NAD500      0.0000 
      4 O5B       -23.7340   88.1180  301.6640 O.3       1 NAD500      0.0000 
      5 C5B       -22.5890   88.9020  301.9760 C.3       1 NAD500      0.0000 
      6 C4B       -21.3400   88.1370  301.6380 C.3       1 NAD500      0.0000 
      7 O4B       -20.6910   87.6650  302.8980 O.3       1 NAD500      0.0000 
      8 C3B       -21.6980   86.9610  300.8330 C.3       1 NAD500      0.0000 
      9 O3B       -20.8160   86.8610  299.6800 O.3       1 NAD500      0.0000 
     10 C2B       -21.5660   85.7680  301.6890 C.3       1 NAD500      0.0000 
     11 O2B       -20.6920   84.8030  301.0230 O.3       1 NAD500      0.0000 
     12 C1B       -20.9680   86.1930  302.9590 C.3       1 NAD500      0.0000 
     13 N9A       -21.8740   85.9120  304.0440 N.pl3     1 NAD500      0.0000 
     14 C8A       -23.1090   86.1670  304.0020 C.2       1 NAD500      0.0000 
     15 N7A       -23.6530   85.7890  305.1710 N.2       1 NAD500      0.0000 
     16 C5A       -22.6400   85.2730  305.9550 C.ar      1 NAD500      0.0000 
     17 C6A       -22.5330   84.7260  307.2340 C.ar      1 NAD500      0.0000 
     18 N6A       -23.7190   84.6040  308.0820 N.pl3     1 NAD500      0.0000 
     19 N1A       -21.3590   84.3260  307.6620 N.ar      1 NAD500      0.0000 
     20 C2A       -20.2770   84.4320  306.8970 C.ar      1 NAD500      0.0000 
     21 N3A       -20.3190   84.9440  305.6770 N.ar      1 NAD500      0.0000 
     22 C4A       -21.4620   85.3700  305.1700 C.ar      1 NAD500      0.0000 
     23 O3        -25.4090   90.2120  302.2180 O.3       1 NAD500      0.0000 
     24 PN        -26.9480   90.6150  302.7020 P.3       1 NAD500      0.0000 
     25 O1N       -27.0120   92.0650  303.0970 O.co2     1 NAD500      0.0000 
     26 O2N       -27.3450   89.7500  303.8800 O.co2     1 NAD500      0.0000 
     27 O5D       -27.9920   90.3380  301.4020 O.3       1 NAD500      0.0000 
     28 C5D       -28.0050   91.2920  300.3130 C.3       1 NAD500      0.0000 
     29 C4D       -29.3880   91.8760  300.2410 C.3       1 NAD500      0.0000 
     30 O4D       -30.4020   90.7920  300.5670 O.3       1 NAD500      0.0000 
     31 C3D       -29.5180   92.9320  301.2540 C.3       1 NAD500      0.0000 
     32 O3D       -29.4220   94.2460  300.6330 O.3       1 NAD500      0.0000 
     33 C2D       -30.8290   92.7760  301.8930 C.3       1 NAD500      0.0000 
     34 O2D       -31.6710   93.9010  301.5370 O.3       1 NAD500      0.0000 
     35 C1D       -31.4330   91.5260  301.3910 C.3       1 NAD500      0.0000 
     36 N1N       -31.8620   90.7300  302.4930 N.pl3     1 NAD500      0.0000 
     37 C2N       -33.1220   90.8990  302.9830 C.ar      1 NAD500      0.0000 
     38 C3N       -33.5620   90.1200  304.0720 C.ar      1 NAD500      0.0000 
     39 C7N       -34.9800   90.3160  304.6170 C.2       1 NAD500      0.0000 
     40 O7N       -35.8570   90.6110  303.8880 O.2       1 NAD500      0.0000 
     41 N7N       -35.2410   90.1500  306.0460 N.am      1 NAD500      0.0000 
     42 C4N       -32.7240   89.2010  304.6290 C.ar      1 NAD500      0.0000 
     43 C5N       -31.4620   89.0430  304.1270 C.ar      1 NAD500      0.0000 
     44 C6N       -31.0390   89.8210  303.0500 C.ar      1 NAD500      0.0000 
@<TRIPOS>BOND
     1    1    2 ar   
     2    1    3 ar   
     3    1    4 1    
     4    1   23 1    
     5    4    5 1    
     6    5    6 1    
     7    6    7 1    
     8    6    8 1    
     9    7   12 1    
    10    8    9 1    
    11    8   10 1    
    12   10   11 1    
    13   10   12 1    
    14   12   13 1    
    15   13   14 1    
    16   13   22 1    
    17   14   15 2    
    18   15   16 1    
    19   16   17 ar   
    20   16   22 ar   
    21   17   18 1    
    22   17   19 ar   
    23   19   20 ar   
    24   20   21 ar   
    25   21   22 ar   
    26   23   24 1    
    27   24   25 ar   
    28   24   26 ar   
    29   24   27 1    
    30   27   28 1    
    31   28   29 1    
    32   29   30 1    
    33   29   31 1    
    34   30   35 1    
    35   31   32 1    
    36   31   33 1    
    37   33   34 1    
    38   33   35 1    
    39   35   36 1    
    40   36   37 ar   
    41   36   44 ar   
    42   37   38 ar   
    43   38   39 1    
    44   38   42 ar   
    45   39   40 2    
    46   39   41 am   
    47   42   43 ar   
    48   43   44 ar   
@<TRIPOS>SUBSTRUCTURE
     1 NAD500      1 GROUP   
@<TRIPOS>SET
ATOM$ORANGE STATIC     ATOMS   COLORGROUP SYSTEM 
42 5 5 6 6 8 8 10 10 12 12 14 14 16 16 17 17 20 \
20 22 22 28 28 29 29 31 31 33 33 35 35 37 37 38 38 39 \
39 42 42 43 43 44 44 

