#    Name: 6dft_11_NAD_CAVITY_N1_4
#    Modification time : Fri May 22 19:31:33 2020

@<TRIPOS>MOLECULE
6dft_11_NAD_CAVITY_N1_4
   70     0     6     0     0
SMALL
NO_CHARGES


@<TRIPOS>ATOM
      1 OG        -36.2600   86.7700  304.0100 O.3       1 SER1        0.0000 
      2 OG        -36.1100   87.8200  302.9500 O.3       1 SER1        0.0000 
      3 OG        -26.8000   88.5400  300.7200 O.3       1 SER1        0.0000 
      4 OG        -28.0800   89.9900  299.8500 O.3       1 SER1        0.0000 
      5 OG        -34.4100   87.3700  304.8600 O.3       1 SER1        0.0000 
      6 OG        -34.2600   88.4200  303.8000 O.3       1 SER1        0.0000 
      7 OG        -35.8400   87.7600  305.0500 O.3       1 SER1        0.0000 
      8 OG        -35.6900   88.8200  304.0000 O.3       1 SER1        0.0000 
      9 OG        -23.3700   89.8000  300.3100 O.3       1 SER1        0.0000 
     10 OG        -24.9500   89.1400  301.5700 O.3       1 SER1        0.0000 
     11 OG        -24.8000   90.1900  300.5100 O.3       1 SER1        0.0000 
     12 OG        -26.3800   89.5400  301.7600 O.3       1 SER1        0.0000 
     13 OG        -26.2300   90.5900  300.7000 O.3       1 SER1        0.0000 
     14 OG        -27.9600   88.8800  303.0100 O.3       1 SER1        0.0000 
     15 OG        -33.9900   88.3600  305.9100 O.3       1 SER1        0.0000 
     16 OG        -33.7000   90.4600  303.7900 O.3       1 SER1        0.0000 
     17 OG        -35.4300   88.7600  306.1000 O.3       1 SER1        0.0000 
     18 OG        -35.1300   90.8600  303.9800 O.3       1 SER1        0.0000 
     19 OG        -25.9700   90.5300  302.8000 O.3       1 SER1        0.0000 
     20 OG        -27.4000   90.9300  303.0000 O.3       1 SER1        0.0000 
     21 OG        -27.2500   91.9800  301.9400 O.3       1 SER1        0.0000 
     22 OG        -28.8300   91.3200  303.1900 O.3       1 SER1        0.0000 
     23 OG        -28.6900   92.3700  302.1300 O.3       1 SER1        0.0000 
     24 OG        -28.5400   93.4300  301.0700 O.3       1 SER1        0.0000 
     25 OG        -30.1200   92.7700  302.3300 O.3       1 SER1        0.0000 
     26 OG        -29.9700   93.8200  301.2700 O.3       1 SER1        0.0000 
     27 N         -29.3700   91.4400  298.9800 N.am      2 ALA2        0.0000 
     28 O         -32.9700   86.9700  304.6700 O.2       2 ALA2        0.0000 
     29 O         -26.0900   91.6400  299.6400 O.2       2 ALA2        0.0000 
     30 O         -27.5200   92.0400  299.8400 O.2       2 ALA2        0.0000 
     31 N         -29.4000   89.2800  303.2100 N.am      2 ALA2        0.0000 
     32 N         -30.9800   88.6200  304.4600 N.am      2 ALA2        0.0000 
     33 N         -30.6800   90.7200  302.3400 N.am      2 ALA2        0.0000 
     34 O         -32.4100   89.0200  304.6500 O.2       2 ALA2        0.0000 
     35 N         -32.2600   90.0700  303.5900 N.am      2 ALA2        0.0000 
     36 N         -32.1200   91.1200  302.5300 N.am      2 ALA2        0.0000 
     37 N         -24.5300   90.1300  302.6100 N.am      2 ALA2        0.0000 
     38 N         -24.3800   91.1900  301.5500 N.am      2 ALA2        0.0000 
     39 N         -25.8200   91.5800  301.7500 N.am      2 ALA2        0.0000 
     40 O         -25.6700   92.6300  300.6900 O.2       2 ALA2        0.0000 
     41 N         -30.2700   91.7200  303.3900 N.am      2 ALA2        0.0000 
     42 N         -31.5500   93.1700  302.5200 N.am      2 ALA2        0.0000 
     43 N         -33.4300   90.4100  305.8900 N.am      2 ALA2        0.0000 
     44 NZ        -34.8200   86.3700  303.8200 N.4       3 LYS4        0.0000 
     45 NZ        -30.5300   91.7800  301.2800 N.4       3 LYS4        0.0000 
     46 NZ        -30.3900   92.8300  300.2200 N.4       3 LYS4        0.0000 
     47 NZ        -31.9700   92.1700  301.4800 N.4       3 LYS4        0.0000 
     48 NZ        -35.2800   89.8100  305.0400 N.4       3 LYS4        0.0000 
     49 CZ        -32.5300   90.1300  301.4900 C.ar      4 PHE5        0.0000 
     50 CZ        -33.5500   91.5200  302.7300 C.ar      4 PHE5        0.0000 
     51 CA        -26.9400   87.4900  301.7700 C.3       5 GLY6        0.0000 
     52 CA        -28.2300   88.9400  300.9100 C.3       5 GLY6        0.0000 
     53 CA        -29.6600   89.3300  301.1000 C.3       5 GLY6        0.0000 
     54 CA        -29.5200   90.3900  300.0400 C.3       5 GLY6        0.0000 
     55 CA        -31.1000   89.7300  301.3000 C.3       5 GLY6        0.0000 
     56 CA        -30.9500   90.7800  300.2400 C.3       5 GLY6        0.0000 
     57 CA        -32.8300   88.0200  303.6100 C.3       5 GLY6        0.0000 
     58 CA        -32.6800   89.0800  302.5500 C.3       5 GLY6        0.0000 
     59 CA        -24.6500   91.2400  299.4500 C.3       5 GLY6        0.0000 
     60 CA        -26.5300   88.4800  302.8200 C.3       5 GLY6        0.0000 
     61 CA        -28.9500   92.4300  300.0300 C.3       5 GLY6        0.0000 
     62 CA        -30.8300   89.6700  303.4000 C.3       5 GLY6        0.0000 
     63 CA        -27.1000   93.0300  300.8800 C.3       5 GLY6        0.0000 
     64 CA        -28.9800   90.2700  304.2500 C.3       5 GLY6        0.0000 
     65 CA        -30.4100   90.6700  304.4400 C.3       5 GLY6        0.0000 
     66 DU        -27.8100   89.9300  301.9500 H         6 CUB7        0.0000 
     67 DU        -27.6700   90.9800  300.8900 H         6 CUB7        0.0000 
     68 DU        -29.2500   90.3300  302.1500 H         6 CUB7        0.0000 
     69 DU        -29.1000   91.3800  301.0900 H         6 CUB7        0.0000 
     70 DU        -33.8500   89.4100  304.8500 H         6 CUB7        0.0000 
@<TRIPOS>BOND
@<TRIPOS>SUBSTRUCTURE
     1 SER1        1 GROUP   
     2 ALA2       27 GROUP   
     3 LYS4       44 GROUP   
     4 PHE5       49 GROUP   
     5 GLY6       51 GROUP   
     6 CUB7       66 GROUP   
@<TRIPOS>SET

