#    Name: 6dft_2_NAD
#    Modification time : Fri May 22 19:28:58 2020

@<TRIPOS>MOLECULE
6dft_2_NAD
   44    48     1     0     1
SMALL
NO_CHARGES


@<TRIPOS>ATOM
      1 PA        -43.4470   -2.7950  292.0050 P.3       1 NAD500      0.0000 
      2 O1A       -42.1360   -3.5270  292.1380 O.co2     1 NAD500      0.0000 
      3 O2A       -43.2400   -1.5430  291.2000 O.co2     1 NAD500      0.0000 
      4 O5B       -43.9860   -2.3450  293.5250 O.3       1 NAD500      0.0000 
      5 C5B       -43.3520   -1.2180  294.1210 C.3       1 NAD500      0.0000 
      6 C4B       -44.1880   -0.7520  295.2750 C.3       1 NAD500      0.0000 
      7 O4B       -44.8720   -1.9480  295.8530 O.3       1 NAD500      0.0000 
      8 C3B       -43.3220   -0.1980  296.3320 C.3       1 NAD500      0.0000 
      9 O3B       -43.2500    1.2510  296.3110 O.3       1 NAD500      0.0000 
     10 C2B       -43.9430   -0.6240  297.5900 C.3       1 NAD500      0.0000 
     11 O2B       -44.9870    0.3390  297.9680 O.3       1 NAD500      0.0000 
     12 C1B       -44.5300   -1.9380  297.3140 C.3       1 NAD500      0.0000 
     13 N9A       -43.6040   -3.0040  297.6240 N.pl3     1 NAD500      0.0000 
     14 C8A       -42.7090   -3.4060  296.8260 C.2       1 NAD500      0.0000 
     15 N7A       -42.0370   -4.4010  297.4210 N.2       1 NAD500      0.0000 
     16 C5A       -42.5990   -4.5980  298.6610 C.ar      1 NAD500      0.0000 
     17 C6A       -42.3610   -5.4530  299.7260 C.ar      1 NAD500      0.0000 
     18 N6A       -41.2810   -6.4250  299.6030 N.pl3     1 NAD500      0.0000 
     19 N1A       -43.1070   -5.3650  300.7990 N.ar      1 NAD500      0.0000 
     20 C2A       -44.0800   -4.4640  300.8680 C.ar      1 NAD500      0.0000 
     21 N3A       -44.3530   -3.6190  299.8830 N.ar      1 NAD500      0.0000 
     22 C4A       -43.6440   -3.6490  298.7720 C.ar      1 NAD500      0.0000 
     23 O3        -44.5330   -3.8200  291.2380 O.3       1 NAD500      0.0000 
     24 PN        -44.2610   -5.4460  291.0240 P.3       1 NAD500      0.0000 
     25 O1N       -45.5600   -6.1980  291.0140 O.co2     1 NAD500      0.0000 
     26 O2N       -43.4270   -5.9640  292.1700 O.co2     1 NAD500      0.0000 
     27 O5D       -43.4310   -5.7030  289.5780 O.3       1 NAD500      0.0000 
     28 C5D       -43.2990   -4.6140  288.6340 C.3       1 NAD500      0.0000 
     29 C4D       -43.3910   -5.1880  287.2460 C.3       1 NAD500      0.0000 
     30 O4D       -42.1930   -6.0980  287.0320 O.3       1 NAD500      0.0000 
     31 C3D       -44.6230   -5.9900  287.1190 C.3       1 NAD500      0.0000 
     32 O3D       -45.4890   -5.4730  286.0650 O.3       1 NAD500      0.0000 
     33 C2D       -44.2260   -7.3630  286.7890 C.3       1 NAD500      0.0000 
     34 O2D       -45.0260   -7.8350  285.6760 O.3       1 NAD500      0.0000 
     35 C1D       -42.8090   -7.3150  286.3850 C.3       1 NAD500      0.0000 
     36 N1N       -42.1100   -8.4930  286.7700 N.pl3     1 NAD500      0.0000 
     37 C2N       -41.3630   -8.5010  287.9160 C.ar      1 NAD500      0.0000 
     38 C3N       -40.6620   -9.6680  288.2920 C.ar      1 NAD500      0.0000 
     39 C7N       -39.8190   -9.7090  289.5720 C.2       1 NAD500      0.0000 
     40 O7N       -39.0790  -10.6050  289.7680 O.2       1 NAD500      0.0000 
     41 N7N       -39.9090   -8.6510  290.5760 N.am      1 NAD500      0.0000 
     42 C4N       -40.7400  -10.7680  287.4970 C.ar      1 NAD500      0.0000 
     43 C5N       -41.4880  -10.7380  286.3530 C.ar      1 NAD500      0.0000 
     44 C6N       -42.1760   -9.5840  285.9940 C.ar      1 NAD500      0.0000 
@<TRIPOS>BOND
     1    1    2 ar   
     2    1    3 ar   
     3    1    4 1    
     4    1   23 1    
     5    4    5 1    
     6    5    6 1    
     7    6    7 1    
     8    6    8 1    
     9    7   12 1    
    10    8    9 1    
    11    8   10 1    
    12   10   11 1    
    13   10   12 1    
    14   12   13 1    
    15   13   14 1    
    16   13   22 1    
    17   14   15 2    
    18   15   16 1    
    19   16   17 ar   
    20   16   22 ar   
    21   17   18 1    
    22   17   19 ar   
    23   19   20 ar   
    24   20   21 ar   
    25   21   22 ar   
    26   23   24 1    
    27   24   25 ar   
    28   24   26 ar   
    29   24   27 1    
    30   27   28 1    
    31   28   29 1    
    32   29   30 1    
    33   29   31 1    
    34   30   35 1    
    35   31   32 1    
    36   31   33 1    
    37   33   34 1    
    38   33   35 1    
    39   35   36 1    
    40   36   37 ar   
    41   36   44 ar   
    42   37   38 ar   
    43   38   39 1    
    44   38   42 ar   
    45   39   40 2    
    46   39   41 am   
    47   42   43 ar   
    48   43   44 ar   
@<TRIPOS>SUBSTRUCTURE
     1 NAD500      1 GROUP   
@<TRIPOS>SET
ATOM$ORANGE STATIC     ATOMS   COLORGROUP SYSTEM 
42 5 5 6 6 8 8 10 10 12 12 14 14 16 16 17 17 20 \
20 22 22 28 28 29 29 31 31 33 33 35 35 37 37 38 38 39 \
39 42 42 43 43 44 44 

