#    Name: 6dft_1_NAD
#    Modification time : Fri May 22 19:28:39 2020

@<TRIPOS>MOLECULE
6dft_1_NAD
   44    48     1     0     1
SMALL
NO_CHARGES


@<TRIPOS>ATOM
      1 PA        -46.9920    2.0830  291.5930 P.3       1 NAD502      0.0000 
      2 O1A       -48.1240    2.2400  292.5810 O.co2     1 NAD502      0.0000 
      3 O2A       -46.9260    0.6570  291.1100 O.co2     1 NAD502      0.0000 
      4 O5B       -45.5190    2.4500  292.2930 O.3       1 NAD502      0.0000 
      5 C5B       -44.4440    2.5190  291.3690 C.3       1 NAD502      0.0000 
      6 C4B       -43.1990    2.9380  292.0860 C.3       1 NAD502      0.0000 
      7 O4B       -42.5610    4.0380  291.3040 O.3       1 NAD502      0.0000 
      8 C3B       -43.5450    3.4820  293.4080 C.3       1 NAD502      0.0000 
      9 O3B       -43.3670    2.4840  294.4470 O.3       1 NAD502      0.0000 
     10 C2B       -42.6540    4.6310  293.6200 C.3       1 NAD502      0.0000 
     11 O2B       -41.4430    4.1660  294.3040 O.3       1 NAD502      0.0000 
     12 C1B       -42.3530    5.1560  292.2800 C.3       1 NAD502      0.0000 
     13 N9A       -43.2130    6.2760  291.9700 N.pl3     1 NAD502      0.0000 
     14 C8A       -44.4360    6.1670  291.6690 C.2       1 NAD502      0.0000 
     15 N7A       -44.9200    7.3980  291.4430 N.2       1 NAD502      0.0000 
     16 C5A       -43.8870    8.2890  291.6300 C.ar      1 NAD502      0.0000 
     17 C6A       -43.7390    9.6650  291.5530 C.ar      1 NAD502      0.0000 
     18 N6A       -44.9040   10.4670  291.1950 N.pl3     1 NAD502      0.0000 
     19 N1A       -42.5680   10.2000  291.8010 N.ar      1 NAD502      0.0000 
     20 C2A       -41.5320    9.4360  292.1280 C.ar      1 NAD502      0.0000 
     21 N3A       -41.6150    8.1170  292.2160 N.ar      1 NAD502      0.0000 
     22 C4A       -42.7590    7.5100  291.9790 C.ar      1 NAD502      0.0000 
     23 O3        -47.2610    3.1220  290.3000 O.3       1 NAD502      0.0000 
     24 PN        -48.4210    2.8460  289.1450 P.3       1 NAD502      0.0000 
     25 O1N       -47.7690    2.2330  287.9420 O.co2     1 NAD502      0.0000 
     26 O2N       -49.1120    4.1320  288.7400 O.co2     1 NAD502      0.0000 
     27 O5D       -49.5290    1.7610  289.8070 O.3       1 NAD502      0.0000 
     28 C5D       -49.5030    0.3700  289.4010 C.3       1 NAD502      0.0000 
     29 C4D       -50.8740    0.0490  288.8870 C.3       1 NAD502      0.0000 
     30 O4D       -51.8640    0.9270  289.6330 O.3       1 NAD502      0.0000 
     31 C3D       -50.9460    0.3950  287.4610 C.3       1 NAD502      0.0000 
     32 O3D       -50.8470   -0.7980  286.6280 O.3       1 NAD502      0.0000 
     33 C2D       -52.2350    1.0540  287.2380 C.3       1 NAD502      0.0000 
     34 O2D       -53.0810    0.1850  286.4410 O.3       1 NAD502      0.0000 
     35 C1D       -52.8420    1.3410  288.5580 C.3       1 NAD502      0.0000 
     36 N1N       -53.1450    2.7310  288.6450 N.pl3     1 NAD502      0.0000 
     37 C2N       -54.3930    3.1640  288.3090 C.ar      1 NAD502      0.0000 
     38 C3N       -54.7120    4.5330  288.3850 C.ar      1 NAD502      0.0000 
     39 C7N       -56.1170    4.9980  287.9960 C.2       1 NAD502      0.0000 
     40 O7N       -57.0700    4.5500  288.5170 O.2       1 NAD502      0.0000 
     41 N7N       -56.2860    5.9910  286.9400 N.am      1 NAD502      0.0000 
     42 C4N       -53.7650    5.4200  288.7940 C.ar      1 NAD502      0.0000 
     43 C5N       -52.5190    4.9700  289.1280 C.ar      1 NAD502      0.0000 
     44 C6N       -52.2160    3.6130  289.0490 C.ar      1 NAD502      0.0000 
@<TRIPOS>BOND
     1    1    2 ar   
     2    1    3 ar   
     3    1    4 1    
     4    1   23 1    
     5    4    5 1    
     6    5    6 1    
     7    6    7 1    
     8    6    8 1    
     9    7   12 1    
    10    8    9 1    
    11    8   10 1    
    12   10   11 1    
    13   10   12 1    
    14   12   13 1    
    15   13   14 1    
    16   13   22 1    
    17   14   15 2    
    18   15   16 1    
    19   16   17 ar   
    20   16   22 ar   
    21   17   18 1    
    22   17   19 ar   
    23   19   20 ar   
    24   20   21 ar   
    25   21   22 ar   
    26   23   24 1    
    27   24   25 ar   
    28   24   26 ar   
    29   24   27 1    
    30   27   28 1    
    31   28   29 1    
    32   29   30 1    
    33   29   31 1    
    34   30   35 1    
    35   31   32 1    
    36   31   33 1    
    37   33   34 1    
    38   33   35 1    
    39   35   36 1    
    40   36   37 ar   
    41   36   44 ar   
    42   37   38 ar   
    43   38   39 1    
    44   38   42 ar   
    45   39   40 2    
    46   39   41 am   
    47   42   43 ar   
    48   43   44 ar   
@<TRIPOS>SUBSTRUCTURE
     1 NAD502      1 GROUP   
@<TRIPOS>SET
ATOM$ORANGE STATIC     ATOMS   COLORGROUP SYSTEM 
42 5 5 6 6 8 8 10 10 12 12 14 14 16 16 17 17 20 \
20 22 22 28 28 29 29 31 31 33 33 35 35 37 37 38 38 39 \
39 42 42 43 43 44 44 

