#    Name: 6dft_8_NAD
#    Modification time : Fri May 22 19:30:41 2020

@<TRIPOS>MOLECULE
6dft_8_NAD
   44    48     1     0     1
SMALL
NO_CHARGES


@<TRIPOS>ATOM
      1 PA        -60.9710   44.2240  380.2360 P.3       1 NAD500      0.0000 
      2 O1A       -59.5730   44.1390  380.8130 O.co2     1 NAD500      0.0000 
      3 O2A       -61.3790   42.8690  379.7140 O.co2     1 NAD500      0.0000 
      4 O5B       -61.0070   45.2990  378.9520 O.3       1 NAD500      0.0000 
      5 C5B       -61.6030   44.8240  377.7530 C.3       1 NAD500      0.0000 
      6 C4B       -62.2360   45.9810  377.0440 C.3       1 NAD500      0.0000 
      7 O4B       -62.4690   47.1020  378.0050 O.3       1 NAD500      0.0000 
      8 C3B       -61.3160   46.4760  376.0160 C.3       1 NAD500      0.0000 
      9 O3B       -61.5770   45.8170  374.7440 O.3       1 NAD500      0.0000 
     10 C2B       -61.5730   47.9220  375.9370 C.3       1 NAD500      0.0000 
     11 O2B       -62.6230   48.1840  374.9510 O.3       1 NAD500      0.0000 
     12 C1B       -62.0420   48.3350  377.2660 C.3       1 NAD500      0.0000 
     13 N9A       -60.9780   49.0030  377.9730 N.pl3     1 NAD500      0.0000 
     14 C8A       -60.0810   48.3900  378.6130 C.2       1 NAD500      0.0000 
     15 N7A       -59.2530   49.3020  379.1520 N.2       1 NAD500      0.0000 
     16 C5A       -59.7170   50.5500  378.7900 C.ar      1 NAD500      0.0000 
     17 C6A       -59.3340   51.8720  379.0090 C.ar      1 NAD500      0.0000 
     18 N6A       -58.1520   52.1740  379.8130 N.pl3     1 NAD500      0.0000 
     19 N1A       -60.0490   52.8360  378.4850 N.ar      1 NAD500      0.0000 
     20 C2A       -61.1240   52.5790  377.7510 C.ar      1 NAD500      0.0000 
     21 N3A       -61.5330   51.3430  377.5100 N.ar      1 NAD500      0.0000 
     22 C4A       -60.8720   50.3130  378.0010 C.ar      1 NAD500      0.0000 
     23 O3        -62.0390   44.7170  381.4380 O.3       1 NAD500      0.0000 
     24 PN        -62.2950   43.8140  382.8130 P.3       1 NAD500      0.0000 
     25 O1N       -63.5660   43.0270  382.6610 O.co2     1 NAD500      0.0000 
     26 O2N       -62.4050   44.7150  384.0260 O.co2     1 NAD500      0.0000 
     27 O5D       -61.0050   42.7350  383.0130 O.3       1 NAD500      0.0000 
     28 C5D       -61.1170   41.4010  382.4530 C.3       1 NAD500      0.0000 
     29 C4D       -61.1820   40.4010  383.5750 C.3       1 NAD500      0.0000 
     30 O4D       -59.8520   40.3760  384.3060 O.3       1 NAD500      0.0000 
     31 C3D       -62.2280   40.8070  384.5270 C.3       1 NAD500      0.0000 
     32 O3D       -63.3410   39.8700  384.4890 O.3       1 NAD500      0.0000 
     33 C2D       -61.6430   40.8260  385.8710 C.3       1 NAD500      0.0000 
     34 O2D       -62.4400   39.9800  386.7380 O.3       1 NAD500      0.0000 
     35 C1D       -60.2790   40.2790  385.7510 C.3       1 NAD500      0.0000 
     36 N1N       -59.3660   40.9860  386.5840 N.pl3     1 NAD500      0.0000 
     37 C2N       -58.4510   41.8460  386.0380 C.ar      1 NAD500      0.0000 
     38 C3N       -57.5490   42.5320  386.8850 C.ar      1 NAD500      0.0000 
     39 C7N       -56.5180   43.5010  386.3020 C.2       1 NAD500      0.0000 
     40 O7N       -56.1450   44.4210  386.9380 O.2       1 NAD500      0.0000 
     41 N7N       -55.9830   43.2850  384.9580 N.am      1 NAD500      0.0000 
     42 C4N       -57.5990   42.3240  388.2290 C.ar      1 NAD500      0.0000 
     43 C5N       -58.5150   41.4570  388.7540 C.ar      1 NAD500      0.0000 
     44 C6N       -59.4000   40.7910  387.9110 C.ar      1 NAD500      0.0000 
@<TRIPOS>BOND
     1    1    2 ar   
     2    1    3 ar   
     3    1    4 1    
     4    1   23 1    
     5    4    5 1    
     6    5    6 1    
     7    6    7 1    
     8    6    8 1    
     9    7   12 1    
    10    8    9 1    
    11    8   10 1    
    12   10   11 1    
    13   10   12 1    
    14   12   13 1    
    15   13   14 1    
    16   13   22 1    
    17   14   15 2    
    18   15   16 1    
    19   16   17 ar   
    20   16   22 ar   
    21   17   18 1    
    22   17   19 ar   
    23   19   20 ar   
    24   20   21 ar   
    25   21   22 ar   
    26   23   24 1    
    27   24   25 ar   
    28   24   26 ar   
    29   24   27 1    
    30   27   28 1    
    31   28   29 1    
    32   29   30 1    
    33   29   31 1    
    34   30   35 1    
    35   31   32 1    
    36   31   33 1    
    37   33   34 1    
    38   33   35 1    
    39   35   36 1    
    40   36   37 ar   
    41   36   44 ar   
    42   37   38 ar   
    43   38   39 1    
    44   38   42 ar   
    45   39   40 2    
    46   39   41 am   
    47   42   43 ar   
    48   43   44 ar   
@<TRIPOS>SUBSTRUCTURE
     1 NAD500      1 GROUP   
@<TRIPOS>SET
ATOM$ORANGE STATIC     ATOMS   COLORGROUP SYSTEM 
42 5 5 6 6 8 8 10 10 12 12 14 14 16 16 17 17 20 \
20 22 22 28 28 29 29 31 31 33 33 35 35 37 37 38 38 39 \
39 42 42 43 43 44 44 

