#    Name: 6mb1_1_YNC
#    Modification time : Fri May 22 19:33:11 2020

@<TRIPOS>MOLECULE
6mb1_1_YNC
   63    65     1     0     0
SMALL
NO_CHARGES


@<TRIPOS>ATOM
      1 C          38.3350  -19.1550  -23.5280 C.ar      1 YNC501      0.0000 
      2 N          37.1120  -18.6340  -23.3750 N.pl3     1 YNC501      0.0000 
      3 O          43.0030  -18.9580  -27.5260 O.3       1 YNC501      0.0000 
      4 P          46.2380  -19.5550  -27.7050 P.3       1 YNC501      0.0000 
      5 S          33.7340  -19.4910  -21.4510 S.3       1 YNC501      0.0000 
      6 C1         39.7870  -20.9260  -23.2110 C.ar      1 YNC501      0.0000 
      7 N1         38.5670  -20.4010  -23.0650 N.ar      1 YNC501      0.0000 
      8 O1         45.4950  -19.1140  -26.3640 O.3       1 YNC501      0.0000 
      9 P1         44.9260  -13.8670  -23.0750 P.3       1 YNC501      0.0000 
     10 C2         40.6190  -19.1460  -24.2040 C.ar      1 YNC501      0.0000 
     11 N2         40.8730  -20.3800  -23.7690 N.ar      1 YNC501      0.0000 
     12 O2         46.7260  -20.9910  -27.5230 O.co2     1 YNC501      0.0000 
     13 P2         42.2970  -12.6240  -23.0810 P.3       1 YNC501      0.0000 
     14 C3         39.4110  -18.4710  -24.1350 C.ar      1 YNC501      0.0000 
     15 N3         39.5200  -17.2050  -24.6850 N.2       1 YNC501      0.0000 
     16 O3         45.1880  -19.4790  -28.8080 O.co2     1 YNC501      0.0000 
     17 C4         40.7760  -17.1380  -25.0610 C.2       1 YNC501      0.0000 
     18 N4         41.4970  -18.2740  -24.8040 N.pl3     1 YNC501      0.0000 
     19 O4         47.3290  -18.5470  -27.8930 O.co2     1 YNC501      0.0000 
     20 C5         42.9020  -18.5080  -25.1150 C.3       1 YNC501      0.0000 
     21 N5         36.4270  -12.3710  -22.1150 N.am      1 YNC501      0.0000 
     22 O5         45.0220  -15.4150  -23.4360 O.3       1 YNC501      0.0000 
     23 C6         43.3060  -18.0180  -26.5020 C.3       1 YNC501      0.0000 
     24 N6         34.7190  -15.6430  -20.7860 N.am      1 YNC501      0.0000 
     25 O6         44.9010  -13.7370  -21.5750 O.co2     1 YNC501      0.0000 
     26 C7         44.8040  -17.8470  -26.2960 C.3       1 YNC501      0.0000 
     27 O7         43.4810  -13.5220  -23.6380 O.3       1 YNC501      0.0000 
     28 C8         44.8960  -17.3130  -24.8700 C.3       1 YNC501      0.0000 
     29 O8         41.3340  -12.3300  -24.1710 O.co2     1 YNC501      0.0000 
     30 C9         44.9650  -15.8110  -24.8160 C.3       1 YNC501      0.0000 
     31 O9         41.5900  -13.5370  -21.9670 O.3       1 YNC501      0.0000 
     32 C10        40.5730  -14.4880  -22.3360 C.3       1 YNC501      0.0000 
     33 O10        34.4030  -19.4930  -18.9230 O.2       1 YNC501      0.0000 
     34 C11        39.2920  -14.2010  -21.5620 C.3       1 YNC501      0.0000 
     35 O11        34.3570  -14.6700  -22.7810 O.2       1 YNC501      0.0000 
     36 C12        38.2190  -15.2100  -21.9940 C.3       1 YNC501      0.0000 
     37 O12        37.3280  -12.2180  -20.0520 O.2       1 YNC501      0.0000 
     38 C13        39.5840  -14.3670  -20.0640 C.3       1 YNC501      0.0000 
     39 O13        38.7970  -12.4910  -23.2420 O.3       1 YNC501      0.0000 
     40 C14        38.8100  -12.7550  -21.8480 C.3       1 YNC501      0.0000 
     41 O14        42.9150  -11.4660  -22.3400 O.co2     1 YNC501      0.0000 
     42 C15        37.4490  -12.4180  -21.2580 C.2       1 YNC501      0.0000 
     43 O15        45.9480  -13.0790  -23.8090 O.co2     1 YNC501      0.0000 
     44 C16        35.0590  -12.1070  -21.6930 C.3       1 YNC501      0.0000 
     45 O16        43.6890  -17.7590  -24.2070 O.3       1 YNC501      0.0000 
     46 C17        34.4910  -13.2410  -20.8510 C.3       1 YNC501      0.0000 
     47 C18        34.5270  -14.5780  -21.5650 C.2       1 YNC501      0.0000 
     48 C19        34.7030  -17.0090  -21.2920 C.3       1 YNC501      0.0000 
     49 C20        33.4140  -17.7570  -20.9900 C.3       1 YNC501      0.0000 
     50 C21        34.4470  -20.0990  -19.9590 C.2       1 YNC501      0.0000 
     51 C22        34.9630  -21.5070  -20.0760 C.3       1 YNC501      0.0000 
     52 C23        36.4820  -21.3100  -19.9600 C.3       1 YNC501      0.0000 
     53 C24        37.3030  -22.5780  -20.1760 C.3       1 YNC501      0.0000 
     54 C25        38.8130  -22.4010  -19.9550 C.3       1 YNC501      0.0000 
     55 C26        39.6380  -23.6390  -20.2830 C.3       1 YNC501      0.0000 
     56 C27        39.4980  -24.7440  -19.2610 C.3       1 YNC501      0.0000 
     57 C28        40.3000  -25.9880  -19.6060 C.3       1 YNC501      0.0000 
     58 C29        40.2660  -27.0600  -18.5310 C.3       1 YNC501      0.0000 
     59 C30        41.0310  -26.6700  -17.2660 C.3       1 YNC501      0.0000 
     60 C31        40.9710  -27.7100  -16.1380 C.3       1 YNC501      0.0000 
     61 C32        41.5620  -29.0780  -16.4660 C.3       1 YNC501      0.0000 
     62 C33        41.4640  -30.0560  -15.3080 C.1       1 YNC501      0.0000 
     63 C34        41.9130  -31.4520  -15.6550 C.1       1 YNC501      0.0000 
@<TRIPOS>BOND
     1    1    2 1    
     2    1    7 ar   
     3    1   14 ar   
     4    3   23 1    
     5    4    8 1    
     6    4   12 ar   
     7    4   16 ar   
     8    4   19 ar   
     9    5   49 1    
    10    5   50 1    
    11    6    7 ar   
    12    6   11 ar   
    13    8   26 1    
    14    9   22 1    
    15    9   25 ar   
    16    9   27 1    
    17    9   43 ar   
    18   10   11 ar   
    19   10   14 ar   
    20   10   18 1    
    21   13   27 1    
    22   13   29 ar   
    23   13   31 1    
    24   13   41 ar   
    25   14   15 1    
    26   15   17 2    
    27   17   18 1    
    28   18   20 1    
    29   20   23 1    
    30   20   45 1    
    31   21   42 am   
    32   21   44 1    
    33   22   30 1    
    34   23   26 1    
    35   24   47 am   
    36   24   48 1    
    37   26   28 1    
    38   28   30 1    
    39   28   45 1    
    40   31   32 1    
    41   32   34 1    
    42   33   50 2    
    43   34   36 1    
    44   34   38 1    
    45   34   40 1    
    46   35   47 2    
    47   37   42 2    
    48   39   40 1    
    49   40   42 1    
    50   44   46 1    
    51   46   47 1    
    52   48   49 1    
    53   50   51 1    
    54   51   52 1    
    55   52   53 1    
    56   53   54 1    
    57   54   55 1    
    58   55   56 1    
    59   56   57 1    
    60   57   58 1    
    61   58   59 1    
    62   59   60 1    
    63   60   61 1    
    64   61   62 1    
    65   62   63 3    
@<TRIPOS>SUBSTRUCTURE
     1 YNC501      1 GROUP   
@<TRIPOS>SET

