#    Name: 6mb1_2_YNC
#    Modification time : Fri May 22 19:33:17 2020

@<TRIPOS>MOLECULE
6mb1_2_YNC
   63    65     1     0     0
SMALL
NO_CHARGES


@<TRIPOS>ATOM
      1 C           1.3740  -38.0430  -54.0890 C.ar      1 YNC501      0.0000 
      2 N           2.6070  -37.9340  -54.5950 N.pl3     1 YNC501      0.0000 
      3 O          -3.2910  -34.3940  -52.4820 O.3       1 YNC501      0.0000 
      4 P          -6.5670  -34.4790  -51.9060 P.3       1 YNC501      0.0000 
      5 S           5.9380  -40.0570  -54.7550 S.3       1 YNC501      0.0000 
      6 C1         -0.0850  -39.1100  -52.6440 C.ar      1 YNC501      0.0000 
      7 N1          1.1320  -39.0210  -53.1890 N.ar      1 YNC501      0.0000 
      8 O1         -5.8050  -35.4670  -52.8930 O.3       1 YNC501      0.0000 
      9 P1         -5.2260  -36.0330  -59.0420 P.3       1 YNC501      0.0000 
     10 C2         -0.8970  -37.4060  -53.7770 C.ar      1 YNC501      0.0000 
     11 N2         -1.1560  -38.3450  -52.8610 N.ar      1 YNC501      0.0000 
     12 O2         -7.0400  -35.3140  -50.7080 O.co2     1 YNC501      0.0000 
     13 P2         -2.5770  -35.4670  -60.1760 P.3       1 YNC501      0.0000 
     14 C3          0.3110  -37.1810  -54.4210 C.ar      1 YNC501      0.0000 
     15 N3          0.2040  -36.1300  -55.3170 N.2       1 YNC501      0.0000 
     16 O3         -5.5180  -33.4490  -51.4750 O.co2     1 YNC501      0.0000 
     17 C4         -1.0490  -35.7540  -55.2060 C.2       1 YNC501      0.0000 
     18 N4         -1.7730  -36.4820  -54.2980 N.pl3     1 YNC501      0.0000 
     19 O4         -7.7020  -33.8450  -52.6880 O.co2     1 YNC501      0.0000 
     20 C5         -3.1830  -36.3210  -53.9600 C.3       1 YNC501      0.0000 
     21 N5          3.2750  -36.2720  -60.7810 N.am      1 YNC501      0.0000 
     22 O5         -5.3400  -36.4110  -57.5100 O.3       1 YNC501      0.0000 
     23 C6         -3.5900  -34.8640  -53.7890 C.3       1 YNC501      0.0000 
     24 N6          4.9630  -38.9670  -58.4860 N.am      1 YNC501      0.0000 
     25 O6         -5.2350  -37.3120  -59.8210 O.co2     1 YNC501      0.0000 
     26 C7         -5.0900  -34.9740  -54.0450 C.3       1 YNC501      0.0000 
     27 O7         -3.7710  -35.3920  -59.1290 O.3       1 YNC501      0.0000 
     28 C8         -5.1780  -36.0240  -55.1480 C.3       1 YNC501      0.0000 
     29 O8         -1.6510  -34.3410  -59.9160 O.co2     1 YNC501      0.0000 
     30 C9         -5.2530  -35.3840  -56.5100 C.3       1 YNC501      0.0000 
     31 O9         -1.9070  -36.8800  -59.8500 O.3       1 YNC501      0.0000 
     32 C10        -0.8990  -37.0040  -58.8350 C.3       1 YNC501      0.0000 
     33 O10         5.2690  -42.3240  -55.8600 O.2       1 YNC501      0.0000 
     34 C11         0.3860  -37.5510  -59.4440 C.3       1 YNC501      0.0000 
     35 O11         5.3150  -36.7430  -58.4470 O.2       1 YNC501      0.0000 
     36 C12         1.4450  -37.6150  -58.3430 C.3       1 YNC501      0.0000 
     37 O12         2.3790  -38.0400  -61.8610 O.2       1 YNC501      0.0000 
     38 C13         0.1140  -38.9700  -59.9570 C.3       1 YNC501      0.0000 
     39 O13         0.9240  -35.2800  -60.2260 O.3       1 YNC501      0.0000 
     40 C14         0.8900  -36.6520  -60.6020 C.3       1 YNC501      0.0000 
     41 O14        -3.1930  -35.5930  -61.5680 O.co2     1 YNC501      0.0000 
     42 C15         2.2540  -37.0520  -61.1360 C.2       1 YNC501      0.0000 
     43 O15        -6.2350  -35.0070  -59.3980 O.co2     1 YNC501      0.0000 
     44 C16         4.6440  -36.5350  -61.2010 C.3       1 YNC501      0.0000 
     45 O16        -3.9630  -36.8110  -55.0360 O.3       1 YNC501      0.0000 
     46 C17         5.1910  -37.8100  -60.5870 C.3       1 YNC501      0.0000 
     47 C18         5.1570  -37.7880  -59.0760 C.2       1 YNC501      0.0000 
     48 C19         4.9880  -39.1470  -57.0390 C.3       1 YNC501      0.0000 
     49 C20         6.2860  -39.7340  -56.5080 C.3       1 YNC501      0.0000 
     50 C21         5.2410  -41.6690  -54.8560 C.2       1 YNC501      0.0000 
     51 C22         4.7190  -42.1780  -53.5380 C.3       1 YNC501      0.0000 
     52 C23         3.2010  -42.1950  -53.7400 C.3       1 YNC501      0.0000 
     53 C24         2.3720  -42.5450  -52.4970 C.3       1 YNC501      0.0000 
     54 C25         0.8770  -42.7030  -52.7810 C.3       1 YNC501      0.0000 
     55 C26         0.0310  -42.9630  -51.5400 C.3       1 YNC501      0.0000 
     56 C27         0.1530  -44.3820  -51.0010 C.3       1 YNC501      0.0000 
     57 C28        -0.6240  -44.6200  -49.7150 C.3       1 YNC501      0.0000 
     58 C29        -0.5860  -46.0560  -49.2090 C.3       1 YNC501      0.0000 
     59 C30        -1.3390  -47.0310  -50.1080 C.3       1 YNC501      0.0000 
     60 C31        -1.2870  -48.4880  -49.6510 C.3       1 YNC501      0.0000 
     61 C32        -1.9100  -48.7710  -48.2930 C.3       1 YNC501      0.0000 
     62 C33        -1.8140  -50.2470  -47.9410 C.1       1 YNC501      0.0000 
     63 C34        -2.3770  -50.5740  -46.5670 C.1       1 YNC501      0.0000 
@<TRIPOS>BOND
     1    1    2 1    
     2    1    7 ar   
     3    1   14 ar   
     4    3   23 1    
     5    4    8 1    
     6    4   12 ar   
     7    4   16 ar   
     8    4   19 ar   
     9    5   49 1    
    10    5   50 1    
    11    6    7 ar   
    12    6   11 ar   
    13    8   26 1    
    14    9   22 1    
    15    9   25 ar   
    16    9   27 1    
    17    9   43 ar   
    18   10   11 ar   
    19   10   14 ar   
    20   10   18 1    
    21   13   27 1    
    22   13   29 ar   
    23   13   31 1    
    24   13   41 ar   
    25   14   15 1    
    26   15   17 2    
    27   17   18 1    
    28   18   20 1    
    29   20   23 1    
    30   20   45 1    
    31   21   42 am   
    32   21   44 1    
    33   22   30 1    
    34   23   26 1    
    35   24   47 am   
    36   24   48 1    
    37   26   28 1    
    38   28   30 1    
    39   28   45 1    
    40   31   32 1    
    41   32   34 1    
    42   33   50 2    
    43   34   36 1    
    44   34   38 1    
    45   34   40 1    
    46   35   47 2    
    47   37   42 2    
    48   39   40 1    
    49   40   42 1    
    50   44   46 1    
    51   46   47 1    
    52   48   49 1    
    53   50   51 1    
    54   51   52 1    
    55   52   53 1    
    56   53   54 1    
    57   54   55 1    
    58   55   56 1    
    59   56   57 1    
    60   57   58 1    
    61   58   59 1    
    62   59   60 1    
    63   60   61 1    
    64   61   62 1    
    65   62   63 3    
@<TRIPOS>SUBSTRUCTURE
     1 YNC501      1 GROUP   
@<TRIPOS>SET

