#    Name: 6mb1_3_YNC
#    Modification time : Fri May 22 19:33:23 2020

@<TRIPOS>MOLECULE
6mb1_3_YNC
   63    65     1     0     0
SMALL
NO_CHARGES


@<TRIPOS>ATOM
      1 C          17.1680  -69.0370   -2.4250 C.ar      1 YNC501      0.0000 
      2 N          15.9350  -69.4400   -2.0880 N.pl3     1 YNC501      0.0000 
      3 O          21.8300  -65.9330   -0.0920 O.3       1 YNC501      0.0000 
      4 P          25.1280  -65.4490   -0.4120 P.3       1 YNC501      0.0000 
      5 S          12.6060  -70.6560   -3.8400 S.3       1 YNC501      0.0000 
      6 C1         18.6370  -68.3020   -4.0540 C.ar      1 YNC501      0.0000 
      7 N1         17.4070  -68.7040   -3.7130 N.ar      1 YNC501      0.0000 
      8 O1         24.3370  -66.7880   -0.8050 O.3       1 YNC501      0.0000 
      9 P1         23.8130  -72.4500    1.7260 P.3       1 YNC501      0.0000 
     10 C2         19.4570  -68.5210   -2.0210 C.ar      1 YNC501      0.0000 
     11 N2         19.7210  -68.1740   -3.2840 N.ar      1 YNC501      0.0000 
     12 O2         25.6190  -64.7830   -1.6710 O.co2     1 YNC501      0.0000 
     13 P2         21.1800  -73.1680    2.7670 P.3       1 YNC501      0.0000 
     14 C3         18.2400  -68.9460   -1.5140 C.ar      1 YNC501      0.0000 
     15 N3         18.3460  -69.2390   -0.1620 N.2       1 YNC501      0.0000 
     16 O3         24.0900  -64.5390    0.2640 O.co2     1 YNC501      0.0000 
     17 C4         19.6060  -68.9930    0.1100 C.2       1 YNC501      0.0000 
     18 N4         20.3350  -68.5530   -0.9640 N.pl3     1 YNC501      0.0000 
     19 O4         26.1890  -65.8660    0.5680 O.co2     1 YNC501      0.0000 
     20 C5         21.7410  -68.1780   -0.9860 C.3       1 YNC501      0.0000 
     21 N5         15.3180  -74.1560    2.3780 N.am      1 YNC501      0.0000 
     22 O5         23.9060  -71.2970    0.6240 O.3       1 YNC501      0.0000 
     23 C6         22.1500  -67.2930    0.1820 C.3       1 YNC501      0.0000 
     24 N6         13.6350  -73.4050   -1.0940 N.am      1 YNC501      0.0000 
     25 O6         23.8130  -73.7560    0.9840 O.co2     1 YNC501      0.0000 
     26 C7         23.6510  -67.5600    0.2040 C.3       1 YNC501      0.0000 
     27 O7         22.3510  -72.1980    2.3070 O.3       1 YNC501      0.0000 
     28 C8         23.7450  -69.0420   -0.1560 C.3       1 YNC501      0.0000 
     29 O8         20.2180  -72.4310    3.6360 O.co2     1 YNC501      0.0000 
     30 C9         23.8420  -69.9300    1.0550 C.3       1 YNC501      0.0000 
     31 O9         20.4970  -73.5640    1.3810 O.3       1 YNC501      0.0000 
     32 C10        19.4850  -72.7200    0.8110 C.3       1 YNC501      0.0000 
     33 O10        13.3010  -72.7090   -5.3000 O.2       1 YNC501      0.0000 
     34 C11        18.2050  -73.5200    0.5990 C.3       1 YNC501      0.0000 
     35 O11        13.2340  -72.3150    0.8360 O.2       1 YNC501      0.0000 
     36 C12        17.1290  -72.5830    0.0250 C.3       1 YNC501      0.0000 
     37 O12        16.2380  -75.9040    1.2810 O.2       1 YNC501      0.0000 
     38 C13        18.4960  -74.6380   -0.4090 C.3       1 YNC501      0.0000 
     39 O13        17.6720  -73.1130    2.9370 O.3       1 YNC501      0.0000 
     40 C14        17.7050  -74.1250    1.9360 C.3       1 YNC501      0.0000 
     41 O14        21.8010  -74.4210    3.2980 O.co2     1 YNC501      0.0000 
     42 C15        16.3490  -74.8130    1.8430 C.2       1 YNC501      0.0000 
     43 O15        24.8480  -72.2830    2.7850 O.co2     1 YNC501      0.0000 
     44 C16        13.9490  -74.6560    2.3350 C.3       1 YNC501      0.0000 
     45 O16        22.5310  -69.3500   -0.8810 O.3       1 YNC501      0.0000 
     46 C17        13.3970  -74.7070    0.9160 C.3       1 YNC501      0.0000 
     47 C18        13.4250  -73.3650    0.2220 C.2       1 YNC501      0.0000 
     48 C19        13.5910  -72.2160   -1.9350 C.3       1 YNC501      0.0000 
     49 C20        12.2940  -72.0540   -2.7130 C.3       1 YNC501      0.0000 
     50 C21        13.3150  -71.5120   -5.2090 C.2       1 YNC501      0.0000 
     51 C22        13.8170  -70.5960   -6.2930 C.3       1 YNC501      0.0000 
     52 C23        15.3390  -70.7670   -6.2160 C.3       1 YNC501      0.0000 
     53 C24        16.1830  -69.8540   -7.1210 C.3       1 YNC501      0.0000 
     54 C25        17.6890  -70.1550   -7.0550 C.3       1 YNC501      0.0000 
     55 C26        18.5550  -69.2100   -7.8830 C.3       1 YNC501      0.0000 
     56 C27        18.4210  -69.4280   -9.3870 C.3       1 YNC501      0.0000 
     57 C28        19.2230  -68.4380  -10.2260 C.3       1 YNC501      0.0000 
     58 C29        19.1850  -68.7090  -11.7200 C.3       1 YNC501      0.0000 
     59 C30        20.0300  -69.9080  -12.1460 C.3       1 YNC501      0.0000 
     60 C31        19.9590  -70.2470  -13.6340 C.3       1 YNC501      0.0000 
     61 C32        20.5630  -69.1940  -14.5570 C.3       1 YNC501      0.0000 
     62 C33        20.3870  -69.5530  -16.0230 C.1       1 YNC501      0.0000 
     63 C34        21.0050  -68.5900  -16.9790 C.1       1 YNC501      0.0000 
@<TRIPOS>BOND
     1    1    2 1    
     2    1    7 ar   
     3    1   14 ar   
     4    3   23 1    
     5    4    8 1    
     6    4   12 ar   
     7    4   16 ar   
     8    4   19 ar   
     9    5   49 1    
    10    5   50 1    
    11    6    7 ar   
    12    6   11 ar   
    13    8   26 1    
    14    9   22 1    
    15    9   25 ar   
    16    9   27 1    
    17    9   43 ar   
    18   10   11 ar   
    19   10   14 ar   
    20   10   18 1    
    21   13   27 1    
    22   13   29 ar   
    23   13   31 1    
    24   13   41 ar   
    25   14   15 1    
    26   15   17 2    
    27   17   18 1    
    28   18   20 1    
    29   20   23 1    
    30   20   45 1    
    31   21   42 am   
    32   21   44 1    
    33   22   30 1    
    34   23   26 1    
    35   24   47 am   
    36   24   48 1    
    37   26   28 1    
    38   28   30 1    
    39   28   45 1    
    40   31   32 1    
    41   32   34 1    
    42   33   50 2    
    43   34   36 1    
    44   34   38 1    
    45   34   40 1    
    46   35   47 2    
    47   37   42 2    
    48   39   40 1    
    49   40   42 1    
    50   44   46 1    
    51   46   47 1    
    52   48   49 1    
    53   50   51 1    
    54   51   52 1    
    55   52   53 1    
    56   53   54 1    
    57   54   55 1    
    58   55   56 1    
    59   56   57 1    
    60   57   58 1    
    61   58   59 1    
    62   59   60 1    
    63   60   61 1    
    64   61   62 1    
    65   62   63 3    
@<TRIPOS>SUBSTRUCTURE
     1 YNC501      1 GROUP   
@<TRIPOS>SET

