#    Name: 5w4c_2_FAD
#    Modification time : Fri May 22 19:12:25 2020

@<TRIPOS>MOLECULE
5w4c_2_FAD
   53    58     1     0     1
SMALL
NO_CHARGES


@<TRIPOS>ATOM
      1 PA         -9.2690   25.0600   -9.6600 P.3       1 FAD401      0.0000 
      2 O1A       -10.3360   25.8330   -8.9940 O.co2     1 FAD401      0.0000 
      3 O2A        -7.8500   25.4710   -9.2700 O.co2     1 FAD401      0.0000 
      4 O5B        -9.4630   25.0520  -11.1900 O.3       1 FAD401      0.0000 
      5 C5B       -10.6640   24.5160  -11.7880 C.3       1 FAD401      0.0000 
      6 C4B       -10.5780   24.6690  -13.2870 C.3       1 FAD401      0.0000 
      7 O4B       -11.7170   24.0240  -13.8970 O.3       1 FAD401      0.0000 
      8 C3B       -10.5440   26.1090  -13.8110 C.3       1 FAD401      0.0000 
      9 O3B        -9.5110   26.3450  -14.7670 O.3       1 FAD401      0.0000 
     10 C2B       -11.8830   26.2720  -14.5280 C.3       1 FAD401      0.0000 
     11 O2B       -11.6810   27.0370  -15.7120 O.3       1 FAD401      0.0000 
     12 C1B       -12.2300   24.8380  -14.9170 C.3       1 FAD401      0.0000 
     13 N9A       -13.6720   24.6380  -15.0100 N.pl3     1 FAD401      0.0000 
     14 C8A       -14.6090   25.0830  -14.1170 C.2       1 FAD401      0.0000 
     15 N7A       -15.8460   24.8220  -14.4670 N.2       1 FAD401      0.0000 
     16 C5A       -15.7150   24.1870  -15.6910 C.ar      1 FAD401      0.0000 
     17 C6A       -16.6610   23.6580  -16.5930 C.ar      1 FAD401      0.0000 
     18 N6A       -17.9820   23.6830  -16.3830 N.pl3     1 FAD401      0.0000 
     19 N1A       -16.1950   23.0730  -17.7250 N.ar      1 FAD401      0.0000 
     20 C2A       -14.8760   23.0370  -17.9330 C.ar      1 FAD401      0.0000 
     21 N3A       -13.8950   23.5090  -17.1580 N.ar      1 FAD401      0.0000 
     22 C4A       -14.3810   24.0730  -16.0440 C.ar      1 FAD401      0.0000 
     23 N1         -2.8080   26.7690   -3.3410 N.2       1 FAD401      0.0000 
     24 C2         -1.6000   26.2810   -2.9360 C.2       1 FAD401      0.0000 
     25 O2         -1.4740   25.1440   -2.4750 O.2       1 FAD401      0.0000 
     26 N3         -0.4800   27.0920   -3.0050 N.am      1 FAD401      0.0000 
     27 C4         -0.4380   28.3890   -3.4660 C.2       1 FAD401      0.0000 
     28 O4          0.6340   28.9860   -3.4870 O.2       1 FAD401      0.0000 
     29 C4X        -1.7270   28.9080   -3.8900 C.2       1 FAD401      0.0000 
     30 N5         -1.7830   30.1450   -4.3770 N.2       1 FAD401      0.0000 
     31 C5X        -3.0300   30.6220   -4.7940 C.ar      1 FAD401      0.0000 
     32 C6         -3.1230   31.9230   -5.2920 C.ar      1 FAD401      0.0000 
     33 C7         -4.3370   32.4480   -5.7160 C.ar      1 FAD401      0.0000 
     34 C7M        -4.3980   33.8660   -6.2340 C.3       1 FAD401      0.0000 
     35 C8         -5.4930   31.6530   -5.6450 C.ar      1 FAD401      0.0000 
     36 C8M        -6.8240   32.1860   -6.0950 C.3       1 FAD401      0.0000 
     37 C9         -5.4070   30.3560   -5.1470 C.ar      1 FAD401      0.0000 
     38 C9A        -4.1890   29.8340   -4.7260 C.ar      1 FAD401      0.0000 
     39 N10        -4.0800   28.5290   -4.1980 N.pl3     1 FAD401      0.0000 
     40 C10        -2.8590   28.0260   -3.7910 C.2       1 FAD401      0.0000 
     41 C1'        -5.2630   27.6490   -4.1130 C.3       1 FAD401      0.0000 
     42 C2'        -5.2600   26.5870   -5.2020 C.3       1 FAD401      0.0000 
     43 O2'        -5.0540   27.2480   -6.4490 O.3       1 FAD401      0.0000 
     44 C3'        -6.5650   25.7840   -5.1630 C.3       1 FAD401      0.0000 
     45 O3'        -6.7580   25.2120   -3.8720 O.3       1 FAD401      0.0000 
     46 C4'        -6.5660   24.6370   -6.1770 C.3       1 FAD401      0.0000 
     47 O4'        -6.0740   25.0880   -7.4410 O.3       1 FAD401      0.0000 
     48 C5'        -7.9310   24.0240   -6.3820 C.3       1 FAD401      0.0000 
     49 O5'        -7.8410   23.0650   -7.4550 O.3       1 FAD401      0.0000 
     50 P          -9.1240   22.5100   -8.1680 P.3       1 FAD401      0.0000 
     51 O1P        -8.6540   21.1970   -8.7970 O.co2     1 FAD401      0.0000 
     52 O2P       -10.2440   22.4800   -7.2070 O.co2     1 FAD401      0.0000 
     53 O3P        -9.4630   23.5060   -9.3810 O.3       1 FAD401      0.0000 
@<TRIPOS>BOND
     1    1    2 ar   
     2    1    3 ar   
     3    1    4 1    
     4    1   53 1    
     5    4    5 1    
     6    5    6 1    
     7    6    7 1    
     8    6    8 1    
     9    7   12 1    
    10    8    9 1    
    11    8   10 1    
    12   10   11 1    
    13   10   12 1    
    14   12   13 1    
    15   13   14 1    
    16   13   22 1    
    17   14   15 2    
    18   15   16 1    
    19   16   17 ar   
    20   16   22 ar   
    21   17   18 1    
    22   17   19 ar   
    23   19   20 ar   
    24   20   21 ar   
    25   21   22 ar   
    26   23   24 1    
    27   23   40 2    
    28   24   25 2    
    29   24   26 am   
    30   26   27 am   
    31   27   28 2    
    32   27   29 1    
    33   29   30 2    
    34   29   40 1    
    35   30   31 1    
    36   31   32 ar   
    37   31   38 ar   
    38   32   33 ar   
    39   33   34 1    
    40   33   35 ar   
    41   35   36 1    
    42   35   37 ar   
    43   37   38 ar   
    44   38   39 1    
    45   39   40 1    
    46   39   41 1    
    47   41   42 1    
    48   42   43 1    
    49   42   44 1    
    50   44   45 1    
    51   44   46 1    
    52   46   47 1    
    53   46   48 1    
    54   48   49 1    
    55   49   50 1    
    56   50   51 ar   
    57   50   52 ar   
    58   50   53 1    
@<TRIPOS>SUBSTRUCTURE
     1 FAD401      1 GROUP   
@<TRIPOS>SET
ATOM$ORANGE STATIC     ATOMS   COLORGROUP SYSTEM 
54 5 5 6 6 8 8 10 10 12 12 14 14 16 16 17 17 20 \
20 22 22 24 24 27 27 29 29 31 31 32 32 33 33 34 34 35 \
35 36 36 37 37 38 38 40 40 41 41 42 42 44 44 46 46 48 \
48 

