#    Name: 5w4c_1_FAD
#    Modification time : Fri May 22 19:12:12 2020

@<TRIPOS>MOLECULE
5w4c_1_FAD
   53    58     1     0     1
SMALL
NO_CHARGES


@<TRIPOS>ATOM
      1 PA          6.6000    6.4780    3.8620 P.3       1 FAD401      0.0000 
      2 O1A         6.9110    6.6870    2.4280 O.co2     1 FAD401      0.0000 
      3 O2A         6.0030    5.1180    4.2170 O.co2     1 FAD401      0.0000 
      4 O5B         7.8480    6.8340    4.6760 O.3       1 FAD401      0.0000 
      5 C5B         7.8620    6.7470    6.1170 C.3       1 FAD401      0.0000 
      6 C4B         9.2270    7.1870    6.5840 C.3       1 FAD401      0.0000 
      7 O4B         9.1800    7.4800    7.9990 O.3       1 FAD401      0.0000 
      8 C3B        10.3460    6.1600    6.3840 C.3       1 FAD401      0.0000 
      9 O3B        11.5240    6.7380    5.8350 O.3       1 FAD401      0.0000 
     10 C2B        10.6440    5.6710    7.8010 C.3       1 FAD401      0.0000 
     11 O2B        12.0260    5.3760    7.9480 O.3       1 FAD401      0.0000 
     12 C1B        10.3040    6.9100    8.6240 C.3       1 FAD401      0.0000 
     13 N9A         9.9780    6.5710   10.0030 N.pl3     1 FAD401      0.0000 
     14 C8A         9.1620    5.5520   10.4170 C.2       1 FAD401      0.0000 
     15 N7A         9.0930    5.4180   11.7200 N.2       1 FAD401      0.0000 
     16 C5A         9.9280    6.4180   12.1970 C.ar      1 FAD401      0.0000 
     17 C6A        10.2920    6.8060   13.5020 C.ar      1 FAD401      0.0000 
     18 N6A         9.8350    6.2120   14.6100 N.pl3     1 FAD401      0.0000 
     19 N1A        11.1510    7.8450   13.6300 N.ar      1 FAD401      0.0000 
     20 C2A        11.6010    8.4490   12.5240 C.ar      1 FAD401      0.0000 
     21 N3A        11.3380    8.1640   11.2430 N.ar      1 FAD401      0.0000 
     22 C4A        10.4890    7.1300   11.1490 C.ar      1 FAD401      0.0000 
     23 N1          3.1500    5.9350   -4.9020 N.2       1 FAD401      0.0000 
     24 C2          2.8890    6.7190   -5.9930 C.2       1 FAD401      0.0000 
     25 O2          2.1070    7.6740   -5.9350 O.2       1 FAD401      0.0000 
     26 N3          3.5130    6.4370   -7.2040 N.am      1 FAD401      0.0000 
     27 C4          4.4110    5.4000   -7.4320 C.2       1 FAD401      0.0000 
     28 O4          4.9130    5.2300   -8.5430 O.2       1 FAD401      0.0000 
     29 C4X         4.6830    4.5870   -6.2680 C.2       1 FAD401      0.0000 
     30 N5          5.5190    3.6050   -6.4000 N.2       1 FAD401      0.0000 
     31 C5X         5.7860    2.8190   -5.2940 C.ar      1 FAD401      0.0000 
     32 C6          6.6830    1.7620   -5.4320 C.ar      1 FAD401      0.0000 
     33 C7          6.9880    0.9420   -4.3530 C.ar      1 FAD401      0.0000 
     34 C7M         7.9680   -0.1870   -4.5350 C.3       1 FAD401      0.0000 
     35 C8          6.3930    1.1870   -3.1020 C.ar      1 FAD401      0.0000 
     36 C8M         6.7050    0.3110   -1.9180 C.3       1 FAD401      0.0000 
     37 C9          5.4910    2.2390   -2.9620 C.ar      1 FAD401      0.0000 
     38 C9A         5.1820    3.0510   -4.0460 C.ar      1 FAD401      0.0000 
     39 N10         4.2750    4.1280   -3.9460 N.pl3     1 FAD401      0.0000 
     40 C10         4.0030    4.9240   -5.0450 C.2       1 FAD401      0.0000 
     41 C1'         3.5970    4.4230   -2.6780 C.3       1 FAD401      0.0000 
     42 C2'         4.2240    5.5790   -1.9210 C.3       1 FAD401      0.0000 
     43 O2'         5.6190    5.3370   -1.7550 O.3       1 FAD401      0.0000 
     44 C3'         3.5640    5.6960   -0.5490 C.3       1 FAD401      0.0000 
     45 O3'         2.1540    5.8040   -0.7110 O.3       1 FAD401      0.0000 
     46 C4'         4.0760    6.8950    0.2500 C.3       1 FAD401      0.0000 
     47 O4'         5.4990    6.9880    0.1640 O.3       1 FAD401      0.0000 
     48 C5'         3.6880    6.8500    1.7110 C.3       1 FAD401      0.0000 
     49 O5'         4.2050    8.0400    2.3330 O.3       1 FAD401      0.0000 
     50 P           4.2170    8.2140    3.8680 P.3       1 FAD401      0.0000 
     51 O1P         3.0590    7.4260    4.4860 O.co2     1 FAD401      0.0000 
     52 O2P         4.2050    9.6770    4.1640 O.co2     1 FAD401      0.0000 
     53 O3P         5.5910    7.5870    4.3820 O.3       1 FAD401      0.0000 
@<TRIPOS>BOND
     1    1    2 ar   
     2    1    3 ar   
     3    1    4 1    
     4    1   53 1    
     5    4    5 1    
     6    5    6 1    
     7    6    7 1    
     8    6    8 1    
     9    7   12 1    
    10    8    9 1    
    11    8   10 1    
    12   10   11 1    
    13   10   12 1    
    14   12   13 1    
    15   13   14 1    
    16   13   22 1    
    17   14   15 2    
    18   15   16 1    
    19   16   17 ar   
    20   16   22 ar   
    21   17   18 1    
    22   17   19 ar   
    23   19   20 ar   
    24   20   21 ar   
    25   21   22 ar   
    26   23   24 1    
    27   23   40 2    
    28   24   25 2    
    29   24   26 am   
    30   26   27 am   
    31   27   28 2    
    32   27   29 1    
    33   29   30 2    
    34   29   40 1    
    35   30   31 1    
    36   31   32 ar   
    37   31   38 ar   
    38   32   33 ar   
    39   33   34 1    
    40   33   35 ar   
    41   35   36 1    
    42   35   37 ar   
    43   37   38 ar   
    44   38   39 1    
    45   39   40 1    
    46   39   41 1    
    47   41   42 1    
    48   42   43 1    
    49   42   44 1    
    50   44   45 1    
    51   44   46 1    
    52   46   47 1    
    53   46   48 1    
    54   48   49 1    
    55   49   50 1    
    56   50   51 ar   
    57   50   52 ar   
    58   50   53 1    
@<TRIPOS>SUBSTRUCTURE
     1 FAD401      1 GROUP   
@<TRIPOS>SET
ATOM$ORANGE STATIC     ATOMS   COLORGROUP SYSTEM 
54 5 5 6 6 8 8 10 10 12 12 14 14 16 16 17 17 20 \
20 22 22 24 24 27 27 29 29 31 31 32 32 33 33 34 34 35 \
35 36 36 37 37 38 38 40 40 41 41 42 42 44 44 46 46 48 \
48 

