#    Name: 6ix8_2_SAM
#    Modification time : Fri May 22 19:32:35 2020

@<TRIPOS>MOLECULE
6ix8_2_SAM
   27    29     1     0     0
SMALL
NO_CHARGES


@<TRIPOS>ATOM
      1 N         -59.0020   -7.8430   33.9790 N.4       1 SAM401      0.0000 
      2 CA        -58.9500   -9.3170   33.9620 C.3       1 SAM401      0.0000 
      3 C         -58.0130   -9.8160   35.0970 C.2       1 SAM401      0.0000 
      4 O         -56.9530   -9.2820   35.3770 O.co2     1 SAM401      0.0000 
      5 OXT       -58.3710  -10.7560   35.8410 O.co2     1 SAM401      0.0000 
      6 CB        -58.5520   -9.9070   32.6060 C.3       1 SAM401      0.0000 
      7 CG        -57.5190   -9.2770   31.6720 C.3       1 SAM401      0.0000 
      8 SD        -57.2100  -10.1420   30.0480 S.3       1 SAM401      0.0000 
      9 CE        -55.5300   -9.4780   29.8790 C.3       1 SAM401      0.0000 
     10 C5'       -58.0550   -8.9200   28.9600 C.3       1 SAM401      0.0000 
     11 C4'       -59.5800   -9.1060   29.0740 C.3       1 SAM401      0.0000 
     12 O4'       -60.1790   -8.1130   28.2780 O.3       1 SAM401      0.0000 
     13 C3'       -60.1090  -10.4450   28.5690 C.3       1 SAM401      0.0000 
     14 O3'       -60.9800  -11.0370   29.5280 O.3       1 SAM401      0.0000 
     15 C2'       -60.8380  -10.1120   27.2940 C.3       1 SAM401      0.0000 
     16 O2'       -61.9210  -10.9300   27.0120 O.3       1 SAM401      0.0000 
     17 C1'       -61.3090   -8.7120   27.6320 C.3       1 SAM401      0.0000 
     18 N9        -61.5900   -7.9370   26.4530 N.pl3     1 SAM401      0.0000 
     19 C8        -60.8890   -7.8380   25.2790 C.2       1 SAM401      0.0000 
     20 N7        -61.4940   -6.9700   24.4280 N.2       1 SAM401      0.0000 
     21 C5        -62.6260   -6.5090   25.0890 C.ar      1 SAM401      0.0000 
     22 C6        -63.5860   -5.5640   24.6850 C.ar      1 SAM401      0.0000 
     23 N6        -63.5450   -4.9560   23.4970 N.pl3     1 SAM401      0.0000 
     24 N1        -64.5510   -5.3110   25.5980 N.ar      1 SAM401      0.0000 
     25 C2        -64.6130   -5.9490   26.8110 C.ar      1 SAM401      0.0000 
     26 N3        -63.6870   -6.8620   27.2500 N.ar      1 SAM401      0.0000 
     27 C4        -62.6970   -7.1010   26.3540 C.ar      1 SAM401      0.0000 
@<TRIPOS>BOND
     1    1    2 1    
     2    2    3 1    
     3    2    6 1    
     4    3    4 ar   
     5    3    5 ar   
     6    6    7 1    
     7    7    8 1    
     8    8    9 1    
     9    8   10 1    
    10   10   11 1    
    11   11   12 1    
    12   11   13 1    
    13   12   17 1    
    14   13   14 1    
    15   13   15 1    
    16   15   16 1    
    17   15   17 1    
    18   17   18 1    
    19   18   19 1    
    20   18   27 1    
    21   19   20 2    
    22   20   21 1    
    23   21   22 ar   
    24   21   27 ar   
    25   22   23 1    
    26   22   24 ar   
    27   24   25 ar   
    28   25   26 ar   
    29   26   27 ar   
@<TRIPOS>SUBSTRUCTURE
     1 SAM401      1 GROUP   
@<TRIPOS>SET

