#    Name: 6ix8_1_SAM
#    Modification time : Fri May 22 19:32:30 2020

@<TRIPOS>MOLECULE
6ix8_1_SAM
   27    29     1     0     0
SMALL
NO_CHARGES


@<TRIPOS>ATOM
      1 N         -12.1280  -28.2740   13.0920 N.4       1 SAM401      0.0000 
      2 CA        -12.1920  -26.8140   13.0120 C.3       1 SAM401      0.0000 
      3 C         -12.0130  -26.3040   14.4600 C.2       1 SAM401      0.0000 
      4 O         -12.4760  -26.8770   15.4490 O.co2     1 SAM401      0.0000 
      5 OXT       -11.3120  -25.3160   14.6930 O.co2     1 SAM401      0.0000 
      6 CB        -13.4480  -26.2650   12.3300 C.3       1 SAM401      0.0000 
      7 CG        -14.7870  -26.9640   12.4670 C.3       1 SAM401      0.0000 
      8 SD        -16.1540  -26.1090   11.5190 S.3       1 SAM401      0.0000 
      9 CE        -17.4020  -26.6380   12.7250 C.3       1 SAM401      0.0000 
     10 C5'       -16.3790  -27.3960   10.2680 C.3       1 SAM401      0.0000 
     11 C4'       -15.2650  -27.3340    9.2240 C.3       1 SAM401      0.0000 
     12 O4'       -15.4530  -28.3770    8.2680 O.3       1 SAM401      0.0000 
     13 C3'       -15.2600  -26.0150    8.4320 C.3       1 SAM401      0.0000 
     14 O3'       -13.9980  -25.3820    8.3310 O.3       1 SAM401      0.0000 
     15 C2'       -15.7480  -26.4090    7.0380 C.3       1 SAM401      0.0000 
     16 O2'       -15.2430  -25.7080    5.9200 O.3       1 SAM401      0.0000 
     17 C1'       -15.1850  -27.8130    6.9840 C.3       1 SAM401      0.0000 
     18 N9        -15.8210  -28.6620    5.9750 N.pl3     1 SAM401      0.0000 
     19 C8        -17.1700  -28.7800    5.6780 C.2       1 SAM401      0.0000 
     20 N7        -17.3440  -29.7070    4.6950 N.2       1 SAM401      0.0000 
     21 C5        -16.0880  -30.1930    4.3780 C.ar      1 SAM401      0.0000 
     22 C6        -15.6670  -31.1480    3.4580 C.ar      1 SAM401      0.0000 
     23 N6        -16.5570  -31.7810    2.6890 N.pl3     1 SAM401      0.0000 
     24 N1        -14.3320  -31.4110    3.3790 N.ar      1 SAM401      0.0000 
     25 C2        -13.4450  -30.7380    4.1680 C.ar      1 SAM401      0.0000 
     26 N3        -13.7990  -29.7810    5.0510 N.ar      1 SAM401      0.0000 
     27 C4        -15.1320  -29.5310    5.1580 C.ar      1 SAM401      0.0000 
@<TRIPOS>BOND
     1    1    2 1    
     2    2    3 1    
     3    2    6 1    
     4    3    4 ar   
     5    3    5 ar   
     6    6    7 1    
     7    7    8 1    
     8    8    9 1    
     9    8   10 1    
    10   10   11 1    
    11   11   12 1    
    12   11   13 1    
    13   12   17 1    
    14   13   14 1    
    15   13   15 1    
    16   15   16 1    
    17   15   17 1    
    18   17   18 1    
    19   18   19 1    
    20   18   27 1    
    21   19   20 2    
    22   20   21 1    
    23   21   22 ar   
    24   21   27 ar   
    25   22   23 1    
    26   22   24 ar   
    27   24   25 ar   
    28   25   26 ar   
    29   26   27 ar   
@<TRIPOS>SUBSTRUCTURE
     1 SAM401      1 GROUP   
@<TRIPOS>SET

