#    Name: 6ix8_2_SAM_CAVITY_N1_4
#    Modification time : Fri May 22 19:32:36 2020

@<TRIPOS>MOLECULE
6ix8_2_SAM_CAVITY_N1_4
   67     0     5     0     0
SMALL
NO_CHARGES


@<TRIPOS>ATOM
      1 N         -59.7300  -11.3200   33.3500 N.am      1 ALA2        0.0000 
      2 N         -59.5800  -10.3200   31.4800 N.am      1 ALA2        0.0000 
      3 N         -59.9800   -8.0500   29.0500 N.am      1 ALA2        0.0000 
      4 N         -59.4200   -9.3200   29.6200 N.am      1 ALA2        0.0000 
      5 N         -59.2500  -10.2900   35.1400 N.am      1 ALA2        0.0000 
      6 N         -59.0900   -9.2900   33.2800 N.am      1 ALA2        0.0000 
      7 N         -58.5400  -10.5600   33.8500 N.am      1 ALA2        0.0000 
      8 N         -58.3800   -9.5600   31.9900 N.am      1 ALA2        0.0000 
      9 N         -56.7100  -13.3700   33.7000 N.am      1 ALA2        0.0000 
     10 N         -57.9000   -8.5400   33.7800 N.am      1 ALA2        0.0000 
     11 N         -57.3400   -9.8100   34.3500 N.am      1 ALA2        0.0000 
     12 N         -57.1900   -8.8100   32.4900 N.am      1 ALA2        0.0000 
     13 N         -56.6300  -10.0800   33.0600 N.am      1 ALA2        0.0000 
     14 N         -55.5100  -12.6200   34.2100 N.am      1 ALA2        0.0000 
     15 N         -56.4700   -9.0800   31.2000 N.am      1 ALA2        0.0000 
     16 NZ        -62.2200   -8.5500   26.1800 N.4       2 LYS4        0.0000 
     17 NZ        -61.6600   -9.8200   26.7500 N.4       2 LYS4        0.0000 
     18 NZ        -61.1100  -11.0900   27.3200 N.4       2 LYS4        0.0000 
     19 NZ        -61.1800   -8.8000   28.5500 N.4       2 LYS4        0.0000 
     20 NZ        -60.6200  -10.0700   29.1200 N.4       2 LYS4        0.0000 
     21 NZ        -55.0500   -9.6200   28.6100 N.4       2 LYS4        0.0000 
     22 CZ        -62.7800   -7.2800   25.6100 C.ar      3 PHE5        0.0000 
     23 CZ        -61.7400   -7.5300   27.9700 C.ar      3 PHE5        0.0000 
     24 CZ        -61.0200   -7.8000   26.6800 C.ar      3 PHE5        0.0000 
     25 CZ        -54.9800  -11.9100   27.3900 C.ar      3 PHE5        0.0000 
     26 CA        -65.2400   -6.4900   25.8200 C.3       4 GLY6        0.0000 
     27 CA        -64.6900   -7.7600   26.4000 C.3       4 GLY6        0.0000 
     28 CA        -60.5500  -12.3600   27.9000 C.3       4 GLY6        0.0000 
     29 CA        -60.0600  -11.3400   29.6900 C.3       4 GLY6        0.0000 
     30 CA        -59.3500  -11.6100   28.4000 C.3       4 GLY6        0.0000 
     31 CA        -58.6400  -11.8800   27.1100 C.3       4 GLY6        0.0000 
     32 CA        -59.0200  -11.5900   32.0600 C.3       4 GLY6        0.0000 
     33 CA        -58.8700  -10.5900   30.1900 C.3       4 GLY6        0.0000 
     34 CA        -59.2700   -8.3200   27.7600 C.3       4 GLY6        0.0000 
     35 CA        -58.1600  -10.8600   28.9000 C.3       4 GLY6        0.0000 
     36 CA        -57.4400  -11.1300   27.6100 C.3       4 GLY6        0.0000 
     37 CA        -56.8900  -12.4000   28.1800 C.3       4 GLY6        0.0000 
     38 CA        -57.8300  -10.8300   32.5600 C.3       4 GLY6        0.0000 
     39 CA        -57.2700  -12.1000   33.1300 C.3       4 GLY6        0.0000 
     40 CA        -58.2300   -8.5600   30.1200 C.3       4 GLY6        0.0000 
     41 CA        -57.6700   -9.8300   30.6900 C.3       4 GLY6        0.0000 
     42 CA        -57.1100  -11.1000   31.2700 C.3       4 GLY6        0.0000 
     43 CA        -56.5600  -12.3700   31.8400 C.3       4 GLY6        0.0000 
     44 CA        -57.5200   -8.8300   28.8300 C.3       4 GLY6        0.0000 
     45 CA        -56.9600  -10.1000   29.4000 C.3       4 GLY6        0.0000 
     46 CA        -56.4000  -11.3700   29.9700 C.3       4 GLY6        0.0000 
     47 CA        -55.8400  -12.6400   30.5500 C.3       4 GLY6        0.0000 
     48 CA        -55.6900  -11.6400   28.6800 C.3       4 GLY6        0.0000 
     49 CA        -55.1300  -12.9100   29.2500 C.3       4 GLY6        0.0000 
     50 CA        -55.4300   -9.3300   33.5600 C.3       4 GLY6        0.0000 
     51 CA        -54.7200   -9.6000   32.2700 C.3       4 GLY6        0.0000 
     52 CA        -54.1600  -10.8700   32.8400 C.3       4 GLY6        0.0000 
     53 CA        -54.0100   -9.8700   30.9800 C.3       4 GLY6        0.0000 
     54 CA        -53.4500  -11.1400   31.5500 C.3       4 GLY6        0.0000 
     55 DU        -60.4700   -9.0700   27.2500 H         5 CUB7        0.0000 
     56 DU        -59.9100  -10.3400   27.8300 H         5 CUB7        0.0000 
     57 DU        -58.7100   -9.5900   28.3300 H         5 CUB7        0.0000 
     58 DU        -57.9800  -11.8300   34.4200 H         5 CUB7        0.0000 
     59 DU        -56.2500  -10.3700   28.1100 H         5 CUB7        0.0000 
     60 DU        -56.7800  -11.0800   34.9300 H         5 CUB7        0.0000 
     61 DU        -56.0700  -11.3500   33.6300 H         5 CUB7        0.0000 
     62 DU        -55.9200  -10.3500   31.7700 H         5 CUB7        0.0000 
     63 DU        -55.3600  -11.6200   32.3400 H         5 CUB7        0.0000 
     64 DU        -55.2000  -10.6200   30.4800 H         5 CUB7        0.0000 
     65 DU        -54.6500  -11.8900   31.0500 H         5 CUB7        0.0000 
     66 DU        -54.4900  -10.8900   29.1800 H         5 CUB7        0.0000 
     67 DU        -53.9400  -12.1600   29.7600 H         5 CUB7        0.0000 
@<TRIPOS>BOND
@<TRIPOS>SUBSTRUCTURE
     1 ALA2        1 GROUP   
     2 LYS4       16 GROUP   
     3 PHE5       22 GROUP   
     4 GLY6       26 GROUP   
     5 CUB7       55 GROUP   
@<TRIPOS>SET

