#    Name: 6gw4_1_CHO
#    Modification time : Fri May 22 19:27:07 2020

@<TRIPOS>MOLECULE
6gw4_1_CHO
   32    35     1     0     0
SMALL
NO_CHARGES


@<TRIPOS>ATOM
      1 C1         60.1930   -1.6200  -12.6080 C.3       1 CHO600      0.0000 
      2 C2         61.3640   -1.0840  -11.7800 C.3       1 CHO600      0.0000 
      3 C3         62.1580   -2.2380  -11.2050 C.3       1 CHO600      0.0000 
      4 O3         63.2750   -1.7270  -10.4740 O.3       1 CHO600      0.0000 
      5 C4         61.2630   -3.0480  -10.3030 C.3       1 CHO600      0.0000 
      6 C5         60.0580   -3.6150  -11.0590 C.3       1 CHO600      0.0000 
      7 C6         59.1990   -4.4940  -10.1440 C.3       1 CHO600      0.0000 
      8 C7         58.2220   -3.7530   -9.2430 C.3       1 CHO600      0.0000 
      9 O7         58.9060   -3.1490   -8.1420 O.3       1 CHO600      0.0000 
     10 C8         57.4320   -2.6840  -10.0070 C.3       1 CHO600      0.0000 
     11 C9         58.3290   -1.7570  -10.8380 C.3       1 CHO600      0.0000 
     12 C10        59.2290   -2.5530  -11.8400 C.3       1 CHO600      0.0000 
     13 C11        57.5030   -0.6400  -11.4950 C.3       1 CHO600      0.0000 
     14 C12        56.5310    0.0670  -10.5530 C.3       1 CHO600      0.0000 
     15 C13        55.6240   -0.8960   -9.7580 C.3       1 CHO600      0.0000 
     16 C14        56.5670   -1.8560   -9.0550 C.3       1 CHO600      0.0000 
     17 C15        55.6870   -2.5980   -8.0350 C.3       1 CHO600      0.0000 
     18 C16        54.6240   -1.5610   -7.6410 C.3       1 CHO600      0.0000 
     19 C17        54.8580   -0.3240   -8.5320 C.3       1 CHO600      0.0000 
     20 C18        54.6540   -1.6210  -10.7140 C.3       1 CHO600      0.0000 
     21 C19        58.3610   -3.2650  -12.8950 C.3       1 CHO600      0.0000 
     22 C20        53.5620    0.4890   -8.7410 C.3       1 CHO600      0.0000 
     23 C21        53.8200    1.9550   -9.0600 C.3       1 CHO600      0.0000 
     24 C22        52.6300    0.3680   -7.5170 C.3       1 CHO600      0.0000 
     25 C23        52.9590    1.3040   -6.3610 C.3       1 CHO600      0.0000 
     26 C24        52.1290    1.0500   -5.1180 C.2       1 CHO600      0.0000 
     27 O24        52.0240   -0.0720   -4.6190 O.2       1 CHO600      0.0000 
     28 N25        51.5150    2.1040   -4.5960 N.am      1 CHO600      0.0000 
     29 C26        51.6120    3.4360   -5.1630 C.3       1 CHO600      0.0000 
     30 C27        50.3360    3.7480   -5.9130 C.2       1 CHO600      0.0000 
     31 OT1        50.3630    3.7720   -7.1680 O.co2     1 CHO600      0.0000 
     32 OT2        49.2960    3.9600   -5.2500 O.co2     1 CHO600      0.0000 
@<TRIPOS>BOND
     1    1    2 1    
     2    1   12 1    
     3    2    3 1    
     4    3    4 1    
     5    3    5 1    
     6    5    6 1    
     7    6    7 1    
     8    6   12 1    
     9    7    8 1    
    10    8    9 1    
    11    8   10 1    
    12   10   11 1    
    13   10   16 1    
    14   11   12 1    
    15   11   13 1    
    16   12   21 1    
    17   13   14 1    
    18   14   15 1    
    19   15   16 1    
    20   15   19 1    
    21   15   20 1    
    22   16   17 1    
    23   17   18 1    
    24   18   19 1    
    25   19   22 1    
    26   22   23 1    
    27   22   24 1    
    28   24   25 1    
    29   25   26 1    
    30   26   27 2    
    31   26   28 am   
    32   28   29 1    
    33   29   30 1    
    34   30   31 ar   
    35   30   32 ar   
@<TRIPOS>SUBSTRUCTURE
     1 CHO600      1 GROUP   
@<TRIPOS>SET

