#    Name: 6jmq_4_CLR
#    Modification time : Fri May 22 19:34:05 2020

@<TRIPOS>MOLECULE
6jmq_4_CLR
   28    31     1     0     0
SMALL
NO_CHARGES


@<TRIPOS>ATOM
      1 C1        200.6060  210.0150  220.4990 C.3       1 CLR604      0.0000 
      2 C2        200.2060  210.7590  221.7750 C.3       1 CLR604      0.0000 
      3 C3        201.0020  210.2810  222.9630 C.3       1 CLR604      0.0000 
      4 C4        202.4820  210.4650  222.6890 C.3       1 CLR604      0.0000 
      5 C5        202.9110  209.7690  221.4150 C.2       1 CLR604      0.0000 
      6 C6        203.9150  208.9040  221.4230 C.2       1 CLR604      0.0000 
      7 C7        204.4750  208.2340  220.2080 C.3       1 CLR604      0.0000 
      8 C8        203.9540  208.8360  218.9070 C.3       1 CLR604      0.0000 
      9 C9        202.4400  209.0960  219.0280 C.3       1 CLR604      0.0000 
     10 C10       202.1120  210.1110  220.1600 C.3       1 CLR604      0.0000 
     11 C11       201.8180  209.4910  217.6790 C.3       1 CLR604      0.0000 
     12 C12       202.1500  208.4950  216.5620 C.3       1 CLR604      0.0000 
     13 C13       203.6640  208.3430  216.3730 C.3       1 CLR604      0.0000 
     14 C14       204.2340  207.9000  217.7380 C.3       1 CLR604      0.0000 
     15 C15       205.6810  207.5510  217.4160 C.3       1 CLR604      0.0000 
     16 C16       205.5630  206.8280  216.0620 C.3       1 CLR604      0.0000 
     17 C17       204.1590  207.1630  215.4790 C.3       1 CLR604      0.0000 
     18 C18       204.2860  209.6600  215.8780 C.3       1 CLR604      0.0000 
     19 C19       202.4620  211.5530  219.7520 C.3       1 CLR604      0.0000 
     20 C20       204.1760  207.3080  213.9410 C.3       1 CLR604      0.0000 
     21 C21       202.8140  207.1110  213.2810 C.3       1 CLR604      0.0000 
     22 C22       205.2190  206.3810  213.2970 C.3       1 CLR604      0.0000 
     23 C23       205.6040  206.7300  211.8810 C.3       1 CLR604      0.0000 
     24 C24       206.7190  205.8680  211.3440 C.3       1 CLR604      0.0000 
     25 C25       207.2490  206.2550  209.9630 C.3       1 CLR604      0.0000 
     26 C26       206.1580  206.1770  208.9070 C.3       1 CLR604      0.0000 
     27 C27       207.8750  207.6400  209.9800 C.3       1 CLR604      0.0000 
     28 O1        200.6240  211.0170  224.1340 O.3       1 CLR604      0.0000 
@<TRIPOS>BOND
     1    1    2 1    
     2    1   10 1    
     3    2    3 1    
     4    3    4 1    
     5    3   28 1    
     6    4    5 1    
     7    5    6 2    
     8    5   10 1    
     9    6    7 1    
    10    7    8 1    
    11    8    9 1    
    12    8   14 1    
    13    9   10 1    
    14    9   11 1    
    15   10   19 1    
    16   11   12 1    
    17   12   13 1    
    18   13   14 1    
    19   13   17 1    
    20   13   18 1    
    21   14   15 1    
    22   15   16 1    
    23   16   17 1    
    24   17   20 1    
    25   20   21 1    
    26   20   22 1    
    27   22   23 1    
    28   23   24 1    
    29   24   25 1    
    30   25   26 1    
    31   25   27 1    
@<TRIPOS>SUBSTRUCTURE
     1 CLR604      1 GROUP   
@<TRIPOS>SET

