#    Name: 6jmq_5_CLR
#    Modification time : Fri May 22 19:34:12 2020

@<TRIPOS>MOLECULE
6jmq_5_CLR
   28    31     1     0     0
SMALL
NO_CHARGES


@<TRIPOS>ATOM
      1 C1        193.5370  218.3530  193.1520 C.3       1 CLR701      0.0000 
      2 C2        193.3250  219.3250  191.9900 C.3       1 CLR701      0.0000 
      3 C3        191.8940  219.3030  191.5150 C.3       1 CLR701      0.0000 
      4 C4        190.9790  219.6730  192.6650 C.3       1 CLR701      0.0000 
      5 C5        191.1720  218.7570  193.8560 C.2       1 CLR701      0.0000 
      6 C6        190.1380  218.1300  194.3940 C.2       1 CLR701      0.0000 
      7 C7        190.2090  217.2180  195.5770 C.3       1 CLR701      0.0000 
      8 C8        191.5410  217.2970  196.3180 C.3       1 CLR701      0.0000 
      9 C9        192.7040  217.3680  195.3120 C.3       1 CLR701      0.0000 
     10 C10       192.6040  218.5960  194.3620 C.3       1 CLR701      0.0000 
     11 C11       194.0640  217.2680  196.0230 C.3       1 CLR701      0.0000 
     12 C12       194.1680  216.0340  196.9270 C.3       1 CLR701      0.0000 
     13 C13       193.0530  216.0010  197.9790 C.3       1 CLR701      0.0000 
     14 C14       191.7200  216.0720  197.2060 C.3       1 CLR701      0.0000 
     15 C15       190.6840  215.7920  198.2840 C.3       1 CLR701      0.0000 
     16 C16       191.3140  214.5970  199.0140 C.3       1 CLR701      0.0000 
     17 C17       192.8480  214.6630  198.7610 C.3       1 CLR701      0.0000 
     18 C18       193.2060  217.1640  198.9750 C.3       1 CLR701      0.0000 
     19 C19       193.0020  219.9050  195.0700 C.3       1 CLR701      0.0000 
     20 C20       193.6650  214.3790  200.0390 C.3       1 CLR701      0.0000 
     21 C21       195.1080  213.9580  199.7740 C.3       1 CLR701      0.0000 
     22 C22       192.9600  213.3470  200.9340 C.3       1 CLR701      0.0000 
     23 C23       193.4180  213.3100  202.3680 C.3       1 CLR701      0.0000 
     24 C24       192.4920  212.5180  203.2550 C.3       1 CLR701      0.0000 
     25 C25       192.8510  212.5050  204.7370 C.3       1 CLR701      0.0000 
     26 C26       194.1870  211.8220  204.9740 C.3       1 CLR701      0.0000 
     27 C27       191.7610  211.8460  205.5660 C.3       1 CLR701      0.0000 
     28 O1        191.7250  220.2250  190.4290 O.3       1 CLR701      0.0000 
@<TRIPOS>BOND
     1    1    2 1    
     2    1   10 1    
     3    2    3 1    
     4    3    4 1    
     5    3   28 1    
     6    4    5 1    
     7    5    6 2    
     8    5   10 1    
     9    6    7 1    
    10    7    8 1    
    11    8    9 1    
    12    8   14 1    
    13    9   10 1    
    14    9   11 1    
    15   10   19 1    
    16   11   12 1    
    17   12   13 1    
    18   13   14 1    
    19   13   17 1    
    20   13   18 1    
    21   14   15 1    
    22   15   16 1    
    23   16   17 1    
    24   17   20 1    
    25   20   21 1    
    26   20   22 1    
    27   22   23 1    
    28   23   24 1    
    29   24   25 1    
    30   25   26 1    
    31   25   27 1    
@<TRIPOS>SUBSTRUCTURE
     1 CLR701      1 GROUP   
@<TRIPOS>SET

