#    Name: 6jmq_3_CLR
#    Modification time : Fri May 22 19:34:00 2020

@<TRIPOS>MOLECULE
6jmq_3_CLR
   28    31     1     0     0
SMALL
NO_CHARGES


@<TRIPOS>ATOM
      1 C1        203.7730  189.4500  197.4180 C.3       1 CLR603      0.0000 
      2 C2        203.8220  189.0650  195.9380 C.3       1 CLR603      0.0000 
      3 C3        203.9410  190.2790  195.0510 C.3       1 CLR603      0.0000 
      4 C4        205.1720  191.0770  195.4360 C.3       1 CLR603      0.0000 
      5 C5        205.1770  191.4420  196.9060 C.2       1 CLR603      0.0000 
      6 C6        205.3260  192.7000  197.2940 C.2       1 CLR603      0.0000 
      7 C7        205.4600  193.1420  198.7170 C.3       1 CLR603      0.0000 
      8 C8        205.6820  191.9740  199.6750 C.3       1 CLR603      0.0000 
      9 C9        204.7220  190.8250  199.3150 C.3       1 CLR603      0.0000 
     10 C10       204.9900  190.2840  197.8820 C.3       1 CLR603      0.0000 
     11 C11       204.7430  189.7130  200.3760 C.3       1 CLR603      0.0000 
     12 C12       204.5470  190.2400  201.8020 C.3       1 CLR603      0.0000 
     13 C13       205.6020  191.2890  202.1720 C.3       1 CLR603      0.0000 
     14 C14       205.4720  192.4100  201.1200 C.3       1 CLR603      0.0000 
     15 C15       206.3610  193.5070  201.6850 C.3       1 CLR603      0.0000 
     16 C16       205.9640  193.5070  203.1700 C.3       1 CLR603      0.0000 
     17 C17       205.3730  192.1030  203.4860 C.3       1 CLR603      0.0000 
     18 C18       207.0120  190.6720  202.1890 C.3       1 CLR603      0.0000 
     19 C19       206.2640  189.4210  197.8300 C.3       1 CLR603      0.0000 
     20 C20       205.8740  191.5670  204.8440 C.3       1 CLR603      0.0000 
     21 C21       205.1070  190.3540  205.3660 C.3       1 CLR603      0.0000 
     22 C22       205.8720  192.6780  205.9050 C.3       1 CLR603      0.0000 
     23 C23       206.5910  192.3430  207.1880 C.3       1 CLR603      0.0000 
     24 C24       208.0730  192.1340  206.9960 C.3       1 CLR603      0.0000 
     25 C25       208.8610  191.7830  208.2590 C.3       1 CLR603      0.0000 
     26 C26       208.4050  190.4560  208.8440 C.3       1 CLR603      0.0000 
     27 C27       210.3590  191.7640  207.9920 C.3       1 CLR603      0.0000 
     28 O1        204.0290  189.8720  193.6790 O.3       1 CLR603      0.0000 
@<TRIPOS>BOND
     1    1    2 1    
     2    1   10 1    
     3    2    3 1    
     4    3    4 1    
     5    3   28 1    
     6    4    5 1    
     7    5    6 2    
     8    5   10 1    
     9    6    7 1    
    10    7    8 1    
    11    8    9 1    
    12    8   14 1    
    13    9   10 1    
    14    9   11 1    
    15   10   19 1    
    16   11   12 1    
    17   12   13 1    
    18   13   14 1    
    19   13   17 1    
    20   13   18 1    
    21   14   15 1    
    22   15   16 1    
    23   16   17 1    
    24   17   20 1    
    25   20   21 1    
    26   20   22 1    
    27   22   23 1    
    28   23   24 1    
    29   24   25 1    
    30   25   26 1    
    31   25   27 1    
@<TRIPOS>SUBSTRUCTURE
     1 CLR603      1 GROUP   
@<TRIPOS>SET

