#    Name: 6oun_1_1RZ
#    Modification time : Fri May 22 19:31:25 2020

@<TRIPOS>MOLECULE
6oun_1_1RZ
   27    28     1     0     0
SMALL
NO_CHARGES


@<TRIPOS>ATOM
      1 O3G        48.8210   -1.4400  -24.3320           1 1RZ604      0.0000 
      2 PG         48.4610   -2.5730  -25.3000           1 1RZ604      0.0000 
      3 O1G        49.7210   -3.2520  -25.7560           1 1RZ604      0.0000 
      4 PB         46.6400   -0.8130  -26.5290           1 1RZ604      0.0000 
      5 O2B        45.9310   -0.7160  -27.8640           1 1RZ604      0.0000 
      6 O1B        47.3680    0.5170  -26.2560           1 1RZ604      0.0000 
      7 O3A        45.5760   -1.0810  -25.3500           1 1RZ604      0.0000 
      8 PA         44.0050   -1.1790  -25.5130           1 1RZ604      0.0000 
      9 O1A        43.6440   -2.4670  -26.2520           1 1RZ604      0.0000 
     10 O2A        43.3710   -1.1880  -24.1320           1 1RZ604      0.0000 
     11 O5'        43.4420    0.0990  -26.3340           1 1RZ604      0.0000 
     12 C5'        43.3940    1.3580  -25.6940           1 1RZ604      0.0000 
     13 C4'        41.9730    1.7740  -25.4650           1 1RZ604      0.0000 
     14 O4'        41.2760    1.7480  -26.6840           1 1RZ604      0.0000 
     15 S3'        42.0180    3.5120  -24.8780           1 1RZ604      0.0000 
     16 C2'        40.5840    3.9600  -25.8580           1 1RZ604      0.0000 
     17 C1'        40.4810    2.8840  -26.9350           1 1RZ604      0.0000 
     18 N1         40.8390    3.4310  -28.2650           1 1RZ604      0.0000 
     19 C2         39.7720    3.6580  -29.1600           1 1RZ604      0.0000 
     20 O2         38.6260    3.4100  -28.7730           1 1RZ604      0.0000 
     21 N3         40.0120    4.1460  -30.4220           1 1RZ604      0.0000 
     22 C4         41.2930    4.3910  -30.7600           1 1RZ604      0.0000 
     23 N4         41.5100    4.8810  -32.0110           1 1RZ604      0.0000 
     24 C5         42.4020    4.1720  -29.8730           1 1RZ604      0.0000 
     25 C6         42.1440    3.6860  -28.6220           1 1RZ604      0.0000 
     26 O3B        47.6790   -1.9910  -26.5580           1 1RZ604      0.0000 
     27 O2C        47.5840   -3.6040  -24.5720           1 1RZ604      0.0000 
@<TRIPOS>BOND
     1    1    2 du   
     2    2    3 du   
     3    2   26 du   
     4    2   27 du   
     5    4    5 du   
     6    4    6 du   
     7    4    7 du   
     8    4   26 du   
     9    7    8 du   
    10    8    9 du   
    11    8   10 du   
    12    8   11 du   
    13   11   12 du   
    14   12   13 du   
    15   13   14 du   
    16   13   15 du   
    17   14   17 du   
    18   15   16 du   
    19   16   17 du   
    20   17   18 du   
    21   18   19 du   
    22   18   25 du   
    23   19   20 du   
    24   19   21 du   
    25   21   22 du   
    26   22   23 du   
    27   22   24 du   
    28   24   25 du   
@<TRIPOS>SUBSTRUCTURE
     1 1RZ604      1 GROUP   
@<TRIPOS>SET

