#    Name: 6oun_1_1RZ_CAVITY_N1_ALL
#    Modification time : Fri May 22 19:31:26 2020

@<TRIPOS>MOLECULE
6oun_1_1RZ_CAVITY_N1_ALL
   75     0     6     0     0
SMALL
NO_CHARGES


@<TRIPOS>ATOM
      1 N          45.2200   -7.4500  -29.6700 N.am      1 ALA2        0.0000 
      2 N          43.2500   -6.8100  -29.2200 N.am      1 ALA2        0.0000 
      3 N          42.2200   -5.9800  -29.9200 N.am      1 ALA2        0.0000 
      4 N          44.7400   -5.3900  -29.7200 N.am      1 ALA2        0.0000 
      5 N          42.7700   -4.7400  -29.2700 N.am      1 ALA2        0.0000 
      6 N          43.7100   -4.5500  -30.4200 N.am      1 ALA2        0.0000 
      7 N          46.2300   -3.9700  -30.2100 N.am      1 ALA2        0.0000 
      8 O          42.3800   -3.7000  -27.4600 O.2       1 ALA2        0.0000 
      9 O          43.3200   -3.5100  -28.6100 O.2       1 ALA2        0.0000 
     10 N          45.2000   -3.1300  -30.9200 N.am      1 ALA2        0.0000 
     11 O          42.2900   -2.6800  -29.3200 O.2       1 ALA2        0.0000 
     12 O          41.9900   -2.6600  -25.6600 O.2       1 ALA2        0.0000 
     13 O          42.9300   -2.4700  -26.8100 O.2       1 ALA2        0.0000 
     14 O          43.8700   -2.2800  -27.9600 O.2       1 ALA2        0.0000 
     15 O          42.8400   -1.4500  -28.6600 O.2       1 ALA2        0.0000 
     16 O          42.5400   -1.4300  -25.0000 O.2       1 ALA2        0.0000 
     17 O          43.4800   -1.2400  -26.1500 O.2       1 ALA2        0.0000 
     18 O          41.5100   -0.5900  -25.7100 O.2       1 ALA2        0.0000 
     19 O          42.4500   -0.4000  -26.8600 O.2       1 ALA2        0.0000 
     20 O          40.4800    0.2400  -26.4100 O.2       1 ALA2        0.0000 
     21 O          43.0900   -0.2000  -24.3500 O.2       1 ALA2        0.0000 
     22 N          41.9700    1.6600  -26.9100 N.am      1 ALA2        0.0000 
     23 N          40.9500    2.5000  -27.6100 N.am      1 ALA2        0.0000 
     24 N          39.9200    3.3300  -28.3200 N.am      1 ALA2        0.0000 
     25 N          41.5000    3.7300  -26.9600 N.am      1 ALA2        0.0000 
     26 N          40.4700    4.5600  -27.6600 N.am      1 ALA2        0.0000 
     27 OD1        44.8100   -2.0900  -29.1100 O.co2     2 ASP3        0.0000 
     28 OD1        43.7800   -1.2600  -29.8200 O.co2     2 ASP3        0.0000 
     29 OD1        45.4500   -1.8800  -26.6000 O.co2     2 ASP3        0.0000 
     30 OD1        44.4200   -1.0500  -27.3100 O.co2     2 ASP3        0.0000 
     31 OD1        45.3600   -0.8600  -28.4600 O.co2     2 ASP3        0.0000 
     32 OD1        43.3900   -0.2100  -28.0100 O.co2     2 ASP3        0.0000 
     33 OD1        46.0000   -0.6500  -25.9500 O.co2     2 ASP3        0.0000 
     34 OD1        44.0300   -0.0100  -25.5000 O.co2     2 ASP3        0.0000 
     35 OD1        44.9700    0.1800  -26.6500 O.co2     2 ASP3        0.0000 
     36 OD1        43.0000    0.8300  -26.2000 O.co2     2 ASP3        0.0000 
     37 OD1        43.9500    1.0200  -27.3600 O.co2     2 ASP3        0.0000 
     38 OD1        45.5300    1.4200  -26.0000 O.co2     2 ASP3        0.0000 
     39 OD1        44.5000    2.2500  -26.7000 O.co2     2 ASP3        0.0000 
     40 NZ         44.8300   -6.4100  -27.8600 N.4       3 LYS4        0.0000 
     41 NZ         43.8000   -5.5800  -28.5600 N.4       3 LYS4        0.0000 
     42 NZ         42.4700   -4.7300  -25.6100 N.4       3 LYS4        0.0000 
     43 NZ         43.4100   -4.5400  -26.7600 N.4       3 LYS4        0.0000 
     44 NZ         44.3500   -4.3500  -27.9100 N.4       3 LYS4        0.0000 
     45 NZ         45.9300   -3.9500  -26.5500 N.4       3 LYS4        0.0000 
     46 NZ         46.8700   -3.7600  -27.7000 N.4       3 LYS4        0.0000 
     47 NZ         43.9600   -3.3000  -26.1000 N.4       3 LYS4        0.0000 
     48 NZ         44.9000   -3.1100  -27.2600 N.4       3 LYS4        0.0000 
     49 NZ         46.4800   -2.7200  -25.9000 N.4       3 LYS4        0.0000 
     50 NZ         43.6400    1.0400  -23.6900 N.4       3 LYS4        0.0000 
     51 NZ         42.6100    1.8700  -24.4000 N.4       3 LYS4        0.0000 
     52 NZ         43.5600    2.0600  -25.5500 N.4       3 LYS4        0.0000 
     53 NZ         45.0500    3.4800  -26.0500 N.4       3 LYS4        0.0000 
     54 CZ         42.3000   -7.0000  -28.0700 C.ar      4 PHE5        0.0000 
     55 CZ         42.8600   -5.7700  -27.4100 C.ar      4 PHE5        0.0000 
     56 CZ         41.4400   -3.8900  -26.3100 C.ar      4 PHE5        0.0000 
     57 CZ         41.1200    0.4500  -23.9000 C.ar      4 PHE5        0.0000 
     58 CZ         41.0300    1.4700  -25.7600 C.ar      4 PHE5        0.0000 
     59 CZ         40.0000    2.3100  -26.4600 C.ar      4 PHE5        0.0000 
     60 CZ         41.5800    2.7100  -25.1000 C.ar      4 PHE5        0.0000 
     61 CZ         40.5600    3.5400  -25.8100 C.ar      4 PHE5        0.0000 
     62 CA         44.2600   -3.3200  -29.7700 C.3       5 GLY6        0.0000 
     63 CA         43.0200   -3.4900  -24.9500 C.3       5 GLY6        0.0000 
     64 CA         45.7600   -1.9000  -30.2600 C.3       5 GLY6        0.0000 
     65 CA         44.5100   -2.0700  -25.4500 C.3       5 GLY6        0.0000 
     66 CA         42.0600    0.6400  -25.0500 C.3       5 GLY6        0.0000 
     67 CA         41.6700    1.6800  -23.2500 C.3       5 GLY6        0.0000 
     68 CA         42.5300    2.9000  -26.2500 C.3       5 GLY6        0.0000 
     69 CA         42.1400    3.9400  -24.4500 C.3       5 GLY6        0.0000 
     70 CA         43.0800    4.1300  -25.6000 C.3       5 GLY6        0.0000 
     71 CA         42.0500    4.9600  -26.3000 C.3       5 GLY6        0.0000 
     72 DU         45.2900   -4.1600  -29.0600 H         6 CUB7        0.0000 
     73 DU         45.8400   -2.9200  -28.4100 H         6 CUB7        0.0000 
     74 DU         46.7800   -2.7300  -29.5600 H         6 CUB7        0.0000 
     75 DU         46.3900   -1.6900  -27.7500 H         6 CUB7        0.0000 
@<TRIPOS>BOND
@<TRIPOS>SUBSTRUCTURE
     1 ALA2        1 GROUP   
     2 ASP3       27 GROUP   
     3 LYS4       40 GROUP   
     4 PHE5       54 GROUP   
     5 GLY6       62 GROUP   
     6 CUB7       72 GROUP   
@<TRIPOS>SET

