#    Name: 6sax_1_LBV_CAVITY_N1_4
#    Modification time : Fri May 22 19:25:49 2020

@<TRIPOS>MOLECULE
6sax_1_LBV_CAVITY_N1_4
   65     0     6     0     0
SMALL
NO_CHARGES


@<TRIPOS>ATOM
      1 OG        -89.0800  -22.0900  -36.6600 O.3       1 SER1        0.0000 
      2 O         -89.8300  -23.8000  -42.7500 O.2       2 ALA2        0.0000 
      3 N         -91.9000  -24.3200  -39.7600 N.am      2 ALA2        0.0000 
      4 N         -90.5000  -24.3400  -40.3000 N.am      2 ALA2        0.0000 
      5 N         -89.6000  -21.7500  -42.2400 N.am      2 ALA2        0.0000 
      6 N         -91.6800  -22.2700  -39.2500 N.am      2 ALA2        0.0000 
      7 N         -91.0400  -18.3900  -41.9000 N.am      2 ALA2        0.0000 
      8 N         -90.7800  -19.6900  -41.1900 N.am      2 ALA2        0.0000 
      9 N         -90.2800  -22.2900  -39.7900 N.am      2 ALA2        0.0000 
     10 N         -90.0200  -23.5900  -39.0800 N.am      2 ALA2        0.0000 
     11 N         -89.6400  -18.4000  -42.4400 N.am      2 ALA2        0.0000 
     12 N         -89.3800  -19.7000  -41.7300 N.am      2 ALA2        0.0000 
     13 N         -88.8800  -22.3100  -40.3300 N.am      2 ALA2        0.0000 
     14 N         -88.6200  -23.6100  -39.6200 N.am      2 ALA2        0.0000 
     15 N         -87.4800  -22.3200  -40.8600 N.am      2 ALA2        0.0000 
     16 N         -92.6000  -21.5000  -37.5000 N.am      2 ALA2        0.0000 
     17 N         -91.2000  -21.5200  -38.0400 N.am      2 ALA2        0.0000 
     18 N         -89.8000  -21.5400  -38.5800 N.am      2 ALA2        0.0000 
     19 N         -89.5500  -22.8400  -37.8700 N.am      2 ALA2        0.0000 
     20 N         -88.1500  -22.8600  -38.4100 N.am      2 ALA2        0.0000 
     21 N         -91.8800  -22.0600  -35.5900 N.am      2 ALA2        0.0000 
     22 N         -90.7300  -20.7800  -36.8300 N.am      2 ALA2        0.0000 
     23 N         -90.4800  -22.0800  -36.1300 N.am      2 ALA2        0.0000 
     24 NZ        -88.4000  -21.5600  -39.1100 N.4       3 LYS4        0.0000 
     25 NZ        -87.0000  -21.5800  -39.6500 N.4       3 LYS4        0.0000 
     26 NZ        -87.9300  -20.8100  -37.9000 N.4       3 LYS4        0.0000 
     27 NZ        -87.6800  -22.1100  -37.2000 N.4       3 LYS4        0.0000 
     28 NZ        -87.4500  -20.0600  -36.6900 N.4       3 LYS4        0.0000 
     29 CZ        -89.1300  -21.0100  -41.0300 C.ar      4 PHE5        0.0000 
     30 CZ        -87.7300  -21.0200  -41.5700 C.ar      4 PHE5        0.0000 
     31 CZ        -89.1600  -17.6600  -41.2200 C.ar      4 PHE5        0.0000 
     32 CZ        -88.9100  -18.9600  -40.5200 C.ar      4 PHE5        0.0000 
     33 CZ        -88.6600  -20.2600  -39.8200 C.ar      4 PHE5        0.0000 
     34 CZ        -88.4400  -18.2100  -39.3100 C.ar      4 PHE5        0.0000 
     35 CZ        -88.1800  -19.5100  -38.6100 C.ar      4 PHE5        0.0000 
     36 CZ        -87.0300  -18.2300  -39.8500 C.ar      4 PHE5        0.0000 
     37 CZ        -86.7800  -19.5300  -39.1400 C.ar      4 PHE5        0.0000 
     38 CA        -91.2300  -23.7800  -42.2100 C.3       5 GLY6        0.0000 
     39 CA        -90.9700  -25.0800  -41.5100 C.3       5 GLY6        0.0000 
     40 CA        -89.5700  -25.1000  -42.0400 C.3       5 GLY6        0.0000 
     41 CA        -92.1500  -23.0200  -40.4600 C.3       5 GLY6        0.0000 
     42 CA        -91.0000  -21.7300  -41.7000 C.3       5 GLY6        0.0000 
     43 CA        -90.7500  -23.0400  -41.0000 C.3       5 GLY6        0.0000 
     44 CA        -89.1000  -24.3500  -40.8300 C.3       5 GLY6        0.0000 
     45 CA        -92.4400  -18.3700  -41.3600 C.3       5 GLY6        0.0000 
     46 CA        -92.1800  -19.6700  -40.6600 C.3       5 GLY6        0.0000 
     47 CA        -91.9300  -20.9700  -39.9500 C.3       5 GLY6        0.0000 
     48 CA        -90.5300  -20.9900  -40.4900 C.3       5 GLY6        0.0000 
     49 CA        -91.9600  -17.6200  -40.1500 C.3       5 GLY6        0.0000 
     50 CA        -91.7100  -18.9200  -39.4500 C.3       5 GLY6        0.0000 
     51 CA        -91.4600  -20.2200  -38.7400 C.3       5 GLY6        0.0000 
     52 CA        -92.1300  -20.7600  -36.2900 C.3       5 GLY6        0.0000 
     53 CA        -91.2400  -18.1700  -38.2400 C.3       5 GLY6        0.0000 
     54 CA        -90.9800  -19.4700  -37.5300 C.3       5 GLY6        0.0000 
     55 CA        -89.1100  -18.7500  -36.8600 C.3       5 GLY6        0.0000 
     56 CA        -88.8500  -20.0500  -36.1500 C.3       5 GLY6        0.0000 
     57 CA        -87.7100  -18.7600  -37.4000 C.3       5 GLY6        0.0000 
     58 CA        -86.3100  -18.7800  -37.9300 C.3       5 GLY6        0.0000 
     59 DU        -89.3500  -23.0500  -41.5400 H         6 CUB7        0.0000 
     60 DU        -90.5600  -17.6400  -40.6900 H         6 CUB7        0.0000 
     61 DU        -90.3100  -18.9400  -39.9800 H         6 CUB7        0.0000 
     62 DU        -90.0600  -20.2400  -39.2800 H         6 CUB7        0.0000 
     63 DU        -89.8400  -18.1900  -38.7700 H         6 CUB7        0.0000 
     64 DU        -89.5800  -19.4900  -38.0700 H         6 CUB7        0.0000 
     65 DU        -89.3300  -20.7900  -37.3700 H         6 CUB7        0.0000 
@<TRIPOS>BOND
@<TRIPOS>SUBSTRUCTURE
     1 SER1        1 GROUP   
     2 ALA2        2 GROUP   
     3 LYS4       24 GROUP   
     4 PHE5       29 GROUP   
     5 GLY6       38 GROUP   
     6 CUB7       59 GROUP   
@<TRIPOS>SET

