#    Name: 6sax_1_LBV
#    Modification time : Fri May 22 19:25:47 2020

@<TRIPOS>MOLECULE
6sax_1_LBV
   43    46     1     0     0
SMALL
NO_CHARGES


@<TRIPOS>ATOM
      1 C1A       -88.2820  -22.1580  -40.2740 C.2       1 LBV401      0.0000 
      2 C1B       -89.0860  -25.3340  -43.3830 C.2       1 LBV401      0.0000 
      3 O1B       -90.6130  -27.9240  -48.7720 O.co2     1 LBV401      0.0000 
      4 C1C       -84.8510  -25.9360  -45.1390 C.2       1 LBV401      0.0000 
      5 O1C       -81.8300  -26.0400  -48.7800 O.co2     1 LBV401      0.0000 
      6 C1D       -81.2020  -23.2910  -43.3920 C.2       1 LBV401      0.0000 
      7 C2A       -89.5330  -22.2480  -39.6260 C.3       1 LBV401      0.0000 
      8 C2B       -89.6400  -26.2380  -44.2280 C.2       1 LBV401      0.0000 
      9 O2B       -88.4850  -28.5820  -48.9810 O.co2     1 LBV401      0.0000 
     10 C2C       -83.6770  -26.2960  -45.8600 C.2       1 LBV401      0.0000 
     11 O2C       -83.3940  -24.4830  -48.9850 O.co2     1 LBV401      0.0000 
     12 C2D       -80.4190  -22.8620  -42.2830 C.2       1 LBV401      0.0000 
     13 C3A       -90.2680  -23.2370  -40.3440 C.2       1 LBV401      0.0000 
     14 C3B       -88.6220  -26.7400  -45.0690 C.2       1 LBV401      0.0000 
     15 C3C       -82.6010  -25.6100  -45.3000 C.2       1 LBV401      0.0000 
     16 C3D       -79.2620  -22.2740  -42.7590 C.2       1 LBV401      0.0000 
     17 C4A       -89.4460  -23.6800  -41.4060 C.2       1 LBV401      0.0000 
     18 C4B       -87.4150  -26.1250  -44.7030 C.2       1 LBV401      0.0000 
     19 C4C       -83.1090  -24.8140  -44.2350 C.2       1 LBV401      0.0000 
     20 C4D       -79.2930  -22.3060  -44.1660 C.2       1 LBV401      0.0000 
     21 CAA       -91.5790  -23.7050  -40.0870 C.2       1 LBV401      0.0000 
     22 CAB       -88.7680  -27.7020  -46.1320 C.3       1 LBV401      0.0000 
     23 CAC       -83.6280  -27.2320  -46.9710 C.3       1 LBV401      0.0000 
     24 CAD       -78.1800  -21.7030  -42.0270 C.2       1 LBV401      0.0000 
     25 CBA       -92.4270  -23.3010  -39.0130 C.3       1 LBV401      0.0000 
     26 CBB       -88.9880  -26.9920  -47.3870 C.3       1 LBV401      0.0000 
     27 CBC       -83.9800  -26.6020  -48.2570 C.3       1 LBV401      0.0000 
     28 CBD       -77.0690  -21.1450  -42.6390 C.2       1 LBV401      0.0000 
     29 CGB       -89.3960  -27.9100  -48.4630 C.2       1 LBV401      0.0000 
     30 CGC       -82.9860  -25.6330  -48.7050 C.2       1 LBV401      0.0000 
     31 CHB       -89.7870  -24.6250  -42.3800 C.2       1 LBV401      0.0000 
     32 CHC       -86.1700  -26.3670  -45.3320 C.2       1 LBV401      0.0000 
     33 CHD       -82.4530  -23.9260  -43.3340 C.2       1 LBV401      0.0000 
     34 CMA       -90.0990  -20.9600  -39.8050 C.3       1 LBV401      0.0000 
     35 CMB       -91.0110  -26.5930  -44.2460 C.3       1 LBV401      0.0000 
     36 CMC       -81.2430  -25.6970  -45.7250 C.3       1 LBV401      0.0000 
     37 CMD       -80.8360  -23.0540  -40.9360 C.3       1 LBV401      0.0000 
     38 N_A       -88.2860  -23.0040  -41.3150 N.am      1 LBV401      0.0000 
     39 O_A       -87.3220  -21.4360  -40.0210 O.2       1 LBV401      0.0000 
     40 N_B       -87.7220  -25.2570  -43.6610 N.pl3     1 LBV401      0.0000 
     41 N_C       -84.4570  -25.0420  -44.1730 N.2       1 LBV401      0.0000 
     42 N_D       -80.4770  -22.9250  -44.5080 N.am      1 LBV401      0.0000 
     43 O_D       -78.5140  -21.9240  -45.0310 O.2       1 LBV401      0.0000 
@<TRIPOS>BOND
     1    1    7 1    
     2    1   38 am   
     3    1   39 2    
     4    2    8 2    
     5    2   31 1    
     6    2   40 1    
     7    3   29 ar   
     8    4   10 1    
     9    4   32 2    
    10    4   41 1    
    11    5   30 ar   
    12    6   12 1    
    13    6   33 2    
    14    6   42 1    
    15    7   13 1    
    16    7   34 1    
    17    8   14 1    
    18    8   35 1    
    19    9   29 ar   
    20   10   15 2    
    21   10   23 1    
    22   11   30 ar   
    23   12   16 2    
    24   12   37 1    
    25   13   17 1    
    26   13   21 2    
    27   14   18 2    
    28   14   22 1    
    29   15   19 1    
    30   15   36 1    
    31   16   20 1    
    32   16   24 1    
    33   17   31 2    
    34   17   38 1    
    35   18   32 1    
    36   18   40 1    
    37   19   33 1    
    38   19   41 2    
    39   20   42 am   
    40   20   43 2    
    41   21   25 1    
    42   22   26 1    
    43   23   27 1    
    44   24   28 2    
    45   26   29 1    
    46   27   30 1    
@<TRIPOS>SUBSTRUCTURE
     1 LBV401      1 GROUP   
@<TRIPOS>SET

