#    Name: 5w5v_1_ANW
#    Modification time : Fri May 22 19:13:44 2020

@<TRIPOS>MOLECULE
5w5v_1_ANW
   22    24     1     0     0
SMALL
NO_CHARGES


@<TRIPOS>ATOM
      1 NAA       -39.7140  128.3570   -0.1450 N.ar      1 ANW701      0.0000 
      2 NAB       -39.3840  128.9520   -2.4780 N.pl3     1 ANW701      0.0000 
      3 CAC       -42.1430  128.2840    8.2750 C.3       1 ANW701      0.0000 
      4 CAD       -40.9810  129.1090    7.7250 C.3       1 ANW701      0.0000 
      5 CAE       -39.7260  128.8340    8.5520 C.3       1 ANW701      0.0000 
      6 CAF       -40.7260  128.7220    6.2700 C.ar      1 ANW701      0.0000 
      7 CAG       -40.9100  129.6580    5.2610 C.ar      1 ANW701      0.0000 
      8 CAH       -40.6760  129.3040    3.9240 C.ar      1 ANW701      0.0000 
      9 CAI       -40.2630  128.0250    3.6120 C.ar      1 ANW701      0.0000 
     10 CAJ       -40.0770  127.0800    4.6320 C.ar      1 ANW701      0.0000 
     11 CAK       -40.3090  127.4320    5.9560 C.ar      1 ANW701      0.0000 
     12 CAL       -40.0720  128.6790    1.1390 C.ar      1 ANW701      0.0000 
     13 CAM       -39.7640  129.2960   -1.1200 C.ar      1 ANW701      0.0000 
     14 CAN       -40.1790  130.5900   -0.8210 C.ar      1 ANW701      0.0000 
     15 CAO       -40.5350  130.9130    0.4500 C.ar      1 ANW701      0.0000 
     16 CAP       -40.4840  129.9600    1.4390 C.ar      1 ANW701      0.0000 
     17 CAQ       -40.8720  130.3030    2.8360 C.2       1 ANW701      0.0000 
     18 CAR       -40.2350  131.6480   -1.9210 C.2       1 ANW701      0.0000 
     19 OAS       -40.0160  127.6510    2.2020 O.3       1 ANW701      0.0000 
     20 OAT       -41.3350  131.3660    3.0820 O.2       1 ANW701      0.0000 
     21 OAU       -39.8320  131.3710   -3.0820 O.co2     1 ANW701      0.0000 
     22 OAV       -40.6840  132.7970   -1.6680 O.co2     1 ANW701      0.0000 
@<TRIPOS>BOND
     1    1   12 ar   
     2    1   13 ar   
     3    2   13 1    
     4    3    4 1    
     5    4    5 1    
     6    4    6 1    
     7    6    7 ar   
     8    6   11 ar   
     9    7    8 ar   
    10    8    9 ar   
    11    8   17 1    
    12    9   10 ar   
    13    9   19 1    
    14   10   11 ar   
    15   12   16 ar   
    16   12   19 1    
    17   13   14 ar   
    18   14   15 ar   
    19   14   18 1    
    20   15   16 ar   
    21   16   17 1    
    22   17   20 2    
    23   18   21 ar   
    24   18   22 ar   
@<TRIPOS>SUBSTRUCTURE
     1 ANW701      1 GROUP   
@<TRIPOS>SET

