#    Name: 6aoi_2_NDP
#    Modification time : Fri May 22 19:25:00 2020

@<TRIPOS>MOLECULE
6aoi_2_NDP
   48    52     1     0     1
SMALL
NO_CHARGES


@<TRIPOS>ATOM
      1 PA          3.1790   28.7900  -68.3640 P.3       1 NDP702      0.0000 
      2 O1A         2.4620   30.0620  -67.9810 O.co2     1 NDP702      0.0000 
      3 O2A         4.5410   28.8270  -69.0170 O.co2     1 NDP702      0.0000 
      4 O5B         2.1990   27.9870  -69.3490 O.3       1 NDP702      0.0000 
      5 C5B         2.3310   26.5770  -69.4950 C.3       1 NDP702      0.0000 
      6 C4B         1.1990   26.0560  -70.3700 C.3       1 NDP702      0.0000 
      7 O4B         0.8350   27.0260  -71.3620 O.3       1 NDP702      0.0000 
      8 C3B         1.6350   24.8040  -71.1080 C.3       1 NDP702      0.0000 
      9 O3B         1.0710   23.6410  -70.4950 O.3       1 NDP702      0.0000 
     10 C2B         1.1710   25.0120  -72.5410 C.3       1 NDP702      0.0000 
     11 O2B        -0.1150   24.4360  -72.7810 O.3       1 NDP702      0.0000 
     12 C1B         1.0780   26.5220  -72.6800 C.3       1 NDP702      0.0000 
     13 N9A         2.3740   27.0380  -73.2000 N.pl3     1 NDP702      0.0000 
     14 C8A         3.3130   27.7000  -72.4910 C.2       1 NDP702      0.0000 
     15 N7A         4.3820   28.0250  -73.2560 N.2       1 NDP702      0.0000 
     16 C5A         4.1370   27.5650  -74.4950 C.ar      1 NDP702      0.0000 
     17 C6A         4.8500   27.5690  -75.7980 C.ar      1 NDP702      0.0000 
     18 N6A         6.0700   28.1480  -75.9210 N.pl3     1 NDP702      0.0000 
     19 N1A         4.2400   26.9750  -76.8550 N.ar      1 NDP702      0.0000 
     20 C2A         3.0250   26.3960  -76.7470 C.ar      1 NDP702      0.0000 
     21 N3A         2.3230   26.3570  -75.5950 N.ar      1 NDP702      0.0000 
     22 C4A         2.8140   26.9130  -74.4560 C.ar      1 NDP702      0.0000 
     23 O3          3.2460   27.8260  -67.0690 O.3       1 NDP702      0.0000 
     24 PN          4.2830   28.0420  -65.8530 P.3       1 NDP702      0.0000 
     25 O1N         3.9470   27.0370  -64.7730 O.co2     1 NDP702      0.0000 
     26 O2N         5.6840   28.0850  -66.4170 O.co2     1 NDP702      0.0000 
     27 O5D         3.9020   29.5140  -65.3220 O.3       1 NDP702      0.0000 
     28 C5D         2.9780   29.6830  -64.2510 C.3       1 NDP702      0.0000 
     29 C4D         3.7550   29.7860  -62.9420 C.3       1 NDP702      0.0000 
     30 O4D         4.7070   30.8540  -63.0080 O.3       1 NDP702      0.0000 
     31 C3D         2.8290   30.0940  -61.7790 C.3       1 NDP702      0.0000 
     32 O3D         3.3290   29.4180  -60.6180 O.3       1 NDP702      0.0000 
     33 C2D         2.9370   31.5980  -61.6120 C.3       1 NDP702      0.0000 
     34 O2D         2.7730   31.9970  -60.2550 O.3       1 NDP702      0.0000 
     35 C1D         4.3510   31.8940  -62.0840 C.3       1 NDP702      0.0000 
     36 N1N         4.4750   33.2010  -62.7310 N.pl3     1 NDP702      0.0000 
     37 C2N         5.3150   34.0880  -62.1820 C.2       1 NDP702      0.0000 
     38 C3N         5.5180   35.3520  -62.7290 C.2       1 NDP702      0.0000 
     39 C7N         6.4720   36.3020  -62.0580 C.2       1 NDP702      0.0000 
     40 O7N         6.7410   37.3680  -62.5900 O.2       1 NDP702      0.0000 
     41 N7N         7.0080   35.9560  -60.8860 N.am      1 NDP702      0.0000 
     42 C4N         4.7890   35.7680  -63.9900 C.3       1 NDP702      0.0000 
     43 C5N         3.9020   34.7170  -64.4850 C.2       1 NDP702      0.0000 
     44 C6N         3.7870   33.4850  -63.8500 C.2       1 NDP702      0.0000 
     45 P2B        -0.2960   22.9310  -73.3440 P.3       1 NDP702      0.0000 
     46 O1X         0.0670   22.0500  -72.1720 O.co2     1 NDP702      0.0000 
     47 O2X        -1.7490   22.8300  -73.7400 O.co2     1 NDP702      0.0000 
     48 O3X         0.6500   22.8510  -74.5190 O.co2     1 NDP702      0.0000 
@<TRIPOS>BOND
     1    1    2 ar   
     2    1    3 ar   
     3    1    4 1    
     4    1   23 1    
     5    4    5 1    
     6    5    6 1    
     7    6    7 1    
     8    6    8 1    
     9    7   12 1    
    10    8    9 1    
    11    8   10 1    
    12   10   11 1    
    13   10   12 1    
    14   11   45 1    
    15   12   13 1    
    16   13   14 1    
    17   13   22 1    
    18   14   15 2    
    19   15   16 1    
    20   16   17 ar   
    21   16   22 ar   
    22   17   18 1    
    23   17   19 ar   
    24   19   20 ar   
    25   20   21 ar   
    26   21   22 ar   
    27   23   24 1    
    28   24   25 ar   
    29   24   26 ar   
    30   24   27 1    
    31   27   28 1    
    32   28   29 1    
    33   29   30 1    
    34   29   31 1    
    35   30   35 1    
    36   31   32 1    
    37   31   33 1    
    38   33   34 1    
    39   33   35 1    
    40   35   36 1    
    41   36   37 1    
    42   36   44 1    
    43   37   38 2    
    44   38   39 1    
    45   38   42 1    
    46   39   40 2    
    47   39   41 am   
    48   42   43 1    
    49   43   44 2    
    50   45   46 ar   
    51   45   47 ar   
    52   45   48 ar   
@<TRIPOS>SUBSTRUCTURE
     1 NDP702      1 GROUP   
@<TRIPOS>SET
ATOM$ORANGE STATIC     ATOMS   COLORGROUP SYSTEM 
42 5 5 6 6 8 8 10 10 12 12 14 14 16 16 17 17 20 \
20 22 22 28 28 29 29 31 31 33 33 35 35 37 37 38 38 39 \
39 42 42 43 43 44 44 

