#    Name: 6aoi_2_CB3
#    Modification time : Fri May 22 19:24:46 2020

@<TRIPOS>MOLECULE
6aoi_2_CB3
   35    37     1     0     0
SMALL
NO_CHARGES


@<TRIPOS>ATOM
      1 N1         42.2020   53.7300  -40.8450 N.pl3     1 CB3703      0.0000 
      2 C2         41.9840   54.0240  -42.1420 C.2       1 CB3703      0.0000 
      3 NA2        42.9560   54.6520  -42.8460 N.pl3     1 CB3703      0.0000 
      4 N3         40.8190   53.7300  -42.7740 N.2       1 CB3703      0.0000 
      5 C4         39.8010   53.1100  -42.1440 C.2       1 CB3703      0.0000 
      6 O4         38.7360   52.8390  -42.7300 O.2       1 CB3703      0.0000 
      7 C4A        39.9820   52.7570  -40.7240 C.ar      1 CB3703      0.0000 
      8 C5         38.9980   52.1200  -39.9830 C.ar      1 CB3703      0.0000 
      9 C6         39.2460   51.8230  -38.6490 C.ar      1 CB3703      0.0000 
     10 C7         40.4600   52.1560  -38.0540 C.ar      1 CB3703      0.0000 
     11 C8         41.4710   52.7970  -38.7690 C.ar      1 CB3703      0.0000 
     12 C8A        41.2720   53.1140  -40.1030 C.ar      1 CB3703      0.0000 
     13 C9         38.1820   51.1270  -37.8430 C.3       1 CB3703      0.0000 
     14 N10        37.2240   50.5100  -38.7470 N.pl3     1 CB3703      0.0000 
     15 C11        38.3990   47.7890  -41.7030 C.ar      1 CB3703      0.0000 
     16 C12        37.0620   48.1460  -41.5640 C.ar      1 CB3703      0.0000 
     17 C13        36.6770   49.0510  -40.5820 C.ar      1 CB3703      0.0000 
     18 C14        37.6280   49.6040  -39.7340 C.ar      1 CB3703      0.0000 
     19 C15        38.9660   49.2510  -39.8700 C.ar      1 CB3703      0.0000 
     20 C16        39.3490   48.3450  -40.8530 C.ar      1 CB3703      0.0000 
     21 C          38.8160   46.8110  -42.7680 C.2       1 CB3703      0.0000 
     22 O          39.9250   46.3050  -42.7240 O.2       1 CB3703      0.0000 
     23 N          37.9620   46.5170  -43.7430 N.am      1 CB3703      0.0000 
     24 CA         37.0390   45.4110  -43.6060 C.3       1 CB3703      0.0000 
     25 CB         35.9240   45.5090  -44.6450 C.3       1 CB3703      0.0000 
     26 CG         34.6600   46.0800  -44.0000 C.3       1 CB3703      0.0000 
     27 CD         33.8090   46.8180  -45.0090 C.2       1 CB3703      0.0000 
     28 OE1        33.3350   47.9360  -44.6950 O.co2     1 CB3703      0.0000 
     29 OE2        33.6060   46.2810  -46.1210 O.co2     1 CB3703      0.0000 
     30 CT         37.7820   44.1130  -43.7100 C.2       1 CB3703      0.0000 
     31 O1         39.0340   44.1660  -43.7060 O.co2     1 CB3703      0.0000 
     32 O2         37.1400   43.0380  -43.7860 O.co2     1 CB3703      0.0000 
     33 CP1        35.8160   50.8310  -38.6170 C.3       1 CB3703      0.0000 
     34 CP2        35.4200   51.7300  -39.7130 C.1       1 CB3703      0.0000 
     35 CP3        34.9730   52.6220  -40.5230 C.1       1 CB3703      0.0000 
@<TRIPOS>BOND
     1    1    2 1    
     2    1   12 1    
     3    2    3 1    
     4    2    4 2    
     5    4    5 1    
     6    5    6 2    
     7    5    7 1    
     8    7    8 ar   
     9    7   12 ar   
    10    8    9 ar   
    11    9   10 ar   
    12    9   13 1    
    13   10   11 ar   
    14   11   12 ar   
    15   13   14 1    
    16   14   18 1    
    17   14   33 1    
    18   15   16 ar   
    19   15   20 ar   
    20   15   21 1    
    21   16   17 ar   
    22   17   18 ar   
    23   18   19 ar   
    24   19   20 ar   
    25   21   22 2    
    26   21   23 am   
    27   23   24 1    
    28   24   25 1    
    29   24   30 1    
    30   25   26 1    
    31   26   27 1    
    32   27   28 ar   
    33   27   29 ar   
    34   30   31 ar   
    35   30   32 ar   
    36   33   34 1    
    37   34   35 3    
@<TRIPOS>SUBSTRUCTURE
     1 CB3703      1 GROUP   
@<TRIPOS>SET

