#    Name: 6aoi_1_CB3
#    Modification time : Fri May 22 19:24:35 2020

@<TRIPOS>MOLECULE
6aoi_1_CB3
   35    37     1     0     0
SMALL
NO_CHARGES


@<TRIPOS>ATOM
      1 N1         17.2590   83.0530  -30.9700 N.pl3     1 CB3703      0.0000 
      2 C2         16.4900   82.8010  -32.0470 C.2       1 CB3703      0.0000 
      3 NA2        15.2870   82.2020  -31.8740 N.pl3     1 CB3703      0.0000 
      4 N3         16.8740   83.1110  -33.3120 N.2       1 CB3703      0.0000 
      5 C4         18.0580   83.7050  -33.5780 C.2       1 CB3703      0.0000 
      6 O4         18.3990   83.9840  -34.7480 O.2       1 CB3703      0.0000 
      7 C4A        18.9410   84.0090  -32.4310 C.ar      1 CB3703      0.0000 
      8 C5         20.1760   84.6190  -32.5850 C.ar      1 CB3703      0.0000 
      9 C6         20.9490   84.8750  -31.4560 C.ar      1 CB3703      0.0000 
     10 C7         20.4960   84.5260  -30.1800 C.ar      1 CB3703      0.0000 
     11 C8         19.2580   83.9120  -29.9860 C.ar      1 CB3703      0.0000 
     12 C8A        18.4560   83.6390  -31.0860 C.ar      1 CB3703      0.0000 
     13 C9         22.2960   85.5360  -31.6270 C.3       1 CB3703      0.0000 
     14 N10        22.4210   86.0970  -32.9690 N.pl3     1 CB3703      0.0000 
     15 C11        19.6690   88.9110  -34.3940 C.ar      1 CB3703      0.0000 
     16 C12        20.7750   88.5710  -35.1640 C.ar      1 CB3703      0.0000 
     17 C13        21.6870   87.6340  -34.6860 C.ar      1 CB3703      0.0000 
     18 C14        21.4930   87.0310  -33.4480 C.ar      1 CB3703      0.0000 
     19 C15        20.3880   87.3760  -32.6800 C.ar      1 CB3703      0.0000 
     20 C16        19.4790   88.3140  -33.1540 C.ar      1 CB3703      0.0000 
     21 C          18.6690   89.9220  -34.8770 C.2       1 CB3703      0.0000 
     22 O          17.9250   90.4430  -34.0630 O.2       1 CB3703      0.0000 
     23 N          18.6120   90.2350  -36.1660 N.am      1 CB3703      0.0000 
     24 CA         19.4550   91.2730  -36.7200 C.3       1 CB3703      0.0000 
     25 CB         19.4300   91.2020  -38.2410 C.3       1 CB3703      0.0000 
     26 CG         20.5490   90.2910  -38.7360 C.3       1 CB3703      0.0000 
     27 CD         20.2690   89.8950  -40.1650 C.2       1 CB3703      0.0000 
     28 OE1        20.3950   88.6930  -40.4990 O.co2     1 CB3703      0.0000 
     29 OE2        19.9140   90.7950  -40.9570 O.co2     1 CB3703      0.0000 
     30 CT         19.0430   92.6400  -36.2600 C.2       1 CB3703      0.0000 
     31 O1         18.9520   92.8430  -35.0320 O.co2     1 CB3703      0.0000 
     32 O2         18.8170   93.5230  -37.1170 O.co2     1 CB3703      0.0000 
     33 CP1        23.5500   85.7230  -33.8060 C.3       1 CB3703      0.0000 
     34 CP2        23.1490   84.7450  -34.8340 C.1       1 CB3703      0.0000 
     35 CP3        22.8300   83.8940  -35.7430 C.1       1 CB3703      0.0000 
@<TRIPOS>BOND
     1    1    2 1    
     2    1   12 1    
     3    2    3 1    
     4    2    4 2    
     5    4    5 1    
     6    5    6 2    
     7    5    7 1    
     8    7    8 ar   
     9    7   12 ar   
    10    8    9 ar   
    11    9   10 ar   
    12    9   13 1    
    13   10   11 ar   
    14   11   12 ar   
    15   13   14 1    
    16   14   18 1    
    17   14   33 1    
    18   15   16 ar   
    19   15   20 ar   
    20   15   21 1    
    21   16   17 ar   
    22   17   18 ar   
    23   18   19 ar   
    24   19   20 ar   
    25   21   22 2    
    26   21   23 am   
    27   23   24 1    
    28   24   25 1    
    29   24   30 1    
    30   25   26 1    
    31   26   27 1    
    32   27   28 ar   
    33   27   29 ar   
    34   30   31 ar   
    35   30   32 ar   
    36   33   34 1    
    37   34   35 3    
@<TRIPOS>SUBSTRUCTURE
     1 CB3703      1 GROUP   
@<TRIPOS>SET

