#    Name: 6foz_1_FAD
#    Modification time : Fri May 22 19:27:54 2020

@<TRIPOS>MOLECULE
6foz_1_FAD
   84    89     1     0     1
SMALL
NO_CHARGES


@<TRIPOS>ATOM
      1 PA        -43.0170   19.2370 -188.5470 P.3       1 FAD501      0.0000 
      2 O1A       -43.7310   20.4850 -189.0250 O.co2     1 FAD501      0.0000 
      3 O2A       -43.8040   18.5480 -187.4620 O.co2     1 FAD501      0.0000 
      4 O5B       -42.7880   18.2290 -189.8370 O.3       1 FAD501      0.0000 
      5 C5B       -42.2740   16.9670 -189.6020 C.3       1 FAD501      0.0000 
      6 C4B       -42.6070   16.1010 -190.8550 C.3       1 FAD501      0.0000 
      7 O4B       -42.0070   14.9500 -190.7440 O.3       1 FAD501      0.0000 
      8 C3B       -44.1130   15.8240 -190.8880 C.3       1 FAD501      0.0000 
      9 O3B       -44.5880   16.0480 -192.1470 O.3       1 FAD501      0.0000 
     10 C2B       -44.2370   14.3310 -190.4980 C.3       1 FAD501      0.0000 
     11 O2B       -45.4180   13.7270 -191.1790 O.3       1 FAD501      0.0000 
     12 C1B       -43.1310   13.8190 -190.9590 C.3       1 FAD501      0.0000 
     13 N9A       -42.6290   12.6420 -190.2590 N.pl3     1 FAD501      0.0000 
     14 C8A       -42.5980   12.4280 -188.9390 C.2       1 FAD501      0.0000 
     15 N7A       -42.0350   11.2340 -188.7210 N.2       1 FAD501      0.0000 
     16 C5A       -41.7020   10.7170 -189.9170 C.ar      1 FAD501      0.0000 
     17 C6A       -41.1020    9.5220 -190.2710 C.ar      1 FAD501      0.0000 
     18 N6A       -40.6150    8.4040 -189.4490 N.pl3     1 FAD501      0.0000 
     19 N1A       -40.8770    9.2470 -191.5510 N.ar      1 FAD501      0.0000 
     20 C2A       -41.2440   10.1320 -192.5160 C.ar      1 FAD501      0.0000 
     21 N3A       -41.8390   11.3030 -192.1700 N.ar      1 FAD501      0.0000 
     22 C4A       -42.0610   11.5860 -190.8670 C.ar      1 FAD501      0.0000 
     23 N1        -44.5790   27.6610 -184.3730 N.2       1 FAD501      0.0000 
     24 C2        -44.5530   29.0460 -184.8850 C.2       1 FAD501      0.0000 
     25 O2        -43.5750   29.4720 -185.4030 O.2       1 FAD501      0.0000 
     26 N3        -45.7720   29.8900 -184.7510 N.am      1 FAD501      0.0000 
     27 C4        -46.9600   29.3550 -184.1090 C.2       1 FAD501      0.0000 
     28 O4        -47.9190   30.0350 -184.0060 O.2       1 FAD501      0.0000 
     29 C4X       -46.9610   27.9310 -183.5840 C.2       1 FAD501      0.0000 
     30 N5        -48.1470   27.3740 -182.9330 N.2       1 FAD501      0.0000 
     31 C5X       -48.1210   25.9650 -182.4240 C.ar      1 FAD501      0.0000 
     32 C6        -49.2540   25.4200 -181.7940 C.ar      1 FAD501      0.0000 
     33 C7        -49.2250   24.0980 -181.3160 C.ar      1 FAD501      0.0000 
     34 C7M       -50.5690   23.7460 -180.6820 C.3       1 FAD501      0.0000 
     35 C8        -48.0610   23.3250 -181.4660 C.ar      1 FAD501      0.0000 
     36 C8M       -48.0400   21.8510 -180.9330 C.3       1 FAD501      0.0000 
     37 C9        -46.9320   23.8660 -182.0940 C.ar      1 FAD501      0.0000 
     38 C9A       -46.9580   25.1810 -182.5710 C.ar      1 FAD501      0.0000 
     39 N10       -45.7400   25.7550 -183.2370 N.pl3     1 FAD501      0.0000 
     40 C10       -45.7700   27.1170 -183.7320 C.2       1 FAD501      0.0000 
     41 C1'       -44.5050   24.9510 -183.4150 C.3       1 FAD501      0.0000 
     42 C2'       -44.4630   24.4300 -184.8870 C.3       1 FAD501      0.0000 
     43 O2'       -45.6510   23.8230 -185.2260 O.3       1 FAD501      0.0000 
     44 C3'       -43.3260   23.4020 -185.0550 C.3       1 FAD501      0.0000 
     45 O3'       -42.2060   23.8440 -184.3770 O.3       1 FAD501      0.0000 
     46 C4'       -42.9910   23.2700 -186.5500 C.3       1 FAD501      0.0000 
     47 O4'       -43.9840   22.5610 -187.2060 O.3       1 FAD501      0.0000 
     48 C5'       -41.6460   22.5310 -186.6960 C.3       1 FAD501      0.0000 
     49 O5'       -41.4300   22.2620 -188.0620 O.3       1 FAD501      0.0000 
     50 P         -40.6260   20.8590 -188.4460 P.3       1 FAD501      0.0000 
     51 O1P       -40.4470   20.7790 -189.9480 O.co2     1 FAD501      0.0000 
     52 O2P       -39.3030   20.7780 -187.7140 O.co2     1 FAD501      0.0000 
     53 O3P       -41.5430   19.6020 -187.9200 O.3       1 FAD501      0.0000 
     54 H51A      -42.6840   16.5820 -188.8120 H         1 FAD501      0.0000 
     55 H52A      -41.3130   17.0170 -189.4770 H         1 FAD501      0.0000 
     56 H4B       -42.3430   16.5300 -191.6840 H         1 FAD501      0.0000 
     57 H3B       -44.5950   16.3720 -190.2490 H         1 FAD501      0.0000 
     58 HO3A      -44.1180   15.6160 -192.7080 H         1 FAD501      0.0000 
     59 H2B       -44.3120   14.2070 -189.5390 H         1 FAD501      0.0000 
     60 HO2A      -45.4130   13.9450 -192.0000 H         1 FAD501      0.0000 
     61 H1B       -43.3310   13.5940 -191.8810 H         1 FAD501      0.0000 
     62 H8A       -42.9130   13.0090 -188.2850 H         1 FAD501      0.0000 
     63 H61A      -40.5500    8.4940 -188.5960 H         1 FAD501      0.0000 
     64 H62A      -40.3950    7.6610 -189.8210 H         1 FAD501      0.0000 
     65 H2A       -41.0880    9.9350 -193.4110 H         1 FAD501      0.0000 
     66 HN3       -45.7730   30.6950 -185.0530 H         1 FAD501      0.0000 
     67 H6        -50.0020   25.9670 -181.7140 H         1 FAD501      0.0000 
     68 HM71      -51.1430   23.3370 -181.3480 H         1 FAD501      0.0000 
     69 HM72      -50.9890   24.5530 -180.3450 H         1 FAD501      0.0000 
     70 HM73      -50.4280   23.1250 -179.9510 H         1 FAD501      0.0000 
     71 HM81      -48.9000   21.6380 -180.5380 H         1 FAD501      0.0000 
     72 HM82      -47.3450   21.7600 -180.2620 H         1 FAD501      0.0000 
     73 HM83      -47.8620   21.2440 -181.6680 H         1 FAD501      0.0000 
     74 H9        -46.3110   23.1740 -182.0720 H         1 FAD501      0.0000 
     75 H1'1      -44.5130   24.2000 -182.8020 H         1 FAD501      0.0000 
     76 H1'2      -43.7270   25.5030 -183.2400 H         1 FAD501      0.0000 
     77 H2'       -44.3130   25.1940 -185.4660 H         1 FAD501      0.0000 
     78 HO2'      -45.5250   23.3060 -185.8890 H         1 FAD501      0.0000 
     79 H3'       -43.6040   22.5440 -184.6990 H         1 FAD501      0.0000 
     80 HO3'      -41.9170   23.2230 -183.8730 H         1 FAD501      0.0000 
     81 H4'       -42.9320   24.1540 -186.9460 H         1 FAD501      0.0000 
     82 HO4'      -43.6280   21.9890 -187.7250 H         1 FAD501      0.0000 
     83 H5'1      -41.6740   21.6990 -186.1990 H         1 FAD501      0.0000 
     84 H5'2      -40.9280   23.0880 -186.3550 H         1 FAD501      0.0000 
@<TRIPOS>BOND
     1    1    2 ar   
     2    1    3 ar   
     3    1    4 1    
     4    1   53 1    
     5    4    5 1    
     6    5    6 1    
     7    5   54 1    
     8    5   55 1    
     9    6    7 1    
    10    6    8 1    
    11    6   56 1    
    12    7   12 1    
    13    8    9 1    
    14    8   10 1    
    15    8   57 1    
    16    9   58 1    
    17   10   11 1    
    18   10   12 1    
    19   10   59 1    
    20   12   61 1    
    21   12   13 1    
    22   11   60 1    
    23   13   14 1    
    24   13   22 1    
    25   14   15 2    
    26   15   16 1    
    27   14   62 1    
    28   16   17 ar   
    29   16   22 ar   
    30   17   18 1    
    31   17   19 ar   
    32   19   20 ar   
    33   18   63 1    
    34   18   64 1    
    35   20   21 ar   
    36   21   22 ar   
    37   20   65 1    
    38   23   24 1    
    39   23   40 2    
    40   24   25 2    
    41   24   26 am   
    42   26   27 am   
    43   27   28 2    
    44   26   66 1    
    45   27   29 1    
    46   29   30 2    
    47   29   40 1    
    48   30   31 1    
    49   31   32 ar   
    50   31   38 ar   
    51   32   33 ar   
    52   33   34 1    
    53   32   67 1    
    54   33   35 ar   
    55   34   68 1    
    56   34   69 1    
    57   34   70 1    
    58   35   36 1    
    59   35   37 ar   
    60   37   74 1    
    61   36   71 1    
    62   36   72 1    
    63   36   73 1    
    64   37   38 ar   
    65   38   39 1    
    66   39   40 1    
    67   39   41 1    
    68   41   42 1    
    69   41   75 1    
    70   41   76 1    
    71   42   43 1    
    72   42   44 1    
    73   42   77 1    
    74   43   78 1    
    75   44   45 1    
    76   44   46 1    
    77   44   79 1    
    78   45   80 1    
    79   46   47 1    
    80   46   48 1    
    81   46   81 1    
    82   47   82 1    
    83   48   49 1    
    84   48   83 1    
    85   48   84 1    
    86   49   50 1    
    87   50   51 ar   
    88   50   52 ar   
    89   50   53 1    
@<TRIPOS>SUBSTRUCTURE
     1 FAD501      1 GROUP   
@<TRIPOS>SET
ATOM$ORANGE STATIC     ATOMS   COLORGROUP SYSTEM 
54 5 5 6 6 8 8 10 10 12 12 14 14 16 16 17 17 20 \
20 22 22 24 24 27 27 29 29 31 31 32 32 33 33 34 34 35 \
35 36 36 37 37 38 38 40 40 41 41 42 42 44 44 46 46 48 \
48 

