#    Name: 6foz_2_FAD
#    Modification time : Fri May 22 19:28:03 2020

@<TRIPOS>MOLECULE
6foz_2_FAD
   84    89     1     0     1
SMALL
NO_CHARGES


@<TRIPOS>ATOM
      1 PA        -85.7230   -3.9060 -142.3280 P.3       1 FAD501      0.0000 
      2 O1A       -85.0420   -2.6260 -141.8800 O.co2     1 FAD501      0.0000 
      3 O2A       -84.9150   -4.6390 -143.3670 O.co2     1 FAD501      0.0000 
      4 O5B       -85.9670   -4.8640 -141.0010 O.3       1 FAD501      0.0000 
      5 C5B       -86.3780   -6.1680 -141.2220 C.3       1 FAD501      0.0000 
      6 C4B       -86.0830   -6.9770 -139.9230 C.3       1 FAD501      0.0000 
      7 O4B       -86.6450   -8.1520 -140.0240 O.3       1 FAD501      0.0000 
      8 C3B       -84.5680   -7.2150 -139.8000 C.3       1 FAD501      0.0000 
      9 O3B       -84.1400   -6.9470 -138.5300 O.3       1 FAD501      0.0000 
     10 C2B       -84.4040   -8.7170 -140.1610 C.3       1 FAD501      0.0000 
     11 O2B       -83.1920   -9.2680 -139.4780 O.3       1 FAD501      0.0000 
     12 C1B       -85.5080   -9.2560 -139.7170 C.3       1 FAD501      0.0000 
     13 N9A       -85.9490  -10.4770 -140.3950 N.pl3     1 FAD501      0.0000 
     14 C8A       -85.9060  -10.7360 -141.7100 C.2       1 FAD501      0.0000 
     15 N7A       -86.4300  -11.9520 -141.9200 N.2       1 FAD501      0.0000 
     16 C5A       -86.8230  -12.4420 -140.7360 C.ar      1 FAD501      0.0000 
     17 C6A       -87.4200  -13.6420 -140.3820 C.ar      1 FAD501      0.0000 
     18 N6A       -87.8410  -14.8060 -141.1790 N.pl3     1 FAD501      0.0000 
     19 N1A       -87.7060  -13.8850 -139.1120 N.ar      1 FAD501      0.0000 
     20 C2A       -87.4170  -12.9650 -138.1560 C.ar      1 FAD501      0.0000 
     21 N3A       -86.8280  -11.7880 -138.5010 N.ar      1 FAD501      0.0000 
     22 C4A       -86.5330  -11.5320 -139.7940 C.ar      1 FAD501      0.0000 
     23 N1        -84.4160    4.4760 -146.7050 N.2       1 FAD501      0.0000 
     24 C2        -84.4660    5.8670 -146.2070 C.2       1 FAD501      0.0000 
     25 O2        -85.4410    6.2690 -145.6660 O.2       1 FAD501      0.0000 
     26 N3        -83.2820    6.7490 -146.3940 N.am      1 FAD501      0.0000 
     27 C4        -82.0930    6.2440 -147.0620 C.2       1 FAD501      0.0000 
     28 O4        -81.1550    6.9550 -147.2010 O.2       1 FAD501      0.0000 
     29 C4X       -82.0700    4.8100 -147.5670 C.2       1 FAD501      0.0000 
     30 N5        -80.8880    4.2770 -148.2420 N.2       1 FAD501      0.0000 
     31 C5X       -80.8860    2.8610 -148.7350 C.ar      1 FAD501      0.0000 
     32 C6        -79.7510    2.3490 -149.3950 C.ar      1 FAD501      0.0000 
     33 C7        -79.7500    1.0230 -149.8590 C.ar      1 FAD501      0.0000 
     34 C7M       -78.4110    0.7100 -150.5270 C.3       1 FAD501      0.0000 
     35 C8        -80.8840    0.2100 -149.6650 C.ar      1 FAD501      0.0000 
     36 C8M       -80.8740   -1.2680 -150.1820 C.3       1 FAD501      0.0000 
     37 C9        -82.0160    0.7200 -149.0120 C.ar      1 FAD501      0.0000 
     38 C9A       -82.0220    2.0440 -148.5470 C.ar      1 FAD501      0.0000 
     39 N10       -83.2370    2.5890 -147.8460 N.pl3     1 FAD501      0.0000 
     40 C10       -83.2300    3.9640 -147.3750 C.2       1 FAD501      0.0000 
     41 C1'       -84.4470    1.7570 -147.6170 C.3       1 FAD501      0.0000 
     42 C2'       -84.4350    1.2310 -146.1420 C.3       1 FAD501      0.0000 
     43 O2'       -83.2350    0.6280 -145.8430 O.3       1 FAD501      0.0000 
     44 C3'       -85.5490    0.1840 -145.9190 C.3       1 FAD501      0.0000 
     45 O3'       -86.6970    0.6030 -146.5640 O.3       1 FAD501      0.0000 
     46 C4'       -85.8420    0.0300 -144.4120 C.3       1 FAD501      0.0000 
     47 O4'       -84.8790   -0.7400 -143.7780 O.3       1 FAD501      0.0000 
     48 C5'       -87.2070   -0.6640 -144.2460 C.3       1 FAD501      0.0000 
     49 O5'       -87.4240   -0.9100 -142.8760 O.3       1 FAD501      0.0000 
     50 P         -88.1530   -2.3480 -142.4540 P.3       1 FAD501      0.0000 
     51 O1P       -88.3100   -2.4270 -140.9520 O.co2     1 FAD501      0.0000 
     52 O2P       -89.5040   -2.4720 -143.1230 O.co2     1 FAD501      0.0000 
     53 O3P       -87.1940   -3.5750 -142.9820 O.3       1 FAD501      0.0000 
     54 H51A      -85.8880   -6.5470 -141.9680 H         1 FAD501      0.0000 
     55 H52A      -87.3280   -6.1870 -141.4170 H         1 FAD501      0.0000 
     56 H4B       -86.4010   -6.5240 -139.1260 H         1 FAD501      0.0000 
     57 H3B       -84.0660   -6.6610 -140.4200 H         1 FAD501      0.0000 
     58 HO3A      -84.5760   -7.4230 -137.9770 H         1 FAD501      0.0000 
     59 H2B       -84.3230   -8.8640 -141.1160 H         1 FAD501      0.0000 
     60 HO2A      -83.4080   -9.5550 -138.7070 H         1 FAD501      0.0000 
     61 H1B       -85.3440   -9.4530 -138.7820 H         1 FAD501      0.0000 
     62 H8A       -85.5700  -10.1680 -142.3660 H         1 FAD501      0.0000 
     63 H61A      -87.9380  -15.5730 -140.8020 H         1 FAD501      0.0000 
     64 H62A      -87.9900  -14.7200 -142.0220 H         1 FAD501      0.0000 
     65 H2A       -87.6210  -13.1400 -137.2660 H         1 FAD501      0.0000 
     66 HN3       -83.3010    7.5590 -146.1060 H         1 FAD501      0.0000 
     67 H6        -79.0260    2.9210 -149.5020 H         1 FAD501      0.0000 
     68 HM71      -77.8140    0.3030 -149.8800 H         1 FAD501      0.0000 
     69 HM72      -78.0150    1.5310 -150.8590 H         1 FAD501      0.0000 
     70 HM73      -78.5530    0.0980 -151.2660 H         1 FAD501      0.0000 
     71 HM81      -80.0380   -1.4450 -150.6400 H         1 FAD501      0.0000 
     72 HM82      -81.6140   -1.4010 -150.7950 H         1 FAD501      0.0000 
     73 HM83      -80.9650   -1.8740 -149.4300 H         1 FAD501      0.0000 
     74 H9        -82.6130    0.0070 -149.0100 H         1 FAD501      0.0000 
     75 H1'1      -84.4450    1.0060 -148.2300 H         1 FAD501      0.0000 
     76 H1'2      -85.2420    2.2930 -147.7650 H         1 FAD501      0.0000 
     77 H2'       -84.5760    2.0010 -145.5690 H         1 FAD501      0.0000 
     78 HO2'      -83.0820    0.7000 -145.0100 H         1 FAD501      0.0000 
     79 H3'       -85.2580   -0.6710 -146.2730 H         1 FAD501      0.0000 
     80 HO3'      -87.0190   -0.0410 -147.0150 H         1 FAD501      0.0000 
     81 H4'       -85.8410    0.9130 -144.0100 H         1 FAD501      0.0000 
     82 HO4'      -85.2450   -1.2110 -143.1740 H         1 FAD501      0.0000 
     83 H5'1      -87.2070   -1.5030 -144.7330 H         1 FAD501      0.0000 
     84 H5'2      -87.9090   -0.0900 -144.5900 H         1 FAD501      0.0000 
@<TRIPOS>BOND
     1    1    2 ar   
     2    1    3 ar   
     3    1    4 1    
     4    1   53 1    
     5    4    5 1    
     6    5    6 1    
     7    5   54 1    
     8    5   55 1    
     9    6    7 1    
    10    6    8 1    
    11    6   56 1    
    12    7   12 1    
    13    8    9 1    
    14    8   10 1    
    15    8   57 1    
    16    9   58 1    
    17   10   11 1    
    18   10   12 1    
    19   10   59 1    
    20   12   61 1    
    21   12   13 1    
    22   11   60 1    
    23   13   14 1    
    24   13   22 1    
    25   14   15 2    
    26   15   16 1    
    27   14   62 1    
    28   16   17 ar   
    29   16   22 ar   
    30   17   18 1    
    31   17   19 ar   
    32   19   20 ar   
    33   18   63 1    
    34   18   64 1    
    35   20   21 ar   
    36   21   22 ar   
    37   20   65 1    
    38   23   24 1    
    39   23   40 2    
    40   24   25 2    
    41   24   26 am   
    42   26   27 am   
    43   27   28 2    
    44   26   66 1    
    45   27   29 1    
    46   29   30 2    
    47   29   40 1    
    48   30   31 1    
    49   31   32 ar   
    50   31   38 ar   
    51   32   33 ar   
    52   33   34 1    
    53   32   67 1    
    54   33   35 ar   
    55   34   68 1    
    56   34   69 1    
    57   34   70 1    
    58   35   36 1    
    59   35   37 ar   
    60   37   74 1    
    61   36   71 1    
    62   36   72 1    
    63   36   73 1    
    64   37   38 ar   
    65   38   39 1    
    66   39   40 1    
    67   39   41 1    
    68   41   42 1    
    69   41   75 1    
    70   41   76 1    
    71   42   43 1    
    72   42   44 1    
    73   42   77 1    
    74   43   78 1    
    75   44   45 1    
    76   44   46 1    
    77   44   79 1    
    78   45   80 1    
    79   46   47 1    
    80   46   48 1    
    81   46   81 1    
    82   47   82 1    
    83   48   49 1    
    84   48   83 1    
    85   48   84 1    
    86   49   50 1    
    87   50   51 ar   
    88   50   52 ar   
    89   50   53 1    
@<TRIPOS>SUBSTRUCTURE
     1 FAD501      1 GROUP   
@<TRIPOS>SET
ATOM$ORANGE STATIC     ATOMS   COLORGROUP SYSTEM 
54 5 5 6 6 8 8 10 10 12 12 14 14 16 16 17 17 20 \
20 22 22 24 24 27 27 29 29 31 31 32 32 33 33 34 34 35 \
35 36 36 37 37 38 38 40 40 41 41 42 42 44 44 46 46 48 \
48 

