#    Name: 5yh3_3_ATP
#    Modification time : Fri May 22 19:18:12 2020

@<TRIPOS>MOLECULE
5yh3_3_ATP
   31    33     1     0     1
SMALL
NO_CHARGES


@<TRIPOS>ATOM
      1 PG        -12.4390   -0.6440  -56.4080 P.3       1 ATP701      0.0000 
      2 O1G       -12.9960   -1.7590  -57.2630 O.co2     1 ATP701      0.0000 
      3 O2G       -11.7650   -1.0740  -55.1320 O.co2     1 ATP701      0.0000 
      4 O3G       -11.6780    0.4150  -57.1720 O.co2     1 ATP701      0.0000 
      5 PB        -14.0870    1.5950  -56.3690 P.3       1 ATP701      0.0000 
      6 O1B       -13.9990    1.6150  -57.8780 O.co2     1 ATP701      0.0000 
      7 O2B       -13.2670    2.5660  -55.5520 O.co2     1 ATP701      0.0000 
      8 O3B       -13.7520    0.1070  -55.8720 O.3       1 ATP701      0.0000 
      9 PA        -16.8040    1.2970  -56.9430 P.3       1 ATP701      0.0000 
     10 O1A       -16.6040    2.0830  -58.2170 O.co2     1 ATP701      0.0000 
     11 O2A       -16.9110   -0.2080  -56.9710 O.co2     1 ATP701      0.0000 
     12 O3A       -15.6300    1.7010  -55.9180 O.3       1 ATP701      0.0000 
     13 O5'       -18.1150    1.8870  -56.2290 O.3       1 ATP701      0.0000 
     14 C5'       -18.6320    3.1330  -56.6780 C.3       1 ATP701      0.0000 
     15 C4'       -19.8020    2.9430  -57.6350 C.3       1 ATP701      0.0000 
     16 O4'       -20.9310    3.6420  -57.1110 O.3       1 ATP701      0.0000 
     17 C3'       -19.4810    3.5650  -58.9820 C.3       1 ATP701      0.0000 
     18 O3'       -20.0890    2.8100  -60.0330 O.3       1 ATP701      0.0000 
     19 C2'       -20.1130    4.9380  -58.9320 C.3       1 ATP701      0.0000 
     20 O2'       -20.7010    5.2330  -60.2010 O.3       1 ATP701      0.0000 
     21 C1'       -21.1690    4.8510  -57.8370 C.3       1 ATP701      0.0000 
     22 N9        -21.0350    5.9830  -56.8830 N.pl3     1 ATP701      0.0000 
     23 C8        -20.3730    5.9320  -55.7090 C.2       1 ATP701      0.0000 
     24 N7        -20.4320    7.1190  -55.0530 N.2       1 ATP701      0.0000 
     25 C5        -21.1510    7.9630  -55.8170 C.ar      1 ATP701      0.0000 
     26 C6        -21.5950    9.3750  -55.7180 C.ar      1 ATP701      0.0000 
     27 N6        -21.2740   10.1390  -54.6430 N.pl3     1 ATP701      0.0000 
     28 N1        -22.3340    9.8760  -56.7350 N.ar      1 ATP701      0.0000 
     29 C2        -22.6610    9.1280  -57.8070 C.ar      1 ATP701      0.0000 
     30 N3        -22.2930    7.8410  -57.9620 N.ar      1 ATP701      0.0000 
     31 C4        -21.5490    7.2100  -57.0200 C.ar      1 ATP701      0.0000 
@<TRIPOS>BOND
     1    1    2 ar   
     2    1    3 ar   
     3    1    4 ar   
     4    1    8 1    
     5    5    6 ar   
     6    5    7 ar   
     7    5    8 1    
     8    5   12 1    
     9    9   10 ar   
    10    9   11 ar   
    11    9   12 1    
    12    9   13 1    
    13   13   14 1    
    14   14   15 1    
    15   15   16 1    
    16   15   17 1    
    17   16   21 1    
    18   17   18 1    
    19   17   19 1    
    20   19   20 1    
    21   19   21 1    
    22   21   22 1    
    23   22   23 1    
    24   22   31 1    
    25   23   24 2    
    26   24   25 1    
    27   25   26 ar   
    28   25   31 ar   
    29   26   27 1    
    30   26   28 ar   
    31   28   29 ar   
    32   29   30 ar   
    33   30   31 ar   
@<TRIPOS>SUBSTRUCTURE
     1 ATP701      1 GROUP   
@<TRIPOS>SET
ATOM$ORANGE STATIC     ATOMS   COLORGROUP SYSTEM 
20 14 14 15 15 17 17 19 19 21 21 23 23 25 25 26 26 29 \
29 31 31 

