#    Name: 5yh3_2_ATP
#    Modification time : Fri May 22 19:18:06 2020

@<TRIPOS>MOLECULE
5yh3_2_ATP
   31    33     1     0     1
SMALL
NO_CHARGES


@<TRIPOS>ATOM
      1 PG        -27.0620   42.4090  -10.4910 P.3       1 ATP702      0.0000 
      2 O1G       -27.7240   42.2020  -11.8370 O.co2     1 ATP702      0.0000 
      3 O2G       -27.9550   42.1850   -9.2890 O.co2     1 ATP702      0.0000 
      4 O3G       -25.7210   41.7280  -10.3770 O.co2     1 ATP702      0.0000 
      5 PB        -27.7640   45.1700  -10.2890 P.3       1 ATP702      0.0000 
      6 O1B       -29.0300   44.5740   -9.7260 O.co2     1 ATP702      0.0000 
      7 O2B       -27.0820   46.2740   -9.5230 O.co2     1 ATP702      0.0000 
      8 O3B       -26.6860   43.9810  -10.4770 O.3       1 ATP702      0.0000 
      9 PA        -28.1750   47.1270  -12.4010 P.3       1 ATP702      0.0000 
     10 O1A       -27.9200   47.0890  -13.8890 O.co2     1 ATP702      0.0000 
     11 O2A       -29.4440   47.7790  -11.9250 O.co2     1 ATP702      0.0000 
     12 O3A       -28.0140   45.6220  -11.8240 O.3       1 ATP702      0.0000 
     13 O5'       -26.9780   47.9600  -11.7340 O.3       1 ATP702      0.0000 
     14 C5'       -27.3660   48.9820  -10.8320 C.3       1 ATP702      0.0000 
     15 C4'       -26.1980   49.7540  -10.2460 C.3       1 ATP702      0.0000 
     16 O4'       -26.3950   51.1320  -10.5590 O.3       1 ATP702      0.0000 
     17 C3'       -26.2070   49.6230   -8.7370 C.3       1 ATP702      0.0000 
     18 O3'       -24.9530   49.1050   -8.2880 O.3       1 ATP702      0.0000 
     19 C2'       -26.4240   51.0200   -8.2000 C.3       1 ATP702      0.0000 
     20 O2'       -25.2020   51.4730   -7.6150 O.3       1 ATP702      0.0000 
     21 C1'       -26.7550   51.8870   -9.4020 C.3       1 ATP702      0.0000 
     22 N9        -28.2140   52.2060   -9.4850 N.pl3     1 ATP702      0.0000 
     23 C8        -29.1930   51.3350   -9.8020 C.2       1 ATP702      0.0000 
     24 N7        -30.4180   51.9110   -9.8100 N.2       1 ATP702      0.0000 
     25 C5        -30.2410   53.2000   -9.4890 C.ar      1 ATP702      0.0000 
     26 C6        -31.1290   54.3720   -9.3150 C.ar      1 ATP702      0.0000 
     27 N6        -32.4670   54.2640   -9.4910 N.pl3     1 ATP702      0.0000 
     28 N1        -30.5550   55.5470   -8.9740 N.ar      1 ATP702      0.0000 
     29 C2        -29.2230   55.6560   -8.7980 C.ar      1 ATP702      0.0000 
     30 N3        -28.3580   54.6330   -8.9400 N.ar      1 ATP702      0.0000 
     31 C4        -28.7940   53.3950   -9.2770 C.ar      1 ATP702      0.0000 
@<TRIPOS>BOND
     1    1    2 ar   
     2    1    3 ar   
     3    1    4 ar   
     4    1    8 1    
     5    5    6 ar   
     6    5    7 ar   
     7    5    8 1    
     8    5   12 1    
     9    9   10 ar   
    10    9   11 ar   
    11    9   12 1    
    12    9   13 1    
    13   13   14 1    
    14   14   15 1    
    15   15   16 1    
    16   15   17 1    
    17   16   21 1    
    18   17   18 1    
    19   17   19 1    
    20   19   20 1    
    21   19   21 1    
    22   21   22 1    
    23   22   23 1    
    24   22   31 1    
    25   23   24 2    
    26   24   25 1    
    27   25   26 ar   
    28   25   31 ar   
    29   26   27 1    
    30   26   28 ar   
    31   28   29 ar   
    32   29   30 ar   
    33   30   31 ar   
@<TRIPOS>SUBSTRUCTURE
     1 ATP702      1 GROUP   
@<TRIPOS>SET
ATOM$ORANGE STATIC     ATOMS   COLORGROUP SYSTEM 
20 14 14 15 15 17 17 19 19 21 21 23 23 25 25 26 26 29 \
29 31 31 

