#    Name: 5yh3_2_ATP_CAVITY_N1_12
#    Modification time : Fri May 22 19:18:07 2020

@<TRIPOS>MOLECULE
5yh3_2_ATP_CAVITY_N1_12
   80     0     7     0     0
SMALL
NO_CHARGES


@<TRIPOS>ATOM
      1 OG        -25.3100   45.0900  -15.2300 O.3       1 SER1        0.0000 
      2 OG        -26.6700   45.0100  -14.6000 O.3       1 SER1        0.0000 
      3 OG        -28.4200   46.2000  -14.6700 O.3       1 SER1        0.0000 
      4 OG        -25.2100   47.1500  -14.7600 O.3       1 SER1        0.0000 
      5 OG        -26.5700   47.0700  -14.1300 O.3       1 SER1        0.0000 
      6 OG        -26.9700   48.3400  -14.8300 O.3       1 SER1        0.0000 
      7 OG        -27.9300   47.0000  -13.5000 O.3       1 SER1        0.0000 
      8 O         -29.7800   46.1200  -14.0400 O.2       2 ALA2        0.0000 
      9 O         -21.3800   41.6900  -10.7300 O.2       2 ALA2        0.0000 
     10 O         -21.2800   43.7600  -10.2600 O.2       2 ALA2        0.0000 
     11 N         -26.8400   50.6600  -10.6900 N.am      2 ALA2        0.0000 
     12 OD1       -29.0900   41.5200  -13.1100 O.co2     3 ASP3        0.0000 
     13 OD1       -29.4900   42.7900  -13.8100 O.co2     3 ASP3        0.0000 
     14 OD1       -22.7600   41.3600  -13.7600 O.co2     3 ASP3        0.0000 
     15 OD1       -24.5200   42.5500  -13.8300 O.co2     3 ASP3        0.0000 
     16 OD1       -25.4800   41.2100  -12.5100 O.co2     3 ASP3        0.0000 
     17 OD1       -25.8800   42.4700  -13.2000 O.co2     3 ASP3        0.0000 
     18 OD1       -26.2700   43.7400  -13.9000 O.co2     3 ASP3        0.0000 
     19 OD1       -26.8400   41.1300  -11.8800 O.co2     3 ASP3        0.0000 
     20 OD1       -27.2400   42.4000  -12.5700 O.co2     3 ASP3        0.0000 
     21 OD1       -27.6300   43.6600  -13.2700 O.co2     3 ASP3        0.0000 
     22 OD1       -28.8200   47.4700  -15.3700 O.co2     3 ASP3        0.0000 
     23 OD1       -28.6000   42.3200  -11.9500 O.co2     3 ASP3        0.0000 
     24 OD1       -28.9900   43.5900  -12.6400 O.co2     3 ASP3        0.0000 
     25 OD1       -29.3900   44.8500  -13.3400 O.co2     3 ASP3        0.0000 
     26 OD1       -30.1800   47.3900  -14.7400 O.co2     3 ASP3        0.0000 
     27 OD1       -23.6300   42.0800  -11.9700 O.co2     3 ASP3        0.0000 
     28 OD1       -24.5900   40.7400  -10.6400 O.co2     3 ASP3        0.0000 
     29 OD1       -25.9500   40.6600  -10.0100 O.co2     3 ASP3        0.0000 
     30 OD1       -26.3500   41.9300  -10.7100 O.co2     3 ASP3        0.0000 
     31 OD1       -27.1400   44.4600  -12.1000 O.co2     3 ASP3        0.0000 
     32 OD1       -27.5300   45.7300  -12.8000 O.co2     3 ASP3        0.0000 
     33 OD1       -28.1000   43.1200  -10.7800 O.co2     3 ASP3        0.0000 
     34 OD1       -29.2900   46.9200  -12.8700 O.co2     3 ASP3        0.0000 
     35 OD1       -28.4000   46.4500  -11.0000 O.co2     3 ASP3        0.0000 
     36 OD1       -28.7900   47.7200  -11.7000 O.co2     3 ASP3        0.0000 
     37 OD1       -22.6400   43.6800   -9.6300 O.co2     3 ASP3        0.0000 
     38 OD1       -24.3900   44.8700   -9.7000 O.co2     3 ASP3        0.0000 
     39 OD1       -28.3000   48.5200  -10.5300 O.co2     3 ASP3        0.0000 
     40 NZ        -24.4200   44.6200  -13.3600 N.4       4 LYS4        0.0000 
     41 NZ        -25.7800   44.5400  -12.7300 N.4       4 LYS4        0.0000 
     42 NZ        -26.1700   45.8100  -13.4300 N.4       4 LYS4        0.0000 
     43 NZ        -23.5300   44.1500  -11.4900 N.4       4 LYS4        0.0000 
     44 NZ        -24.8900   44.0700  -10.8700 N.4       4 LYS4        0.0000 
     45 NZ        -25.2800   45.3400  -11.5600 N.4       4 LYS4        0.0000 
     46 NZ        -26.0700   47.8700  -12.9600 N.4       4 LYS4        0.0000 
     47 NZ        -26.6400   45.2600  -10.9300 N.4       4 LYS4        0.0000 
     48 NZ        -27.0400   46.5300  -11.6300 N.4       4 LYS4        0.0000 
     49 NZ        -27.4300   47.8000  -12.3300 N.4       4 LYS4        0.0000 
     50 NZ        -26.5400   47.3300  -10.4600 N.4       4 LYS4        0.0000 
     51 NZ        -26.9400   48.5900  -11.1600 N.4       4 LYS4        0.0000 
     52 NZ        -25.0800   49.4700  -10.6200 N.4       4 LYS4        0.0000 
     53 NZ        -26.4400   49.3900   -9.9900 N.4       4 LYS4        0.0000 
     54 CZ        -28.5200   44.1300  -15.1400 C.ar      5 PHE5        0.0000 
     55 CZ        -28.0300   44.9300  -13.9700 C.ar      5 PHE5        0.0000 
     56 CA        -23.1600   42.6300  -14.4600 C.3       6 GLY6        0.0000 
     57 CA        -23.5600   43.9000  -15.1600 C.3       6 GLY6        0.0000 
     58 CA        -24.9100   43.8200  -14.5300 C.3       6 GLY6        0.0000 
     59 CA        -20.9100   42.2400  -13.2200 C.3       6 GLY6        0.0000 
     60 CA        -22.2700   42.1600  -12.5900 C.3       6 GLY6        0.0000 
     61 CA        -22.6600   43.4300  -13.2900 C.3       6 GLY6        0.0000 
     62 CA        -23.0600   44.6900  -13.9900 C.3       6 GLY6        0.0000 
     63 CA        -24.8100   45.8800  -14.0600 C.3       6 GLY6        0.0000 
     64 CA        -28.3200   48.2600  -14.2000 C.3       6 GLY6        0.0000 
     65 CA        -29.6800   48.1900  -13.5700 C.3       6 GLY6        0.0000 
     66 CA        -21.7700   42.9600  -11.4300 C.3       6 GLY6        0.0000 
     67 CA        -22.1700   44.2300  -12.1200 C.3       6 GLY6        0.0000 
     68 CA        -26.4700   49.1400  -13.6600 C.3       6 GLY6        0.0000 
     69 CA        -27.8300   49.0600  -13.0300 C.3       6 GLY6        0.0000 
     70 CA        -29.1900   48.9800  -12.4000 C.3       6 GLY6        0.0000 
     71 CA        -27.3300   49.8600  -11.8600 C.3       6 GLY6        0.0000 
     72 CA        -28.6900   49.7800  -11.2300 C.3       6 GLY6        0.0000 
     73 DU        -24.0200   43.3500  -12.6600 H         7 CUB7        0.0000 
     74 DU        -24.9900   42.0000  -11.3400 H         7 CUB7        0.0000 
     75 DU        -25.3800   43.2700  -12.0300 H         7 CUB7        0.0000 
     76 DU        -26.7400   43.1900  -11.4100 H         7 CUB7        0.0000 
     77 DU        -23.1300   42.8800  -10.8000 H         7 CUB7        0.0000 
     78 DU        -24.4900   42.8000  -10.1700 H         7 CUB7        0.0000 
     79 DU        -25.8500   42.7300   -9.5400 H         7 CUB7        0.0000 
     80 DU        -26.2500   43.9900  -10.2400 H         7 CUB7        0.0000 
@<TRIPOS>BOND
@<TRIPOS>SUBSTRUCTURE
     1 SER1        1 GROUP   
     2 ALA2        8 GROUP   
     3 ASP3       12 GROUP   
     4 LYS4       40 GROUP   
     5 PHE5       54 GROUP   
     6 GLY6       56 GROUP   
     7 CUB7       73 GROUP   
@<TRIPOS>SET

