#    Name: 5yh3_1_ATP
#    Modification time : Fri May 22 19:18:00 2020

@<TRIPOS>MOLECULE
5yh3_1_ATP
   31    33     1     0     1
SMALL
NO_CHARGES


@<TRIPOS>ATOM
      1 PG        -25.8540   36.4610  -10.3670 P.3       1 ATP701      0.0000 
      2 O1G       -25.8640   37.7860  -11.0910 O.co2     1 ATP701      0.0000 
      3 O2G       -25.6630   36.5810   -8.8720 O.co2     1 ATP701      0.0000 
      4 O3G       -26.9630   35.5310  -10.7940 O.co2     1 ATP701      0.0000 
      5 PB        -23.2880   36.3760  -11.6170 P.3       1 ATP701      0.0000 
      6 O1B       -23.7300   37.4990  -12.5240 O.co2     1 ATP701      0.0000 
      7 O2B       -22.4080   35.2790  -12.1600 O.co2     1 ATP701      0.0000 
      8 O3B       -24.5220   35.6910  -10.8440 O.3       1 ATP701      0.0000 
      9 PA        -21.1300   37.7310  -10.5640 P.3       1 ATP701      0.0000 
     10 O1A       -21.2610   38.6520  -11.7490 O.co2     1 ATP701      0.0000 
     11 O2A       -20.6560   38.2410   -9.2230 O.co2     1 ATP701      0.0000 
     12 O3A       -22.5220   36.9790  -10.3480 O.3       1 ATP701      0.0000 
     13 O5'       -20.2190   36.4800  -11.0000 O.3       1 ATP701      0.0000 
     14 C5'       -19.3590   36.5920  -12.1300 C.3       1 ATP701      0.0000 
     15 C4'       -17.9040   36.6170  -11.6810 C.3       1 ATP701      0.0000 
     16 O4'       -17.1480   35.6790  -12.4460 O.3       1 ATP701      0.0000 
     17 C3'       -17.3120   37.9940  -11.9120 C.3       1 ATP701      0.0000 
     18 O3'       -16.5660   38.4080  -10.7660 O.3       1 ATP701      0.0000 
     19 C2'       -16.3440   37.8170  -13.0490 C.3       1 ATP701      0.0000 
     20 O2'       -15.1400   38.5190  -12.7440 O.3       1 ATP701      0.0000 
     21 C1'       -16.0790   36.3250  -13.1350 C.3       1 ATP701      0.0000 
     22 N9        -16.0580   35.9210  -14.5660 N.pl3     1 ATP701      0.0000 
     23 C8        -17.0390   35.2920  -15.2440 C.2       1 ATP701      0.0000 
     24 N7        -16.6770   35.0820  -16.5360 N.2       1 ATP701      0.0000 
     25 C5        -15.4400   35.5840  -16.6980 C.ar      1 ATP701      0.0000 
     26 C6        -14.4630   35.6970  -17.8050 C.ar      1 ATP701      0.0000 
     27 N6        -14.7400   35.2200  -19.0390 N.pl3     1 ATP701      0.0000 
     28 N1        -13.2800   36.2900  -17.5480 N.ar      1 ATP701      0.0000 
     29 C2        -12.9880   36.7700  -16.3270 C.ar      1 ATP701      0.0000 
     30 N3        -13.8220   36.7040  -15.2780 N.ar      1 ATP701      0.0000 
     31 C4        -15.0400   36.1320  -15.3980 C.ar      1 ATP701      0.0000 
@<TRIPOS>BOND
     1    1    2 ar   
     2    1    3 ar   
     3    1    4 ar   
     4    1    8 1    
     5    5    6 ar   
     6    5    7 ar   
     7    5    8 1    
     8    5   12 1    
     9    9   10 ar   
    10    9   11 ar   
    11    9   12 1    
    12    9   13 1    
    13   13   14 1    
    14   14   15 1    
    15   15   16 1    
    16   15   17 1    
    17   16   21 1    
    18   17   18 1    
    19   17   19 1    
    20   19   20 1    
    21   19   21 1    
    22   21   22 1    
    23   22   23 1    
    24   22   31 1    
    25   23   24 2    
    26   24   25 1    
    27   25   26 ar   
    28   25   31 ar   
    29   26   27 1    
    30   26   28 ar   
    31   28   29 ar   
    32   29   30 ar   
    33   30   31 ar   
@<TRIPOS>SUBSTRUCTURE
     1 ATP701      1 GROUP   
@<TRIPOS>SET
ATOM$ORANGE STATIC     ATOMS   COLORGROUP SYSTEM 
20 14 14 15 15 17 17 19 19 21 21 23 23 25 25 26 26 29 \
29 31 31 

