#    Name: 6pr0_1_SAH
#    Modification time : Fri May 22 19:34:02 2020

@<TRIPOS>MOLECULE
6pr0_1_SAH
   26    28     1     0     0
SMALL
NO_CHARGES


@<TRIPOS>ATOM
      1 N          69.2700    1.5610   17.9030 N.4       1 SAH501      0.0000 
      2 CA         68.2130    1.1310   16.9760 C.3       1 SAH501      0.0000 
      3 CB         67.9970    2.1570   15.8490 C.3       1 SAH501      0.0000 
      4 CG         67.6270    3.5870   16.2660 C.3       1 SAH501      0.0000 
      5 SD         67.6920    4.7040   14.8130 S.3       1 SAH501      0.0000 
      6 C          68.5490   -0.2310   16.3620 C.2       1 SAH501      0.0000 
      7 O          69.6010   -0.8030   16.6690 O.co2     1 SAH501      0.0000 
      8 OXT        67.7900   -0.7800   15.5460 O.co2     1 SAH501      0.0000 
      9 C5'        65.9510    4.5210   14.3370 C.3       1 SAH501      0.0000 
     10 C4'        65.7370    3.7820   13.0100 C.3       1 SAH501      0.0000 
     11 O4'        65.7970    2.3580   13.1660 O.3       1 SAH501      0.0000 
     12 C3'        64.3530    4.0120   12.4090 C.3       1 SAH501      0.0000 
     13 O3'        64.2700    5.2180   11.7000 O.3       1 SAH501      0.0000 
     14 C2'        64.1700    2.8240   11.4960 C.3       1 SAH501      0.0000 
     15 O2'        64.9120    3.0180   10.3130 O.3       1 SAH501      0.0000 
     16 C1'        64.8940    1.7350   12.2640 C.3       1 SAH501      0.0000 
     17 N9         63.9690    0.8390   12.9800 N.pl3     1 SAH501      0.0000 
     18 C8         63.8690    0.6900   14.3420 C.2       1 SAH501      0.0000 
     19 N7         62.9350   -0.2560   14.6030 N.2       1 SAH501      0.0000 
     20 C5         62.4350   -0.7060   13.4220 C.ar      1 SAH501      0.0000 
     21 C6         61.4680   -1.6640   13.1110 C.ar      1 SAH501      0.0000 
     22 N6         60.8110   -2.3500   14.0670 N.pl3     1 SAH501      0.0000 
     23 N1         61.1920   -1.9100   11.7790 N.ar      1 SAH501      0.0000 
     24 C2         61.8280   -1.2210   10.7750 C.ar      1 SAH501      0.0000 
     25 N3         62.7870   -0.2920   11.0840 N.ar      1 SAH501      0.0000 
     26 C4         63.0860   -0.0320   12.3910 C.ar      1 SAH501      0.0000 
@<TRIPOS>BOND
     1    1    2 1    
     2    2    3 1    
     3    2    6 1    
     4    3    4 1    
     5    4    5 1    
     6    5    9 1    
     7    6    7 ar   
     8    6    8 ar   
     9    9   10 1    
    10   10   11 1    
    11   10   12 1    
    12   11   16 1    
    13   12   13 1    
    14   12   14 1    
    15   14   15 1    
    16   14   16 1    
    17   16   17 1    
    18   17   18 1    
    19   17   26 1    
    20   18   19 2    
    21   19   20 1    
    22   20   21 ar   
    23   20   26 ar   
    24   21   22 1    
    25   21   23 ar   
    26   23   24 ar   
    27   24   25 ar   
    28   25   26 ar   
@<TRIPOS>SUBSTRUCTURE
     1 SAH501      1 GROUP   
@<TRIPOS>SET

