#    Name: 6ko6_1_ANP
#    Modification time : Fri May 22 19:32:36 2020

@<TRIPOS>MOLECULE
6ko6_1_ANP
   31    33     1     0     1
SMALL
NO_CHARGES


@<TRIPOS>ATOM
      1 PG          8.3900   13.2410  -18.1130 P.3       1 ANP401      0.0000 
      2 O1G         9.7230   13.4030  -17.4740 O.co2     1 ANP401      0.0000 
      3 O2G         7.4120   14.1590  -17.5020 O.co2     1 ANP401      0.0000 
      4 O3G         8.5520   13.4930  -19.5540 O.co2     1 ANP401      0.0000 
      5 PB          8.3280   10.4180  -18.7070 P.3       1 ANP401      0.0000 
      6 O1B         7.0720    9.8360  -19.2590 O.co2     1 ANP401      0.0000 
      7 O2B         9.4200   10.7300  -19.6740 O.co2     1 ANP401      0.0000 
      8 N3B         7.9730   11.7090  -17.8230 N.3       1 ANP401      0.0000 
      9 PA         10.2770    9.3600  -16.8370 P.3       1 ANP401      0.0000 
     10 O1A        11.1640    8.4860  -17.6320 O.co2     1 ANP401      0.0000 
     11 O2A        10.7190   10.7410  -16.5610 O.co2     1 ANP401      0.0000 
     12 O3A         8.8700    9.4660  -17.5640 O.3       1 ANP401      0.0000 
     13 O5'         9.9300    8.6380  -15.4700 O.3       1 ANP401      0.0000 
     14 C5'         8.8260    9.0510  -14.6620 C.3       1 ANP401      0.0000 
     15 C4'         9.1410    8.6780  -13.2400 C.3       1 ANP401      0.0000 
     16 O4'         9.4900    7.2800  -13.1860 O.3       1 ANP401      0.0000 
     17 C3'        10.3650    9.3710  -12.6470 C.3       1 ANP401      0.0000 
     18 O3'        10.0440   10.6790  -12.1960 O.3       1 ANP401      0.0000 
     19 C2'        10.8190    8.3860  -11.5660 C.3       1 ANP401      0.0000 
     20 O2'        10.2420    8.6620  -10.3130 O.3       1 ANP401      0.0000 
     21 C1'        10.3690    7.0330  -12.1170 C.3       1 ANP401      0.0000 
     22 N9         11.5150    6.3290  -12.6460 N.pl3     1 ANP401      0.0000 
     23 C8         11.9850    6.3530  -13.9150 C.2       1 ANP401      0.0000 
     24 N7         13.0820    5.6580  -14.0730 N.2       1 ANP401      0.0000 
     25 C5         13.3620    5.1810  -12.8050 C.ar      1 ANP401      0.0000 
     26 C6         14.4000    4.3910  -12.2920 C.ar      1 ANP401      0.0000 
     27 N6         15.4090    3.9350  -13.0180 N.pl3     1 ANP401      0.0000 
     28 N1         14.3770    4.1210  -10.9720 N.ar      1 ANP401      0.0000 
     29 C2         13.3660    4.5910  -10.2400 C.ar      1 ANP401      0.0000 
     30 N3         12.3300    5.3290  -10.6140 N.ar      1 ANP401      0.0000 
     31 C4         12.3970    5.5930  -11.9200 C.ar      1 ANP401      0.0000 
@<TRIPOS>BOND
     1    1    2 ar   
     2    1    3 ar   
     3    1    4 ar   
     4    1    8 1    
     5    5    6 ar   
     6    5    7 ar   
     7    5    8 1    
     8    5   12 1    
     9    9   10 ar   
    10    9   11 ar   
    11    9   12 1    
    12    9   13 1    
    13   13   14 1    
    14   14   15 1    
    15   15   16 1    
    16   15   17 1    
    17   16   21 1    
    18   17   18 1    
    19   17   19 1    
    20   19   20 1    
    21   19   21 1    
    22   21   22 1    
    23   22   23 1    
    24   22   31 1    
    25   23   24 2    
    26   24   25 1    
    27   25   26 ar   
    28   25   31 ar   
    29   26   27 1    
    30   26   28 ar   
    31   28   29 ar   
    32   29   30 ar   
    33   30   31 ar   
@<TRIPOS>SUBSTRUCTURE
     1 ANP401      1 GROUP   
@<TRIPOS>SET
ATOM$ORANGE STATIC     ATOMS   COLORGROUP SYSTEM 
20 14 14 15 15 17 17 19 19 21 21 23 23 25 25 26 26 29 \
29 31 31 

