#    Name: 6s5e_6_ATP
#    Modification time : Fri May 22 19:28:04 2020

@<TRIPOS>MOLECULE
6s5e_6_ATP
   31    33     1     0     1
SMALL
NO_CHARGES


@<TRIPOS>ATOM
      1 PG         64.4400   -5.5690    1.8080 P.3       1 ATP601      0.0000 
      2 O1G        64.1690   -6.1140    3.1910 O.co2     1 ATP601      0.0000 
      3 O2G        64.0910   -4.1110    1.6260 O.co2     1 ATP601      0.0000 
      4 O3G        63.9540   -6.4710    0.7000 O.co2     1 ATP601      0.0000 
      5 PB         66.8570   -6.2100    0.4420 P.3       1 ATP601      0.0000 
      6 O1B        65.9690   -7.0500   -0.4420 O.co2     1 ATP601      0.0000 
      7 O2B        67.6130   -5.0500   -0.1620 O.co2     1 ATP601      0.0000 
      8 O3B        66.0460   -5.5990    1.6950 O.3       1 ATP601      0.0000 
      9 PA         68.1060   -8.7310    0.8660 P.3       1 ATP601      0.0000 
     10 O1A        68.5800   -9.4270    2.1190 O.co2     1 ATP601      0.0000 
     11 O2A        68.8760   -8.8840   -0.4220 O.co2     1 ATP601      0.0000 
     12 O3A        67.8900   -7.1710    1.2210 O.3       1 ATP601      0.0000 
     13 O5'        66.6360   -9.2870    0.5310 O.3       1 ATP601      0.0000 
     14 C5'        66.4520   -9.8900   -0.7470 C.3       1 ATP601      0.0000 
     15 C4'        66.3100  -11.4000   -0.6360 C.3       1 ATP601      0.0000 
     16 O4'        66.7850  -11.9760   -1.8510 O.3       1 ATP601      0.0000 
     17 C3'        67.1540  -11.9940    0.4820 C.3       1 ATP601      0.0000 
     18 O3'        66.3030  -12.5710    1.4750 O.3       1 ATP601      0.0000 
     19 C2'        68.0140  -13.0670   -0.1560 C.3       1 ATP601      0.0000 
     20 O2'        67.8450  -14.3080    0.5330 O.3       1 ATP601      0.0000 
     21 C1'        67.5060  -13.1760   -1.5840 C.3       1 ATP601      0.0000 
     22 N9         68.6170  -13.3320   -2.5550 N.pl3     1 ATP601      0.0000 
     23 C8         69.7500  -12.6050   -2.6000 C.2       1 ATP601      0.0000 
     24 N7         70.5510  -13.0170   -3.6170 N.2       1 ATP601      0.0000 
     25 C5         69.9260  -14.0320   -4.2420 C.ar      1 ATP601      0.0000 
     26 C6         70.2100  -14.9220   -5.3940 C.ar      1 ATP601      0.0000 
     27 N6         71.3580  -14.8080   -6.1030 N.pl3     1 ATP601      0.0000 
     28 N1         69.2860  -15.8530   -5.7140 N.ar      1 ATP601      0.0000 
     29 C2         68.1400  -15.9790   -5.0210 C.ar      1 ATP601      0.0000 
     30 N3         67.8180  -15.2080   -3.9670 N.ar      1 ATP601      0.0000 
     31 C4         68.6540  -14.2360   -3.5350 C.ar      1 ATP601      0.0000 
@<TRIPOS>BOND
     1    1    2 ar   
     2    1    3 ar   
     3    1    4 ar   
     4    1    8 1    
     5    5    6 ar   
     6    5    7 ar   
     7    5    8 1    
     8    5   12 1    
     9    9   10 ar   
    10    9   11 ar   
    11    9   12 1    
    12    9   13 1    
    13   13   14 1    
    14   14   15 1    
    15   15   16 1    
    16   15   17 1    
    17   16   21 1    
    18   17   18 1    
    19   17   19 1    
    20   19   20 1    
    21   19   21 1    
    22   21   22 1    
    23   22   23 1    
    24   22   31 1    
    25   23   24 2    
    26   24   25 1    
    27   25   26 ar   
    28   25   31 ar   
    29   26   27 1    
    30   26   28 ar   
    31   28   29 ar   
    32   29   30 ar   
    33   30   31 ar   
@<TRIPOS>SUBSTRUCTURE
     1 ATP601      1 GROUP   
@<TRIPOS>SET
ATOM$ORANGE STATIC     ATOMS   COLORGROUP SYSTEM 
20 14 14 15 15 17 17 19 19 21 21 23 23 25 25 26 26 29 \
29 31 31 

