#    Name: 6s5e_4_ATP
#    Modification time : Fri May 22 19:27:54 2020

@<TRIPOS>MOLECULE
6s5e_4_ATP
   31    33     1     0     1
SMALL
NO_CHARGES


@<TRIPOS>ATOM
      1 PG         33.1640  -67.6120  -43.9480 P.3       1 ATP601      0.0000 
      2 O1G        32.3960  -68.4080  -42.9230 O.co2     1 ATP601      0.0000 
      3 O2G        32.8130  -66.1540  -44.0620 O.co2     1 ATP601      0.0000 
      4 O3G        33.3170  -68.3100  -45.2780 O.co2     1 ATP601      0.0000 
      5 PB         35.9630  -67.9590  -44.0080 P.3       1 ATP601      0.0000 
      6 O1B        35.6570  -68.6940  -45.2880 O.co2     1 ATP601      0.0000 
      7 O2B        36.7930  -66.6970  -44.0420 O.co2     1 ATP601      0.0000 
      8 O3B        34.6110  -67.5400  -43.2620 O.3       1 ATP601      0.0000 
      9 PA         36.7130  -70.5540  -43.0880 P.3       1 ATP601      0.0000 
     10 O1A        36.1580  -71.2300  -41.8580 O.co2     1 ATP601      0.0000 
     11 O2A        38.1200  -70.8520  -43.5450 O.co2     1 ATP601      0.0000 
     12 O3A        36.5470  -68.9610  -42.8900 O.3       1 ATP601      0.0000 
     13 O5'        35.7590  -70.9440  -44.3240 O.3       1 ATP601      0.0000 
     14 C5'        36.3800  -71.4770  -45.4910 C.3       1 ATP601      0.0000 
     15 C4'        36.1100  -72.9670  -45.6390 C.3       1 ATP601      0.0000 
     16 O4'        37.0980  -73.5060  -46.5150 O.3       1 ATP601      0.0000 
     17 C3'        36.2380  -73.7130  -44.3190 C.3       1 ATP601      0.0000 
     18 O3'        34.9880  -74.3180  -43.9830 O.3       1 ATP601      0.0000 
     19 C2'        37.2920  -74.7810  -44.5310 C.3       1 ATP601      0.0000 
     20 O2'        36.7880  -76.0590  -44.1380 O.3       1 ATP601      0.0000 
     21 C1'        37.5810  -74.7530  -46.0220 C.3       1 ATP601      0.0000 
     22 N9         39.0360  -74.8710  -46.2820 N.pl3     1 ATP601      0.0000 
     23 C8         40.0140  -74.1780  -45.6700 C.2       1 ATP601      0.0000 
     24 N7         41.2340  -74.5360  -46.1470 N.2       1 ATP601      0.0000 
     25 C5         41.0410  -75.4830  -47.0850 C.ar      1 ATP601      0.0000 
     26 C6         41.8960  -76.2940  -47.9840 C.ar      1 ATP601      0.0000 
     27 N6         43.2440  -76.1620  -47.9770 N.pl3     1 ATP601      0.0000 
     28 N1         41.2850  -77.1710  -48.8120 N.ar      1 ATP601      0.0000 
     29 C2         39.9480  -77.3120  -48.8320 C.ar      1 ATP601      0.0000 
     30 N3         39.1130  -76.6120  -48.0440 N.ar      1 ATP601      0.0000 
     31 C4         39.5900  -75.7010  -47.1650 C.ar      1 ATP601      0.0000 
@<TRIPOS>BOND
     1    1    2 ar   
     2    1    3 ar   
     3    1    4 ar   
     4    1    8 1    
     5    5    6 ar   
     6    5    7 ar   
     7    5    8 1    
     8    5   12 1    
     9    9   10 ar   
    10    9   11 ar   
    11    9   12 1    
    12    9   13 1    
    13   13   14 1    
    14   14   15 1    
    15   15   16 1    
    16   15   17 1    
    17   16   21 1    
    18   17   18 1    
    19   17   19 1    
    20   19   20 1    
    21   19   21 1    
    22   21   22 1    
    23   22   23 1    
    24   22   31 1    
    25   23   24 2    
    26   24   25 1    
    27   25   26 ar   
    28   25   31 ar   
    29   26   27 1    
    30   26   28 ar   
    31   28   29 ar   
    32   29   30 ar   
    33   30   31 ar   
@<TRIPOS>SUBSTRUCTURE
     1 ATP601      1 GROUP   
@<TRIPOS>SET
ATOM$ORANGE STATIC     ATOMS   COLORGROUP SYSTEM 
20 14 14 15 15 17 17 19 19 21 21 23 23 25 25 26 26 29 \
29 31 31 

