#    Name: 6s5e_5_ATP
#    Modification time : Fri May 22 19:27:59 2020

@<TRIPOS>MOLECULE
6s5e_5_ATP
   31    33     1     0     1
SMALL
NO_CHARGES


@<TRIPOS>ATOM
      1 PG         68.6940    2.7560    3.2130 P.3       1 ATP601      0.0000 
      2 O1G        69.4200    3.0880    1.9410 O.co2     1 ATP601      0.0000 
      3 O2G        67.4010    1.9890    3.0650 O.co2     1 ATP601      0.0000 
      4 O3G        68.6440    3.8920    4.2080 O.co2     1 ATP601      0.0000 
      5 PB         69.8450    1.4220    5.3850 P.3       1 ATP601      0.0000 
      6 O1B        69.5380    2.6870    6.1510 O.co2     1 ATP601      0.0000 
      7 O2B        68.9990    0.1900    5.5830 O.co2     1 ATP601      0.0000 
      8 O3B        69.7250    1.6890    3.8130 O.3       1 ATP601      0.0000 
      9 PA         72.4810    1.8320    6.4100 P.3       1 ATP601      0.0000 
     10 O1A        73.7900    1.8900    5.6610 O.co2     1 ATP601      0.0000 
     11 O2A        72.4460    1.2900    7.8170 O.co2     1 ATP601      0.0000 
     12 O3A        71.4140    1.0510    5.4830 O.3       1 ATP601      0.0000 
     13 O5'        71.9010    3.3270    6.4990 O.3       1 ATP601      0.0000 
     14 C5'        71.7090    3.8900    7.7930 C.3       1 ATP601      0.0000 
     15 C4'        72.6280    5.0860    7.9750 C.3       1 ATP601      0.0000 
     16 O4'        72.7060    5.3900    9.3680 O.3       1 ATP601      0.0000 
     17 C3'        74.0380    4.7760    7.4980 C.3       1 ATP601      0.0000 
     18 O3'        74.4210    5.7140    6.4890 O.3       1 ATP601      0.0000 
     19 C2'        74.9350    4.9290    8.7090 C.3       1 ATP601      0.0000 
     20 O2'        76.0610    5.7500    8.3920 O.3       1 ATP601      0.0000 
     21 C1'        74.0620    5.5910    9.7620 C.3       1 ATP601      0.0000 
     22 N9         74.3060    4.9850   11.0920 N.pl3     1 ATP601      0.0000 
     23 C8         74.3720    3.6680   11.3660 C.2       1 ATP601      0.0000 
     24 N7         74.6160    3.4580   12.6860 N.2       1 ATP601      0.0000 
     25 C5         74.7130    4.6640   13.2770 C.ar      1 ATP601      0.0000 
     26 C6         74.9600    5.1680   14.6480 C.ar      1 ATP601      0.0000 
     27 N6         75.1580    4.3180   15.6840 N.pl3     1 ATP601      0.0000 
     28 N1         74.9810    6.5080   14.8310 N.ar      1 ATP601      0.0000 
     29 C2         74.7860    7.3660   13.8120 C.ar      1 ATP601      0.0000 
     30 N3         74.5580    6.9790   12.5450 N.ar      1 ATP601      0.0000 
     31 C4         74.5120    5.6660   12.2200 C.ar      1 ATP601      0.0000 
@<TRIPOS>BOND
     1    1    2 ar   
     2    1    3 ar   
     3    1    4 ar   
     4    1    8 1    
     5    5    6 ar   
     6    5    7 ar   
     7    5    8 1    
     8    5   12 1    
     9    9   10 ar   
    10    9   11 ar   
    11    9   12 1    
    12    9   13 1    
    13   13   14 1    
    14   14   15 1    
    15   15   16 1    
    16   15   17 1    
    17   16   21 1    
    18   17   18 1    
    19   17   19 1    
    20   19   20 1    
    21   19   21 1    
    22   21   22 1    
    23   22   23 1    
    24   22   31 1    
    25   23   24 2    
    26   24   25 1    
    27   25   26 ar   
    28   25   31 ar   
    29   26   27 1    
    30   26   28 ar   
    31   28   29 ar   
    32   29   30 ar   
    33   30   31 ar   
@<TRIPOS>SUBSTRUCTURE
     1 ATP601      1 GROUP   
@<TRIPOS>SET
ATOM$ORANGE STATIC     ATOMS   COLORGROUP SYSTEM 
20 14 14 15 15 17 17 19 19 21 21 23 23 25 25 26 26 29 \
29 31 31 

