#    Name: 6s5e_3_ATP
#    Modification time : Fri May 22 19:27:49 2020

@<TRIPOS>MOLECULE
6s5e_3_ATP
   31    33     1     0     1
SMALL
NO_CHARGES


@<TRIPOS>ATOM
      1 PG         35.7750  -60.5880  -39.9240 P.3       1 ATP601      0.0000 
      2 O1G        37.1000  -60.2930  -40.5710 O.co2     1 ATP601      0.0000 
      3 O2G        34.6600  -61.0270  -40.8430 O.co2     1 ATP601      0.0000 
      4 O3G        35.3660  -59.5710  -38.8860 O.co2     1 ATP601      0.0000 
      5 PB         35.6260  -62.2550  -37.6610 P.3       1 ATP601      0.0000 
      6 O1B        35.2330  -60.9840  -36.9480 O.co2     1 ATP601      0.0000 
      7 O2B        34.6020  -63.3380  -37.9020 O.co2     1 ATP601      0.0000 
      8 O3B        36.1620  -61.9280  -39.1330 O.3       1 ATP601      0.0000 
      9 PA         37.7070  -62.3060  -35.6950 P.3       1 ATP601      0.0000 
     10 O1A        39.1930  -62.3450  -35.9600 O.co2     1 ATP601      0.0000 
     11 O2A        37.1600  -62.9590  -34.4500 O.co2     1 ATP601      0.0000 
     12 O3A        36.9600  -62.8860  -37.0060 O.3       1 ATP601      0.0000 
     13 O5'        37.2750  -60.7580  -35.6070 O.3       1 ATP601      0.0000 
     14 C5'        36.6640  -60.2990  -34.4040 C.3       1 ATP601      0.0000 
     15 C4'        37.5910  -59.3530  -33.6550 C.3       1 ATP601      0.0000 
     16 O4'        37.1180  -59.2270  -32.3130 O.3       1 ATP601      0.0000 
     17 C3'        39.0120  -59.8940  -33.5840 C.3       1 ATP601      0.0000 
     18 O3'        39.9210  -58.9380  -34.1330 O.3       1 ATP601      0.0000 
     19 C2'        39.3190  -60.1000  -32.1170 C.3       1 ATP601      0.0000 
     20 O2'        40.5770  -59.5090  -31.7840 O.3       1 ATP601      0.0000 
     21 C1'        38.1890  -59.4010  -31.3850 C.3       1 ATP601      0.0000 
     22 N9         37.7520  -60.2180  -30.2290 N.pl3     1 ATP601      0.0000 
     23 C8         37.5780  -61.5530  -30.2020 C.2       1 ATP601      0.0000 
     24 N7         37.1780  -61.9650  -28.9700 N.2       1 ATP601      0.0000 
     25 C5         37.0970  -60.8730  -28.1880 C.ar      1 ATP601      0.0000 
     26 C6         36.7380  -60.5820  -26.7820 C.ar      1 ATP601      0.0000 
     27 N6         36.3720  -61.5720  -25.9320 N.pl3     1 ATP601      0.0000 
     28 N1         36.7870  -59.2930  -26.3770 N.ar      1 ATP601      0.0000 
     29 C2         37.1480  -58.2940  -27.2020 C.ar      1 ATP601      0.0000 
     30 N3         37.4860  -58.4850  -28.4870 N.ar      1 ATP601      0.0000 
     31 C4         37.4810  -59.7270  -29.0240 C.ar      1 ATP601      0.0000 
@<TRIPOS>BOND
     1    1    2 ar   
     2    1    3 ar   
     3    1    4 ar   
     4    1    8 1    
     5    5    6 ar   
     6    5    7 ar   
     7    5    8 1    
     8    5   12 1    
     9    9   10 ar   
    10    9   11 ar   
    11    9   12 1    
    12    9   13 1    
    13   13   14 1    
    14   14   15 1    
    15   15   16 1    
    16   15   17 1    
    17   16   21 1    
    18   17   18 1    
    19   17   19 1    
    20   19   20 1    
    21   19   21 1    
    22   21   22 1    
    23   22   23 1    
    24   22   31 1    
    25   23   24 2    
    26   24   25 1    
    27   25   26 ar   
    28   25   31 ar   
    29   26   27 1    
    30   26   28 ar   
    31   28   29 ar   
    32   29   30 ar   
    33   30   31 ar   
@<TRIPOS>SUBSTRUCTURE
     1 ATP601      1 GROUP   
@<TRIPOS>SET
ATOM$ORANGE STATIC     ATOMS   COLORGROUP SYSTEM 
20 14 14 15 15 17 17 19 19 21 21 23 23 25 25 26 26 29 \
29 31 31 

