#    Name: 6hgl_1_TES
#    Modification time : Fri May 22 19:37:57 2020

@<TRIPOS>MOLECULE
6hgl_1_TES
   21    24     1     0     0
SMALL
NO_CHARGES


@<TRIPOS>ATOM
      1 C1        -40.7600   16.4360   -7.6100 C.3       1 TES401      0.0000 
      2 C2        -40.8130   16.6440   -9.1260 C.3       1 TES401      0.0000 
      3 C3        -39.5750   17.3870   -9.5860 C.2       1 TES401      0.0000 
      4 O3        -39.6270   18.2550  -10.4360 O.2       1 TES401      0.0000 
      5 C4        -38.3150   16.9860   -8.9300 C.2       1 TES401      0.0000 
      6 C5        -38.2890   16.0580   -7.9870 C.2       1 TES401      0.0000 
      7 C6        -36.9890   15.5080   -7.5060 C.3       1 TES401      0.0000 
      8 C7        -36.6630   16.0560   -6.1250 C.3       1 TES401      0.0000 
      9 C8        -37.7980   15.7200   -5.1830 C.3       1 TES401      0.0000 
     10 C9        -39.1190   16.3500   -5.6910 C.3       1 TES401      0.0000 
     11 C10       -39.4540   15.7950   -7.0960 C.3       1 TES401      0.0000 
     12 C11       -40.2850   16.0640   -4.7370 C.3       1 TES401      0.0000 
     13 C12       -39.9890   16.5070   -3.3060 C.3       1 TES401      0.0000 
     14 C13       -38.7180   15.7930   -2.8430 C.3       1 TES401      0.0000 
     15 C14       -37.5590   16.2270   -3.7740 C.3       1 TES401      0.0000 
     16 C15       -36.3450   15.6920   -3.0420 C.3       1 TES401      0.0000 
     17 C16       -36.6440   16.0730   -1.5860 C.3       1 TES401      0.0000 
     18 C17       -38.1810   16.2370   -1.4610 C.3       1 TES401      0.0000 
     19 O17       -38.7210   15.4300   -0.4680 O.3       1 TES401      0.0000 
     20 C18       -38.9250   14.2670   -2.8370 C.3       1 TES401      0.0000 
     21 C19       -39.6650   14.2680   -7.0400 C.3       1 TES401      0.0000 
@<TRIPOS>BOND
     1    1    2 1    
     2    1   11 1    
     3    2    3 1    
     4    3    4 2    
     5    3    5 1    
     6    5    6 2    
     7    6    7 1    
     8    6   11 1    
     9    7    8 1    
    10    8    9 1    
    11    9   10 1    
    12    9   15 1    
    13   10   11 1    
    14   10   12 1    
    15   11   21 1    
    16   12   13 1    
    17   13   14 1    
    18   14   15 1    
    19   14   18 1    
    20   14   20 1    
    21   15   16 1    
    22   16   17 1    
    23   17   18 1    
    24   18   19 1    
@<TRIPOS>SUBSTRUCTURE
     1 TES401      1 GROUP   
@<TRIPOS>SET

