#    Name: 6e4u_4_ADP
#    Modification time : Fri May 22 19:24:49 2020

@<TRIPOS>MOLECULE
6e4u_4_ADP
   27    29     1     0     1
SMALL
NO_CHARGES


@<TRIPOS>ATOM
      1 PB         20.3490  -40.1170   14.9370 P.3       1 ADP403      0.0000 
      2 O1B        21.3480  -40.9510   14.1380 O.co2     1 ADP403      0.0000 
      3 O2B        19.0700  -40.8470   15.1730 O.co2     1 ADP403      0.0000 
      4 O3B        21.0330  -39.6720   16.2400 O.co2     1 ADP403      0.0000 
      5 PA         20.9130  -37.9780   13.0070 P.3       1 ADP403      0.0000 
      6 O1A        21.3170  -38.9660   11.9200 O.co2     1 ADP403      0.0000 
      7 O2A        22.1350  -37.4230   13.6290 O.co2     1 ADP403      0.0000 
      8 O3A        20.0720  -38.7920   14.0910 O.3       1 ADP403      0.0000 
      9 O5'        20.0320  -36.8440   12.3170 O.3       1 ADP403      0.0000 
     10 C5'        19.9390  -35.4190   12.5400 C.3       1 ADP403      0.0000 
     11 C4'        19.3840  -34.7170   11.3230 C.3       1 ADP403      0.0000 
     12 O4'        20.2320  -34.9510   10.1770 O.3       1 ADP403      0.0000 
     13 C3'        17.9550  -35.0850   10.9050 C.3       1 ADP403      0.0000 
     14 O3'        17.1330  -33.9260   10.8500 O.3       1 ADP403      0.0000 
     15 C2'        18.1330  -35.7600    9.5360 C.3       1 ADP403      0.0000 
     16 O2'        17.0410  -35.5090    8.6570 O.3       1 ADP403      0.0000 
     17 C1'        19.4230  -35.1150    9.0330 C.3       1 ADP403      0.0000 
     18 N9         20.1690  -35.8960    8.0430 N.pl3     1 ADP403      0.0000 
     19 C8         20.6350  -37.1780    8.1840 C.2       1 ADP403      0.0000 
     20 N7         21.3760  -37.5930    7.1860 N.2       1 ADP403      0.0000 
     21 C5         21.3850  -36.5150    6.3130 C.ar      1 ADP403      0.0000 
     22 C6         21.9910  -36.3170    5.0550 C.ar      1 ADP403      0.0000 
     23 N6         22.7630  -37.2240    4.4520 N.pl3     1 ADP403      0.0000 
     24 N1         21.7860  -35.1290    4.4390 N.ar      1 ADP403      0.0000 
     25 C2         21.0300  -34.2070    5.0490 C.ar      1 ADP403      0.0000 
     26 N3         20.4170  -34.2790    6.2370 N.ar      1 ADP403      0.0000 
     27 C4         20.6360  -35.4650    6.8240 C.ar      1 ADP403      0.0000 
@<TRIPOS>BOND
     1    1    2 ar   
     2    1    3 ar   
     3    1    4 ar   
     4    1    8 1    
     5    5    6 ar   
     6    5    7 ar   
     7    5    8 1    
     8    5    9 1    
     9    9   10 1    
    10   10   11 1    
    11   11   12 1    
    12   11   13 1    
    13   12   17 1    
    14   13   14 1    
    15   13   15 1    
    16   15   16 1    
    17   15   17 1    
    18   17   18 1    
    19   18   19 1    
    20   18   27 1    
    21   19   20 2    
    22   20   21 1    
    23   21   22 ar   
    24   21   27 ar   
    25   22   23 1    
    26   22   24 ar   
    27   24   25 ar   
    28   25   26 ar   
    29   26   27 ar   
@<TRIPOS>SUBSTRUCTURE
     1 ADP403      1 GROUP   
@<TRIPOS>SET
ATOM$ORANGE STATIC     ATOMS   COLORGROUP SYSTEM 
20 10 10 11 11 13 13 15 15 17 17 19 19 21 21 22 22 25 \
25 27 27 

