#    Name: 6e4u_2_AMP
#    Modification time : Fri May 22 19:24:41 2020

@<TRIPOS>MOLECULE
6e4u_2_AMP
   23    25     1     0     1
SMALL
NO_CHARGES


@<TRIPOS>ATOM
      1 P          26.3570  -37.1850   20.3430 P.3       1 AMP401      0.0000 
      2 O1P        26.8560  -38.2790   19.4480 O.co2     1 AMP401      0.0000 
      3 O2P        26.0650  -37.6940   21.7580 O.co2     1 AMP401      0.0000 
      4 O3P        25.0960  -36.4840   19.7970 O.co2     1 AMP401      0.0000 
      5 O5'        27.4470  -36.0360   20.5070 O.3       1 AMP401      0.0000 
      6 C5'        27.6730  -34.8180   19.7600 C.3       1 AMP401      0.0000 
      7 C4'        28.1320  -33.7090   20.6820 C.3       1 AMP401      0.0000 
      8 O4'        27.1490  -33.4740   21.7170 O.3       1 AMP401      0.0000 
      9 C3'        29.4710  -33.9190   21.3900 C.3       1 AMP401      0.0000 
     10 O3'        30.2680  -32.7410   21.3410 O.3       1 AMP401      0.0000 
     11 C2'        29.0540  -34.3100   22.8120 C.3       1 AMP401      0.0000 
     12 O2'        30.0310  -34.0030   23.8000 O.3       1 AMP401      0.0000 
     13 C1'        27.7760  -33.4910   22.9860 C.3       1 AMP401      0.0000 
     14 N9         26.8300  -34.0300   23.9640 N.pl3     1 AMP401      0.0000 
     15 C8         26.3270  -35.3040   24.0180 C.2       1 AMP401      0.0000 
     16 N7         25.5160  -35.5190   25.0220 N.2       1 AMP401      0.0000 
     17 C5         25.4720  -34.2950   25.6760 C.ar      1 AMP401      0.0000 
     18 C6         24.7570  -33.8450   26.8060 C.ar      1 AMP401      0.0000 
     19 N6         23.9670  -34.6300   27.5460 N.pl3     1 AMP401      0.0000 
     20 N1         24.8950  -32.5470   27.1630 N.ar      1 AMP401      0.0000 
     21 C2         25.7020  -31.7610   26.4410 C.ar      1 AMP401      0.0000 
     22 N3         26.4350  -32.0750   25.3670 N.ar      1 AMP401      0.0000 
     23 C4         26.2750  -33.3650   25.0320 C.ar      1 AMP401      0.0000 
@<TRIPOS>BOND
     1    1    2 ar   
     2    1    3 ar   
     3    1    4 ar   
     4    1    5 1    
     5    5    6 1    
     6    6    7 1    
     7    7    8 1    
     8    7    9 1    
     9    8   13 1    
    10    9   10 1    
    11    9   11 1    
    12   11   12 1    
    13   11   13 1    
    14   13   14 1    
    15   14   15 1    
    16   14   23 1    
    17   15   16 2    
    18   16   17 1    
    19   17   18 ar   
    20   17   23 ar   
    21   18   19 1    
    22   18   20 ar   
    23   20   21 ar   
    24   21   22 ar   
    25   22   23 ar   
@<TRIPOS>SUBSTRUCTURE
     1 AMP401      1 GROUP   
@<TRIPOS>SET
ATOM$ORANGE STATIC     ATOMS   COLORGROUP SYSTEM 
20 6 6 7 7 9 9 11 11 13 13 15 15 17 17 18 18 21 \
21 23 23 

