#    Name: 6e4u_3_AMP
#    Modification time : Fri May 22 19:24:45 2020

@<TRIPOS>MOLECULE
6e4u_3_AMP
   23    25     1     0     1
SMALL
NO_CHARGES


@<TRIPOS>ATOM
      1 P          22.3700  -45.5640   21.3760 P.3       1 AMP402      0.0000 
      2 O1P        22.5640  -46.1840   20.0020 O.co2     1 AMP402      0.0000 
      3 O2P        21.8790  -44.1490   21.2970 O.co2     1 AMP402      0.0000 
      4 O3P        23.6680  -45.7080   22.1710 O.co2     1 AMP402      0.0000 
      5 O5'        21.3550  -46.5330   22.0970 O.3       1 AMP402      0.0000 
      6 C5'        20.5780  -46.3480   23.2920 C.3       1 AMP402      0.0000 
      7 C4'        20.8420  -47.5020   24.2260 C.3       1 AMP402      0.0000 
      8 O4'        22.1620  -47.3720   24.7970 O.3       1 AMP402      0.0000 
      9 C3'        19.8750  -47.6270   25.4010 C.3       1 AMP402      0.0000 
     10 O3'        19.5600  -48.9880   25.6710 O.3       1 AMP402      0.0000 
     11 C2'        20.6260  -46.9290   26.5390 C.3       1 AMP402      0.0000 
     12 O2'        20.2650  -47.4210   27.8250 O.3       1 AMP402      0.0000 
     13 C1'        22.0770  -47.2820   26.2080 C.3       1 AMP402      0.0000 
     14 N9         23.0650  -46.3120   26.6820 N.pl3     1 AMP402      0.0000 
     15 C8         23.3520  -45.0810   26.1490 C.2       1 AMP402      0.0000 
     16 N7         24.3120  -44.4410   26.7700 N.2       1 AMP402      0.0000 
     17 C5         24.6820  -45.3080   27.7880 C.ar      1 AMP402      0.0000 
     18 C6         25.6520  -45.2200   28.8080 C.ar      1 AMP402      0.0000 
     19 N6         26.4900  -44.1900   28.9500 N.pl3     1 AMP402      0.0000 
     20 N1         25.7460  -46.2530   29.6770 N.ar      1 AMP402      0.0000 
     21 C2         24.9330  -47.3040   29.5200 C.ar      1 AMP402      0.0000 
     22 N3         23.9930  -47.5050   28.5900 N.ar      1 AMP402      0.0000 
     23 C4         23.9170  -46.4630   27.7480 C.ar      1 AMP402      0.0000 
@<TRIPOS>BOND
     1    1    2 ar   
     2    1    3 ar   
     3    1    4 ar   
     4    1    5 1    
     5    5    6 1    
     6    6    7 1    
     7    7    8 1    
     8    7    9 1    
     9    8   13 1    
    10    9   10 1    
    11    9   11 1    
    12   11   12 1    
    13   11   13 1    
    14   13   14 1    
    15   14   15 1    
    16   14   23 1    
    17   15   16 2    
    18   16   17 1    
    19   17   18 ar   
    20   17   23 ar   
    21   18   19 1    
    22   18   20 ar   
    23   20   21 ar   
    24   21   22 ar   
    25   22   23 ar   
@<TRIPOS>SUBSTRUCTURE
     1 AMP402      1 GROUP   
@<TRIPOS>SET
ATOM$ORANGE STATIC     ATOMS   COLORGROUP SYSTEM 
20 6 6 7 7 9 9 11 11 13 13 15 15 17 17 18 18 21 \
21 23 23 

