#    Name: 6e4u_1_STU
#    Modification time : Fri May 22 19:24:36 2020

@<TRIPOS>MOLECULE
6e4u_1_STU
   35    42     1     0     0
SMALL
NO_CHARGES


@<TRIPOS>ATOM
      1 O4         42.0790  -86.5070  -26.4410 O.3       1 STU601      0.0000 
      2 C25        42.6160  -87.5160  -25.5720 C.3       1 STU601      0.0000 
      3 C24        41.6190  -88.0820  -24.5610 C.3       1 STU601      0.0000 
      4 C23        40.2070  -87.5930  -24.8270 C.3       1 STU601      0.0000 
      5 C22        40.2140  -86.0730  -24.8540 C.3       1 STU601      0.0000 
      6 C21        41.1820  -85.5250  -25.9080 C.3       1 STU601      0.0000 
      7 C26        40.3600  -85.0450  -27.1010 C.3       1 STU601      0.0000 
      8 N2         41.9520  -84.3780  -25.3310 N.pl3     1 STU601      0.0000 
      9 C18        43.1680  -84.4940  -24.7420 C.ar      1 STU601      0.0000 
     10 C19        44.0360  -85.6890  -24.5340 C.ar      1 STU601      0.0000 
     11 C6         45.3280  -85.5310  -23.8670 C.ar      1 STU601      0.0000 
     12 C7         45.7170  -84.1670  -23.4250 C.ar      1 STU601      0.0000 
     13 C10        44.9030  -82.9700  -23.6080 C.ar      1 STU601      0.0000 
     14 C11        43.5870  -83.1530  -24.2910 C.ar      1 STU601      0.0000 
     15 C12        42.4880  -82.2640  -24.6710 C.ar      1 STU601      0.0000 
     16 C17        41.4560  -83.1020  -25.3310 C.ar      1 STU601      0.0000 
     17 C16        40.3060  -82.4740  -25.7870 C.ar      1 STU601      0.0000 
     18 C15        40.1780  -81.0960  -25.5980 C.ar      1 STU601      0.0000 
     19 C14        41.1650  -80.3280  -24.9690 C.ar      1 STU601      0.0000 
     20 C13        42.3430  -80.9000  -24.4920 C.ar      1 STU601      0.0000 
     21 C9         45.5800  -81.8040  -23.0600 C.3       1 STU601      0.0000 
     22 N1         46.8670  -82.3310  -22.5200 N.am      1 STU601      0.0000 
     23 C8         46.9240  -83.6710  -22.7390 C.2       1 STU601      0.0000 
     24 O5         47.9100  -84.4160  -22.3880 O.2       1 STU601      0.0000 
     25 C5         45.8910  -86.8710  -23.8340 C.ar      1 STU601      0.0000 
     26 C20        44.8890  -87.7490  -24.4890 C.ar      1 STU601      0.0000 
     27 C1         45.2050  -89.0970  -24.5800 C.ar      1 STU601      0.0000 
     28 C2         46.4220  -89.5480  -24.0620 C.ar      1 STU601      0.0000 
     29 C3         47.3440  -88.6920  -23.4500 C.ar      1 STU601      0.0000 
     30 C4         47.0930  -87.3290  -23.3240 C.ar      1 STU601      0.0000 
     31 N3         43.8140  -86.9830  -24.8760 N.pl3     1 STU601      0.0000 
     32 O6         40.5530  -85.5980  -23.5500 O.3       1 STU601      0.0000 
     33 C27        39.4000  -85.2250  -22.7980 C.3       1 STU601      0.0000 
     34 N4         39.2970  -88.0870  -23.8130 N.4       1 STU601      0.0000 
     35 C28        37.9650  -87.5260  -23.6930 C.3       1 STU601      0.0000 
@<TRIPOS>BOND
     1    1    2 1    
     2    1    6 1    
     3    2    3 1    
     4    2   31 1    
     5    3    4 1    
     6    4    5 1    
     7    4   34 1    
     8    5    6 1    
     9    5   32 1    
    10    6    7 1    
    11    6    8 1    
    12    8    9 1    
    13    8   16 1    
    14    9   10 ar   
    15    9   14 ar   
    16   10   11 ar   
    17   10   31 1    
    18   11   12 ar   
    19   11   25 1    
    20   12   13 ar   
    21   12   23 1    
    22   13   14 ar   
    23   13   21 1    
    24   14   15 1    
    25   15   16 ar   
    26   15   20 ar   
    27   16   17 ar   
    28   17   18 ar   
    29   18   19 ar   
    30   19   20 ar   
    31   21   22 1    
    32   22   23 am   
    33   23   24 2    
    34   25   26 ar   
    35   25   30 ar   
    36   26   27 ar   
    37   26   31 1    
    38   27   28 ar   
    39   28   29 ar   
    40   29   30 ar   
    41   32   33 1    
    42   34   35 1    
@<TRIPOS>SUBSTRUCTURE
     1 STU601      1 GROUP   
@<TRIPOS>SET

