#    Name: 6rhs_1_FMN
#    Modification time : Fri May 22 19:24:42 2020

@<TRIPOS>MOLECULE
6rhs_1_FMN
   31    33     1     0     1
SMALL
NO_CHARGES


@<TRIPOS>ATOM
      1 N1          8.8130  105.5970   39.7760 N.2       1 FMN501      0.0000 
      2 C2          8.8920  104.3290   40.2220 C.2       1 FMN501      0.0000 
      3 O2          8.9230  104.0840   41.4320 O.2       1 FMN501      0.0000 
      4 N3          8.9520  103.2710   39.4100 N.am      1 FMN501      0.0000 
      5 C4          8.9110  103.3740   38.0890 C.2       1 FMN501      0.0000 
      6 O4          8.9480  102.3730   37.3690 O.2       1 FMN501      0.0000 
      7 C4A         8.8230  104.7040   37.5000 C.2       1 FMN501      0.0000 
      8 N5          8.7900  104.8610   36.1620 N.2       1 FMN501      0.0000 
      9 C5A         8.7280  106.0950   35.6290 C.ar      1 FMN501      0.0000 
     10 C6          8.7030  106.2570   34.2370 C.ar      1 FMN501      0.0000 
     11 C7          8.6680  107.5410   33.6960 C.ar      1 FMN501      0.0000 
     12 C7M         8.6330  107.7940   32.2180 C.3       1 FMN501      0.0000 
     13 C8          8.6900  108.7090   34.6070 C.ar      1 FMN501      0.0000 
     14 C8M         8.6060  110.1020   34.0250 C.3       1 FMN501      0.0000 
     15 C9          8.7030  108.5410   35.9760 C.ar      1 FMN501      0.0000 
     16 C9A         8.7040  107.2870   36.5370 C.ar      1 FMN501      0.0000 
     17 N10         8.6950  107.1090   37.9460 N.pl3     1 FMN501      0.0000 
     18 C10         8.7550  105.8230   38.4580 C.2       1 FMN501      0.0000 
     19 C1'         8.7280  108.2360   38.8990 C.3       1 FMN501      0.0000 
     20 C2'        10.1920  108.6110   39.0900 C.3       1 FMN501      0.0000 
     21 O2'        10.8220  107.6160   39.9280 O.3       1 FMN501      0.0000 
     22 C3'        10.3930  109.9690   39.7400 C.3       1 FMN501      0.0000 
     23 O3'         9.6420  110.0280   40.9780 O.3       1 FMN501      0.0000 
     24 C4'        10.0720  111.1460   38.8290 C.3       1 FMN501      0.0000 
     25 O4'        10.3170  110.8990   37.4250 O.3       1 FMN501      0.0000 
     26 C5'        10.7910  112.4010   39.3620 C.3       1 FMN501      0.0000 
     27 O5'        10.2340  113.5790   38.7540 O.3       1 FMN501      0.0000 
     28 P          10.9920  114.2740   37.4700 P.3       1 FMN501      0.0000 
     29 O1P        10.7590  113.3730   36.2890 O.co2     1 FMN501      0.0000 
     30 O2P        12.4100  114.4540   37.9660 O.co2     1 FMN501      0.0000 
     31 O3P        10.4440  115.6600   37.3490 O.co2     1 FMN501      0.0000 
@<TRIPOS>BOND
     1    1    2 1    
     2    1   18 2    
     3    2    3 2    
     4    2    4 am   
     5    4    5 am   
     6    5    6 2    
     7    5    7 1    
     8    7    8 2    
     9    7   18 1    
    10    8    9 1    
    11    9   10 ar   
    12    9   16 ar   
    13   10   11 ar   
    14   11   12 1    
    15   11   13 ar   
    16   13   14 1    
    17   13   15 ar   
    18   15   16 ar   
    19   16   17 1    
    20   17   18 1    
    21   17   19 1    
    22   19   20 1    
    23   20   21 1    
    24   20   22 1    
    25   22   23 1    
    26   22   24 1    
    27   24   25 1    
    28   24   26 1    
    29   26   27 1    
    30   27   28 1    
    31   28   29 ar   
    32   28   30 ar   
    33   28   31 ar   
@<TRIPOS>SUBSTRUCTURE
     1 FMN501      1 GROUP   
@<TRIPOS>SET
ATOM$ORANGE STATIC     ATOMS   COLORGROUP SYSTEM 
34 2 2 5 5 7 7 9 9 10 10 11 11 12 12 13 13 14 \
14 15 15 16 16 18 18 19 19 20 20 22 22 24 24 26 26 

