#    Name: 6o70_1_ACK
#    Modification time : Fri May 22 19:36:01 2020

@<TRIPOS>MOLECULE
6o70_1_ACK
   22    25     1     0     0
SMALL
NO_CHARGES


@<TRIPOS>ATOM
      1 O3P        11.1250    7.8160    4.5060 O.co2     1 ACK501      0.0000 
      2 P          11.8760    9.0860    4.1740 P.3       1 ACK501      0.0000 
      3 O1P        12.7490    9.1900    2.9540 O.co2     1 ACK501      0.0000 
      4 O2'        12.7270    9.5040    5.4650 O.3       1 ACK501      0.0000 
      5 O3'        10.8810   10.3490    4.2470 O.3       1 ACK501      0.0000 
      6 C3'        10.9790   11.1050    5.4590 C.3       1 ACK501      0.0000 
      7 C4'        11.0250   12.6040    5.2080 C.3       1 ACK501      0.0000 
      8 O4'        12.3940   13.0230    5.3920 O.3       1 ACK501      0.0000 
      9 C5'        10.0820   13.3930    6.1110 C.3       1 ACK501      0.0000 
     10 O5'        10.3320   13.1750    7.5020 O.3       1 ACK501      0.0000 
     11 C1'        13.2300   11.8730    5.5840 C.3       1 ACK501      0.0000 
     12 N9         14.2540   12.0600    6.6310 N.pl3     1 ACK501      0.0000 
     13 C8         14.0530   12.6840    7.8020 C.2       1 ACK501      0.0000 
     14 N7         15.1760   12.6840    8.5430 N.2       1 ACK501      0.0000 
     15 C5         16.1210   12.0460    7.8390 C.ar      1 ACK501      0.0000 
     16 C6         17.5340   11.6930    8.0600 C.ar      1 ACK501      0.0000 
     17 N6         18.1390   12.0530    9.2130 N.pl3     1 ACK501      0.0000 
     18 N1         18.1810   11.0210    7.0870 N.ar      1 ACK501      0.0000 
     19 C2         17.5610   10.6670    5.9420 C.ar      1 ACK501      0.0000 
     20 N3         16.2660   10.9560    5.6810 N.ar      1 ACK501      0.0000 
     21 C4         15.5100   11.6280    6.5770 C.ar      1 ACK501      0.0000 
     22 C2'        12.3230   10.7430    6.0360 C.3       1 ACK501      0.0000 
@<TRIPOS>BOND
     1    1    2 ar   
     2    2    3 ar   
     3    2    4 1    
     4    2    5 1    
     5    4   22 1    
     6    5    6 1    
     7    6    7 1    
     8    6   22 1    
     9    7    8 1    
    10    7    9 1    
    11    8   11 1    
    12    9   10 1    
    13   11   12 1    
    14   11   22 1    
    15   12   13 1    
    16   12   21 1    
    17   13   14 2    
    18   14   15 1    
    19   15   16 ar   
    20   15   21 ar   
    21   16   17 1    
    22   16   18 ar   
    23   18   19 ar   
    24   19   20 ar   
    25   20   21 ar   
@<TRIPOS>SUBSTRUCTURE
     1 ACK501      1 GROUP   
@<TRIPOS>SET

