#    Name: 6o70_1_ACK_CAVITY_N1_6
#    Modification time : Fri May 22 19:36:02 2020

@<TRIPOS>MOLECULE
6o70_1_ACK_CAVITY_N1_6
   83     0     6     0     0
SMALL
NO_CHARGES


@<TRIPOS>ATOM
      1 OG         16.5600   10.5500    5.1900 O.3       1 SER1        0.0000 
      2 OG         12.6500   13.2300    5.3600 O.3       1 SER1        0.0000 
      3 OG         16.9100   11.8600    5.8300 O.3       1 SER1        0.0000 
      4 N          10.2300    5.5400    4.8700 N.am      2 ALA2        0.0000 
      5 N           9.1200   12.2700    5.7600 N.am      2 ALA2        0.0000 
      6 N          10.9000   13.1200    6.5600 N.am      2 ALA2        0.0000 
      7 N          10.5600   12.5500    7.9000 N.am      2 ALA2        0.0000 
      8 N          12.3200   12.6600    6.7100 N.am      2 ALA2        0.0000 
      9 N          11.9800   12.0900    8.0600 N.am      2 ALA2        0.0000 
     10 N          18.3300   11.4000    5.9900 N.am      2 ALA2        0.0000 
     11 N          19.7500   10.9400    6.1500 N.am      2 ALA2        0.0000 
     12 O          19.4200   10.3800    7.4900 O.2       2 ALA2        0.0000 
     13 O          21.1700   10.4900    6.3000 O.2       2 ALA2        0.0000 
     14 O          20.8400    9.9200    7.6500 O.2       2 ALA2        0.0000 
     15 O          13.7600   12.9500    8.8600 O.2       2 ALA2        0.0000 
     16 O          15.1800   12.4900    9.0100 O.2       2 ALA2        0.0000 
     17 O          18.3500   12.1400    7.9800 O.2       2 ALA2        0.0000 
     18 O          19.4400   11.1200    9.4800 O.2       2 ALA2        0.0000 
     19 O          19.1100   10.5500   10.8300 O.2       2 ALA2        0.0000 
     20 O          21.1900   11.2300    8.2900 O.2       2 ALA2        0.0000 
     21 O          20.8600   10.6600    9.6400 O.2       2 ALA2        0.0000 
     22 NZ         10.8800   12.3800    4.5700 N.4       3 LYS4        0.0000 
     23 NZ         12.3000   11.9200    4.7300 N.4       3 LYS4        0.0000 
     24 NZ         16.6000   12.0300    9.1700 N.4       3 LYS4        0.0000 
     25 NZ         18.0200   11.5800    9.3200 N.4       3 LYS4        0.0000 
     26 CZ         12.6800    8.2700    4.9500 C.ar      4 PHE5        0.0000 
     27 CZ         12.3500    7.7000    6.3000 C.ar      4 PHE5        0.0000 
     28 CZ         14.1000    7.8200    5.1100 C.ar      4 PHE5        0.0000 
     29 CZ         13.7000   10.7200    2.8900 C.ar      4 PHE5        0.0000 
     30 CZ         13.0300    9.5800    5.5900 C.ar      4 PHE5        0.0000 
     31 CZ         12.7000    9.0200    6.9400 C.ar      4 PHE5        0.0000 
     32 CZ         14.4500    9.1300    5.7500 C.ar      4 PHE5        0.0000 
     33 CZ         17.2900    8.2100    6.0600 C.ar      4 PHE5        0.0000 
     34 CZ         18.3800    7.1900    7.5600 C.ar      4 PHE5        0.0000 
     35 CZ         13.7200   11.4600    4.8800 C.ar      4 PHE5        0.0000 
     36 CZ         13.3800   10.8900    6.2300 C.ar      4 PHE5        0.0000 
     37 CZ         13.0500   10.3300    7.5800 C.ar      4 PHE5        0.0000 
     38 CZ         15.1400   11.0000    5.0400 C.ar      4 PHE5        0.0000 
     39 CZ         14.8000   10.4400    6.3900 C.ar      4 PHE5        0.0000 
     40 CZ         16.2200    9.9800    6.5400 C.ar      4 PHE5        0.0000 
     41 CZ         17.6400    9.5200    6.7000 C.ar      4 PHE5        0.0000 
     42 CZ         19.0600    9.0700    6.8600 C.ar      4 PHE5        0.0000 
     43 CZ         18.7300    8.5000    8.2000 C.ar      4 PHE5        0.0000 
     44 CZ         13.7400   12.2000    6.8700 C.ar      4 PHE5        0.0000 
     45 CZ         15.1600   11.7500    7.0200 C.ar      4 PHE5        0.0000 
     46 CZ         14.8200   11.1800    8.3700 C.ar      4 PHE5        0.0000 
     47 CZ         16.5800   11.2900    7.1800 C.ar      4 PHE5        0.0000 
     48 CZ         16.2500   10.7200    8.5300 C.ar      4 PHE5        0.0000 
     49 CZ         18.0000   10.8300    7.3400 C.ar      4 PHE5        0.0000 
     50 CZ         17.6700   10.2700    8.6900 C.ar      4 PHE5        0.0000 
     51 CZ         19.0900    9.8100    8.8400 C.ar      4 PHE5        0.0000 
     52 CZ         18.7500    9.2400   10.1900 C.ar      4 PHE5        0.0000 
     53 CZ         14.0900   13.5200    7.5100 C.ar      4 PHE5        0.0000 
     54 CZ         15.5100   13.0600    7.6600 C.ar      4 PHE5        0.0000 
     55 CZ         16.9300   12.6000    7.8200 C.ar      4 PHE5        0.0000 
     56 CA          9.4900    7.8800    4.0000 C.3       5 GLY6        0.0000 
     57 CA         11.2400    7.9900    2.8100 C.3       5 GLY6        0.0000 
     58 CA         10.5800    6.8500    5.5100 C.3       5 GLY6        0.0000 
     59 CA         12.0000    6.3900    5.6600 C.3       5 GLY6        0.0000 
     60 CA          9.8400    9.1900    4.6400 C.3       5 GLY6        0.0000 
     61 CA         11.5900    9.3000    3.4500 C.3       5 GLY6        0.0000 
     62 CA         11.2600    8.7300    4.8000 C.3       5 GLY6        0.0000 
     63 CA         10.9300    8.1600    6.1400 C.3       5 GLY6        0.0000 
     64 CA         10.5200   11.0700    3.9300 C.3       5 GLY6        0.0000 
     65 CA         10.1900   10.5000    5.2800 C.3       5 GLY6        0.0000 
     66 CA         12.2800   11.1800    2.7400 C.3       5 GLY6        0.0000 
     67 CA         11.9400   10.6100    4.0900 C.3       5 GLY6        0.0000 
     68 CA         11.6100   10.0400    5.4300 C.3       5 GLY6        0.0000 
     69 CA         10.5400   11.8100    5.9200 C.3       5 GLY6        0.0000 
     70 CA         10.2100   11.2400    7.2700 C.3       5 GLY6        0.0000 
     71 CA         11.9600   11.3500    6.0700 C.3       5 GLY6        0.0000 
     72 CA         11.6300   10.7800    7.4200 C.3       5 GLY6        0.0000 
     73 CA         20.1500    8.0400    8.3600 C.3       5 GLY6        0.0000 
     74 CA         13.4000   11.6400    8.2200 C.3       5 GLY6        0.0000 
     75 CA         20.5100    9.3500    9.0000 C.3       5 GLY6        0.0000 
     76 CA         22.2600    9.4600    7.8100 C.3       5 GLY6        0.0000 
     77 DU         10.9100    7.4200    4.1600 H         6 CUB7        0.0000 
     78 DU         12.3300    6.9600    4.3100 H         6 CUB7        0.0000 
     79 DU         13.0100    8.8400    3.6000 H         6 CUB7        0.0000 
     80 DU         13.3600   10.1500    4.2400 H         6 CUB7        0.0000 
     81 DU         14.7800    9.6900    4.4000 H         6 CUB7        0.0000 
     82 DU         17.9800   10.0900    5.3500 H         6 CUB7        0.0000 
     83 DU         20.4800    8.6100    7.0100 H         6 CUB7        0.0000 
@<TRIPOS>BOND
@<TRIPOS>SUBSTRUCTURE
     1 SER1        1 GROUP   
     2 ALA2        4 GROUP   
     3 LYS4       22 GROUP   
     4 PHE5       26 GROUP   
     5 GLY6       56 GROUP   
     6 CUB7       77 GROUP   
@<TRIPOS>SET

