#    Name: 5zwk_2_AMP
#    Modification time : Fri May 22 19:27:21 2020

@<TRIPOS>MOLECULE
5zwk_2_AMP
   23    25     1     0     1
SMALL
NO_CHARGES


@<TRIPOS>ATOM
      1 P          24.6630   34.0920  -26.6160 P.3       1 AMP402      0.0000 
      2 O1P        25.7020   33.4200  -27.4870 O.co2     1 AMP402      0.0000 
      3 O2P        24.9240   35.5200  -26.2420 O.co2     1 AMP402      0.0000 
      4 O3P        24.5200   33.2530  -25.3510 O.co2     1 AMP402      0.0000 
      5 O5'        23.2650   33.9830  -27.3790 O.3       1 AMP402      0.0000 
      6 C5'        23.0010   34.7500  -28.5410 C.3       1 AMP402      0.0000 
      7 C4'        21.5200   34.9710  -28.7390 C.3       1 AMP402      0.0000 
      8 O4'        20.8400   33.7030  -28.9460 O.3       1 AMP402      0.0000 
      9 C3'        20.7700   35.6040  -27.5740 C.3       1 AMP402      0.0000 
     10 O3'        20.9300   37.0030  -27.5050 O.3       1 AMP402      0.0000 
     11 C2'        19.3430   35.1590  -27.8280 C.3       1 AMP402      0.0000 
     12 O2'        18.7450   35.9240  -28.8680 O.3       1 AMP402      0.0000 
     13 C1'        19.5790   33.7250  -28.3100 C.3       1 AMP402      0.0000 
     14 N9         19.6470   32.8220  -27.1480 N.pl3     1 AMP402      0.0000 
     15 C8         20.7920   32.5120  -26.5350 C.2       1 AMP402      0.0000 
     16 N7         20.5150   31.7180  -25.5030 N.2       1 AMP402      0.0000 
     17 C5         19.1790   31.5670  -25.4600 C.ar      1 AMP402      0.0000 
     18 C6         18.3740   30.8530  -24.5920 C.ar      1 AMP402      0.0000 
     19 N6         18.7380   30.0410  -23.4520 N.pl3     1 AMP402      0.0000 
     20 N1         17.0600   30.8230  -24.7660 N.ar      1 AMP402      0.0000 
     21 C2         16.5070   31.5220  -25.7940 C.ar      1 AMP402      0.0000 
     22 N3         17.2940   32.2230  -26.6470 N.ar      1 AMP402      0.0000 
     23 C4         18.6270   32.2460  -26.4700 C.ar      1 AMP402      0.0000 
@<TRIPOS>BOND
     1    1    2 ar   
     2    1    3 ar   
     3    1    4 ar   
     4    1    5 1    
     5    5    6 1    
     6    6    7 1    
     7    7    8 1    
     8    7    9 1    
     9    8   13 1    
    10    9   10 1    
    11    9   11 1    
    12   11   12 1    
    13   11   13 1    
    14   13   14 1    
    15   14   15 1    
    16   14   23 1    
    17   15   16 2    
    18   16   17 1    
    19   17   18 ar   
    20   17   23 ar   
    21   18   19 1    
    22   18   20 ar   
    23   20   21 ar   
    24   21   22 ar   
    25   22   23 ar   
@<TRIPOS>SUBSTRUCTURE
     1 AMP402      1 GROUP   
@<TRIPOS>SET
ATOM$ORANGE STATIC     ATOMS   COLORGROUP SYSTEM 
20 6 6 7 7 9 9 11 11 13 13 15 15 17 17 18 18 21 \
21 23 23 

