#    Name: 6i6m_2_SAH_CAVITY_N1_6
#    Modification time : Fri May 22 19:29:13 2020

@<TRIPOS>MOLECULE
6i6m_2_SAH_CAVITY_N1_6
   70     0     5     0     0
SMALL
NO_CHARGES


@<TRIPOS>ATOM
      1 N          11.9700   -4.8400    0.8000 N.am      1 ALA2        0.0000 
      2 N          11.9900   -6.2400    1.3200 N.am      1 ALA2        0.0000 
      3 N          11.5600   -5.0900    4.4500 N.am      1 ALA2        0.0000 
      4 N          12.3800   -4.1100    2.7500 N.am      1 ALA2        0.0000 
      5 N          12.4000   -5.5100    3.2700 N.am      1 ALA2        0.0000 
      6 N          13.2400   -5.9400    2.1000 N.am      1 ALA2        0.0000 
      7 N          13.6400   -5.2100    4.0500 N.am      1 ALA2        0.0000 
      8 N          14.4800   -5.6300    2.8800 N.am      1 ALA2        0.0000 
      9 O          19.1400  -11.2200    0.5400 O.2       1 ALA2        0.0000 
     10 O          19.1600  -12.6300    1.0600 O.2       1 ALA2        0.0000 
     11 NZ         12.0100   -7.6500    1.8500 N.4       2 LYS4        0.0000 
     12 NZ         12.8700   -9.4800    1.2000 N.4       2 LYS4        0.0000 
     13 NZ         14.1000   -7.7600    1.4500 N.4       2 LYS4        0.0000 
     14 NZ         14.1200   -9.1700    1.9700 N.4       2 LYS4        0.0000 
     15 NZ         14.9600   -9.5900    0.8000 N.4       2 LYS4        0.0000 
     16 NZ         18.3700  -15.0200    3.2800 N.4       2 LYS4        0.0000 
     17 NZ         19.1800  -14.0400    1.5800 N.4       2 LYS4        0.0000 
     18 NZ         19.2100  -15.4400    2.1000 N.4       2 LYS4        0.0000 
     19 NZ         19.2300  -16.8500    2.6300 N.4       2 LYS4        0.0000 
     20 NZ         19.6300  -16.1200    4.5800 N.4       2 LYS4        0.0000 
     21 NZ         20.4700  -16.5400    3.4000 N.4       2 LYS4        0.0000 
     22 CZ         11.1800   -7.2300    3.0200 C.ar      3 PHE5        0.0000 
     23 CZ         12.0400   -9.0600    2.3700 C.ar      3 PHE5        0.0000 
     24 CZ         11.5800   -6.5000    4.9700 C.ar      3 PHE5        0.0000 
     25 CZ         12.4200   -6.9200    3.8000 C.ar      3 PHE5        0.0000 
     26 CZ         13.2800   -8.7500    3.1500 C.ar      3 PHE5        0.0000 
     27 CZ         14.1400  -10.5800    2.5000 C.ar      3 PHE5        0.0000 
     28 CZ         15.3800  -10.2700    3.2700 C.ar      3 PHE5        0.0000 
     29 CZ         15.4100  -11.6700    3.8000 C.ar      3 PHE5        0.0000 
     30 CZ         16.6500  -11.3700    4.5800 C.ar      3 PHE5        0.0000 
     31 CZ         16.6700  -12.7700    5.1000 C.ar      3 PHE5        0.0000 
     32 CZ         17.5100  -13.1900    3.9300 C.ar      3 PHE5        0.0000 
     33 CZ         18.7500  -12.8900    4.7000 C.ar      3 PHE5        0.0000 
     34 CZ         18.7700  -14.2900    5.2300 C.ar      3 PHE5        0.0000 
     35 CZ         19.5900  -13.3100    3.5300 C.ar      3 PHE5        0.0000 
     36 CZ         19.6100  -14.7100    4.0500 C.ar      3 PHE5        0.0000 
     37 CA         10.3200   -5.4000    3.6700 C.3       4 GLY6        0.0000 
     38 CA         11.1300   -4.4200    1.9700 C.3       4 GLY6        0.0000 
     39 CA         11.1600   -5.8200    2.5000 C.3       4 GLY6        0.0000 
     40 CA         11.5400   -3.6900    3.9200 C.3       4 GLY6        0.0000 
     41 CA         14.9800  -11.0000    1.3200 C.3       4 GLY6        0.0000 
     42 CA         14.5000   -7.0300    3.4000 C.3       4 GLY6        0.0000 
     43 CA         15.3400   -7.4500    2.2300 C.3       4 GLY6        0.0000 
     44 CA         16.2000   -9.2800    1.5800 C.3       4 GLY6        0.0000 
     45 CA         16.2200  -10.6900    2.1000 C.3       4 GLY6        0.0000 
     46 CA         16.2400  -12.1000    2.6200 C.3       4 GLY6        0.0000 
     47 CA         16.2600  -13.5000    3.1500 C.3       4 GLY6        0.0000 
     48 CA         16.2900  -14.9100    3.6700 C.3       4 GLY6        0.0000 
     49 CA         17.0400   -9.7000    0.4100 C.3       4 GLY6        0.0000 
     50 CA         17.0600  -11.1100    0.9300 C.3       4 GLY6        0.0000 
     51 CA         17.1200  -15.3300    2.5000 C.3       4 GLY6        0.0000 
     52 CA         17.1500  -16.7400    3.0200 C.3       4 GLY6        0.0000 
     53 CA         17.8800  -10.1200   -0.7600 C.3       4 GLY6        0.0000 
     54 CA         17.9000  -11.5300   -0.2400 C.3       4 GLY6        0.0000 
     55 CA         17.9800  -17.1600    1.8500 C.3       4 GLY6        0.0000 
     56 CA         16.6300   -9.9600    4.0500 C.3       4 GLY6        0.0000 
     57 CA         17.4400   -8.9700    2.3600 C.3       4 GLY6        0.0000 
     58 CA         17.4700  -10.3800    2.8800 C.3       4 GLY6        0.0000 
     59 CA         17.4900  -11.7900    3.4000 C.3       4 GLY6        0.0000 
     60 CA         18.3000  -10.8000    1.7100 C.3       4 GLY6        0.0000 
     61 CA         18.3200  -12.2100    2.2300 C.3       4 GLY6        0.0000 
     62 CA         18.3500  -13.6100    2.7500 C.3       4 GLY6        0.0000 
     63 CA         18.7300  -11.4800    4.1800 C.3       4 GLY6        0.0000 
     64 CA         19.5700  -11.9000    3.0100 C.3       4 GLY6        0.0000 
     65 DU         13.2600   -7.3400    2.6200 H         5 CUB7        0.0000 
     66 DU         15.3600   -8.8600    2.7500 H         5 CUB7        0.0000 
     67 DU         17.5300  -14.6000    4.4500 H         5 CUB7        0.0000 
     68 DU         17.5500  -16.0100    4.9700 H         5 CUB7        0.0000 
     69 DU         18.3900  -16.4300    3.8000 H         5 CUB7        0.0000 
     70 DU         19.6600  -17.5300    5.1000 H         5 CUB7        0.0000 
@<TRIPOS>BOND
@<TRIPOS>SUBSTRUCTURE
     1 ALA2        1 GROUP   
     2 LYS4       11 GROUP   
     3 PHE5       22 GROUP   
     4 GLY6       37 GROUP   
     5 CUB7       65 GROUP   
@<TRIPOS>SET

