#    Name: 6i6m_2_SAH
#    Modification time : Fri May 22 19:29:12 2020

@<TRIPOS>MOLECULE
6i6m_2_SAH
   26    28     1     0     0
SMALL
NO_CHARGES


@<TRIPOS>ATOM
      1 N          14.0560   -2.3960    0.7700 N.4       1 SAH402      0.0000 
      2 CA         12.5450   -2.5990    0.6380 C.3       1 SAH402      0.0000 
      3 CB         12.0800   -3.9240    1.3230 C.3       1 SAH402      0.0000 
      4 CG         12.2700   -3.9290    2.8610 C.3       1 SAH402      0.0000 
      5 SD         11.7150   -5.4510    3.6640 S.3       1 SAH402      0.0000 
      6 C          11.7610   -1.3990    1.2060 C.2       1 SAH402      0.0000 
      7 O          10.5100   -1.3240    0.9030 O.co2     1 SAH402      0.0000 
      8 OXT        12.3880   -0.5910    1.9190 O.co2     1 SAH402      0.0000 
      9 C5'        13.2490   -6.4490    3.6830 C.3       1 SAH402      0.0000 
     10 C4'        13.6170   -7.1120    2.3220 C.3       1 SAH402      0.0000 
     11 O4'        14.8220   -7.9050    2.5890 O.3       1 SAH402      0.0000 
     12 C3'        12.5330   -8.0920    1.7650 C.3       1 SAH402      0.0000 
     13 O3'        12.1120   -7.7950    0.4390 O.3       1 SAH402      0.0000 
     14 C2'        13.2640   -9.4600    1.8780 C.3       1 SAH402      0.0000 
     15 O2'        12.8320  -10.4810    0.9740 O.3       1 SAH402      0.0000 
     16 C1'        14.7390   -9.0420    1.7550 C.3       1 SAH402      0.0000 
     17 N9         15.7300  -10.0710    2.1860 N.pl3     1 SAH402      0.0000 
     18 C8         15.6890  -10.7850    3.3720 C.2       1 SAH402      0.0000 
     19 N7         16.7510  -11.6350    3.4350 N.2       1 SAH402      0.0000 
     20 C5         17.4280  -11.4810    2.2190 C.ar      1 SAH402      0.0000 
     21 C6         18.6180  -12.0670    1.6480 C.ar      1 SAH402      0.0000 
     22 N6         19.2730  -13.0500    2.3470 N.pl3     1 SAH402      0.0000 
     23 N1         18.9920  -11.5820    0.4360 N.ar      1 SAH402      0.0000 
     24 C2         18.2750  -10.5080   -0.1660 C.ar      1 SAH402      0.0000 
     25 N3         17.1750  -10.0660    0.2500 N.ar      1 SAH402      0.0000 
     26 C4         16.8040  -10.4840    1.4680 C.ar      1 SAH402      0.0000 
@<TRIPOS>BOND
     1    1    2 1    
     2    2    3 1    
     3    2    6 1    
     4    3    4 1    
     5    4    5 1    
     6    5    9 1    
     7    6    7 ar   
     8    6    8 ar   
     9    9   10 1    
    10   10   11 1    
    11   10   12 1    
    12   11   16 1    
    13   12   13 1    
    14   12   14 1    
    15   14   15 1    
    16   14   16 1    
    17   16   17 1    
    18   17   18 1    
    19   17   26 1    
    20   18   19 2    
    21   19   20 1    
    22   20   21 ar   
    23   20   26 ar   
    24   21   22 1    
    25   21   23 ar   
    26   23   24 ar   
    27   24   25 ar   
    28   25   26 ar   
@<TRIPOS>SUBSTRUCTURE
     1 SAH402      1 GROUP   
@<TRIPOS>SET

