#    Name: 6i6m_1_SLX
#    Modification time : Fri May 22 19:29:06 2020

@<TRIPOS>MOLECULE
6i6m_1_SLX
   24    27     1     0     0
SMALL
NO_CHARGES


@<TRIPOS>ATOM
      1 C1          6.9160   -0.3240    9.4390 C.ar      1 SLX401      0.0000 
      2 C2          5.5620   -0.4110    9.7600 C.ar      1 SLX401      0.0000 
      3 C3          4.8710    0.6140   10.3880 C.ar      1 SLX401      0.0000 
      4 C5          5.5420    1.8110   10.7750 C.ar      1 SLX401      0.0000 
      5 C8          6.9210    1.9040   10.4390 C.ar      1 SLX401      0.0000 
      6 C9          7.6110    0.8730    9.7790 C.ar      1 SLX401      0.0000 
      7 C10         9.0470    1.0830    9.3490 C.3       1 SLX401      0.0000 
      8 C11         9.3870    0.1190    8.1910 C.3       1 SLX401      0.0000 
      9 N12         9.0770   -1.2720    8.6190 N.4       1 SLX401      0.0000 
     10 C14         7.6340   -1.4730    8.7650 C.3       1 SLX401      0.0000 
     11 C16         7.4170   -2.8140    9.5230 C.3       1 SLX401      0.0000 
     12 C17         8.2920   -3.9260    8.9870 C.ar      1 SLX401      0.0000 
     13 C25         8.0660   -5.2530    9.3650 C.ar      1 SLX401      0.0000 
     14 C24         8.8860   -6.3030    8.9330 C.ar      1 SLX401      0.0000 
     15 C21        10.0290   -6.0150    8.1480 C.ar      1 SLX401      0.0000 
     16 O22        10.9060   -6.9510    7.6340 O.3       1 SLX401      0.0000 
     17 C23        10.7180   -8.3270    8.0680 C.3       1 SLX401      0.0000 
     18 C19        10.2120   -4.6660    7.6740 C.ar      1 SLX401      0.0000 
     19 O20        11.3260   -4.3480    6.8750 O.3       1 SLX401      0.0000 
     20 C18         9.3740   -3.6400    8.0930 C.ar      1 SLX401      0.0000 
     21 C13         9.6230   -2.2240    7.6510 C.3       1 SLX401      0.0000 
     22 O6          4.8150    2.7650   11.4130 O.3       1 SLX401      0.0000 
     23 C7          5.5390    3.9480   11.8330 C.3       1 SLX401      0.0000 
     24 O4          3.4970    0.5460   10.6610 O.3       1 SLX401      0.0000 
@<TRIPOS>BOND
     1    1    2 ar   
     2    1    6 ar   
     3    1   10 1    
     4    2    3 ar   
     5    3    4 ar   
     6    3   24 1    
     7    4    5 ar   
     8    4   22 1    
     9    5    6 ar   
    10    6    7 1    
    11    7    8 1    
    12    8    9 1    
    13    9   10 1    
    14    9   21 1    
    15   10   11 1    
    16   11   12 1    
    17   12   13 ar   
    18   12   20 ar   
    19   13   14 ar   
    20   14   15 ar   
    21   15   16 1    
    22   15   18 ar   
    23   16   17 1    
    24   18   19 1    
    25   18   20 ar   
    26   20   21 1    
    27   22   23 1    
@<TRIPOS>SUBSTRUCTURE
     1 SLX401      1 GROUP   
@<TRIPOS>SET

