#    Name: 6cbz_2_EST
#    Modification time : Fri May 22 19:30:30 2020

@<TRIPOS>MOLECULE
6cbz_2_EST
   20    23     1     0     0
SMALL
NO_CHARGES


@<TRIPOS>ATOM
      1 C1         13.1760    5.3550   36.6850 C.ar      1 EST602      0.0000 
      2 C2         11.8630    5.2290   37.0460 C.ar      1 EST602      0.0000 
      3 C3         10.8370    5.3350   36.1400 C.ar      1 EST602      0.0000 
      4 O3          9.5760    5.2070   36.5100 O.3       1 EST602      0.0000 
      5 C4         11.1710    5.6800   34.8640 C.ar      1 EST602      0.0000 
      6 C5         12.4460    5.8240   34.4350 C.ar      1 EST602      0.0000 
      7 C6         12.7490    6.1400   32.9970 C.3       1 EST602      0.0000 
      8 C7         14.1180    6.7260   32.8320 C.3       1 EST602      0.0000 
      9 C8         15.1510    5.8110   33.4660 C.3       1 EST602      0.0000 
     10 C9         14.9420    5.8500   34.9820 C.3       1 EST602      0.0000 
     11 C10        13.5380    5.6660   35.4110 C.ar      1 EST602      0.0000 
     12 C11        15.9320    4.8960   35.6240 C.3       1 EST602      0.0000 
     13 C12        17.3580    5.2410   35.2760 C.3       1 EST602      0.0000 
     14 C13        17.5810    5.2790   33.7850 C.3       1 EST602      0.0000 
     15 C14        16.5820    6.2210   33.1800 C.3       1 EST602      0.0000 
     16 C15        17.1110    6.3880   31.7750 C.3       1 EST602      0.0000 
     17 C16        18.6150    6.3150   31.9190 C.3       1 EST602      0.0000 
     18 C17        18.9020    5.8770   33.3480 C.3       1 EST602      0.0000 
     19 O17        20.0040    4.9980   33.4120 O.3       1 EST602      0.0000 
     20 C18        17.4960    3.9030   33.1650 C.3       1 EST602      0.0000 
@<TRIPOS>BOND
     1    1    2 ar   
     2    1   11 ar   
     3    2    3 ar   
     4    3    4 1    
     5    3    5 ar   
     6    5    6 ar   
     7    6    7 1    
     8    6   11 ar   
     9    7    8 1    
    10    8    9 1    
    11    9   10 1    
    12    9   15 1    
    13   10   11 1    
    14   10   12 1    
    15   12   13 1    
    16   13   14 1    
    17   14   15 1    
    18   14   18 1    
    19   14   20 1    
    20   15   16 1    
    21   16   17 1    
    22   17   18 1    
    23   18   19 1    
@<TRIPOS>SUBSTRUCTURE
     1 EST602      1 GROUP   
@<TRIPOS>SET

