#    Name: 6cbz_1_EST
#    Modification time : Fri May 22 19:30:26 2020

@<TRIPOS>MOLECULE
6cbz_1_EST
   20    23     1     0     0
SMALL
NO_CHARGES


@<TRIPOS>ATOM
      1 C1         24.0200   -2.4610    4.3300 C.ar      1 EST601      0.0000 
      2 C2         23.2330   -2.1680    3.2420 C.ar      1 EST601      0.0000 
      3 C3         21.8400   -2.2570    3.2900 C.ar      1 EST601      0.0000 
      4 O3         21.0670   -1.9940    2.1930 O.3       1 EST601      0.0000 
      5 C4         21.3090   -2.6450    4.5080 C.ar      1 EST601      0.0000 
      6 C5         22.0530   -2.9190    5.6200 C.ar      1 EST601      0.0000 
      7 C6         21.4210   -3.3170    6.9240 C.3       1 EST601      0.0000 
      8 C7         22.3640   -4.0200    7.8420 C.3       1 EST601      0.0000 
      9 C8         23.5980   -3.1470    8.0560 C.3       1 EST601      0.0000 
     10 C9         24.3420   -3.1370    6.7180 C.3       1 EST601      0.0000 
     11 C10        23.4990   -2.8130    5.5290 C.ar      1 EST601      0.0000 
     12 C11        25.5570   -2.2170    6.8160 C.3       1 EST601      0.0000 
     13 C12        26.5010   -2.6570    7.9230 C.3       1 EST601      0.0000 
     14 C13        25.7790   -2.7710    9.2420 C.3       1 EST601      0.0000 
     15 C14        24.5580   -3.6640    9.1140 C.3       1 EST601      0.0000 
     16 C15        24.0590   -3.8870   10.5190 C.3       1 EST601      0.0000 
     17 C16        25.3640   -3.8430   11.3120 C.3       1 EST601      0.0000 
     18 C17        26.5130   -3.4710   10.3690 C.3       1 EST601      0.0000 
     19 O17        27.4690   -2.7110   11.0940 O.3       1 EST601      0.0000 
     20 C18        25.3610   -1.4240    9.7710 C.3       1 EST601      0.0000 
@<TRIPOS>BOND
     1    1    2 ar   
     2    1   11 ar   
     3    2    3 ar   
     4    3    4 1    
     5    3    5 ar   
     6    5    6 ar   
     7    6    7 1    
     8    6   11 ar   
     9    7    8 1    
    10    8    9 1    
    11    9   10 1    
    12    9   15 1    
    13   10   11 1    
    14   10   12 1    
    15   12   13 1    
    16   13   14 1    
    17   14   15 1    
    18   14   18 1    
    19   14   20 1    
    20   15   16 1    
    21   16   17 1    
    22   17   18 1    
    23   18   19 1    
@<TRIPOS>SUBSTRUCTURE
     1 EST601      1 GROUP   
@<TRIPOS>SET

