#    Name: 5oir_1_NAD
#    Modification time : Fri May 22 19:12:43 2020

@<TRIPOS>MOLECULE
5oir_1_NAD
   44    48     1     0     1
SMALL
NO_CHARGES


@<TRIPOS>ATOM
      1 PA         47.9780   50.8740  -81.9100 P.3       1 NAD301      0.0000 
      2 O1A        47.9610   52.1840  -81.2450 O.co2     1 NAD301      0.0000 
      3 O2A        49.0490   49.9270  -81.3770 O.co2     1 NAD301      0.0000 
      4 O5B        48.0660   50.9430  -83.4850 O.3       1 NAD301      0.0000 
      5 C5B        47.5510   52.0100  -84.3100 C.3       1 NAD301      0.0000 
      6 C4B        48.7110   52.5010  -85.1370 C.3       1 NAD301      0.0000 
      7 O4B        48.3040   53.5930  -85.9960 O.3       1 NAD301      0.0000 
      8 C3B        49.9240   53.0100  -84.3290 C.3       1 NAD301      0.0000 
      9 O3B        51.1220   52.3010  -84.6150 O.3       1 NAD301      0.0000 
     10 C2B        50.0580   54.4630  -84.7770 C.3       1 NAD301      0.0000 
     11 O2B        51.3940   54.9600  -84.7510 O.3       1 NAD301      0.0000 
     12 C1B        49.4590   54.3770  -86.1740 C.3       1 NAD301      0.0000 
     13 N9A        49.1660   55.6860  -86.7510 N.pl3     1 NAD301      0.0000 
     14 C8A        48.4180   56.6990  -86.2100 C.2       1 NAD301      0.0000 
     15 N7A        48.3960   57.7930  -86.9330 N.2       1 NAD301      0.0000 
     16 C5A        49.1820   57.4770  -88.0310 C.ar      1 NAD301      0.0000 
     17 C6A        49.5750   58.2170  -89.1660 C.ar      1 NAD301      0.0000 
     18 N6A        49.2350   59.4930  -89.3820 N.pl3     1 NAD301      0.0000 
     19 N1A        50.3610   57.6000  -90.0780 N.ar      1 NAD301      0.0000 
     20 C2A        50.7300   56.3310  -89.8600 C.ar      1 NAD301      0.0000 
     21 N3A        50.4330   55.5380  -88.8260 N.ar      1 NAD301      0.0000 
     22 C4A        49.6540   56.1760  -87.9380 C.ar      1 NAD301      0.0000 
     23 O3         46.5720   50.1540  -81.7060 O.3       1 NAD301      0.0000 
     24 PN         45.9600   48.7880  -82.2700 P.3       1 NAD301      0.0000 
     25 O1N        47.0310   47.7860  -82.4570 O.co2     1 NAD301      0.0000 
     26 O2N        44.7880   48.4600  -81.4280 O.co2     1 NAD301      0.0000 
     27 O5D        45.4230   49.3030  -83.6750 O.3       1 NAD301      0.0000 
     28 C5D        45.7920   48.7240  -84.9450 C.3       1 NAD301      0.0000 
     29 C4D        44.5650   48.5730  -85.8110 C.3       1 NAD301      0.0000 
     30 O4D        43.6840   47.5580  -85.2620 O.3       1 NAD301      0.0000 
     31 C3D        43.7090   49.8330  -85.9780 C.3       1 NAD301      0.0000 
     32 O3D        43.1890   49.8450  -87.3030 O.3       1 NAD301      0.0000 
     33 C2D        42.5710   49.5950  -84.9800 C.3       1 NAD301      0.0000 
     34 O2D        41.4360   50.3960  -85.2900 O.3       1 NAD301      0.0000 
     35 C1D        42.3850   48.0910  -85.1730 C.3       1 NAD301      0.0000 
     36 N1N        41.6180   47.3230  -84.1090 N.pl3     1 NAD301      0.0000 
     37 C2N        41.8850   47.4080  -82.7910 C.ar      1 NAD301      0.0000 
     38 C3N        41.1520   46.6650  -81.8840 C.ar      1 NAD301      0.0000 
     39 C7N        41.4530   46.7420  -80.4040 C.2       1 NAD301      0.0000 
     40 O7N        40.6230   46.3320  -79.5990 O.2       1 NAD301      0.0000 
     41 N7N        42.6270   47.2580  -80.0220 N.am      1 NAD301      0.0000 
     42 C4N        40.1300   45.8360  -82.3660 C.ar      1 NAD301      0.0000 
     43 C5N        39.8770   45.7700  -83.7280 C.ar      1 NAD301      0.0000 
     44 C6N        40.6400   46.5310  -84.5950 C.ar      1 NAD301      0.0000 
@<TRIPOS>BOND
     1   19   20 ar   
     2   20   21 ar   
     3   21   22 ar   
     4   23   24 1    
     5   24   25 ar   
     6   24   26 ar   
     7   24   27 1    
     8   27   28 1    
     9   28   29 1    
    10   29   30 1    
    11   29   31 1    
    12   30   35 1    
    13   31   32 1    
    14   31   33 1    
    15   33   34 1    
    16   33   35 1    
    17   35   36 1    
    18   36   37 ar   
    19   36   44 ar   
    20   37   38 ar   
    21   38   39 1    
    22   38   42 ar   
    23   39   40 2    
    24   39   41 am   
    25   42   43 ar   
    26   43   44 ar   
    27    1    2 ar   
    28    1    3 ar   
    29    1    4 1    
    30    1   23 1    
    31    4    5 1    
    32    5    6 1    
    33    6    7 1    
    34    6    8 1    
    35    7   12 1    
    36    8    9 1    
    37    8   10 1    
    38   10   11 1    
    39   10   12 1    
    40   12   13 1    
    41   13   14 1    
    42   13   22 1    
    43   14   15 2    
    44   15   16 1    
    45   16   17 ar   
    46   16   22 ar   
    47   17   18 1    
    48   17   19 ar   
@<TRIPOS>SUBSTRUCTURE
     1 NAD301      1 GROUP   
@<TRIPOS>SET
ATOM$ORANGE STATIC     ATOMS   COLORGROUP SYSTEM 
42 5 5 6 6 8 8 10 10 12 12 14 14 16 16 17 17 20 \
20 22 22 28 28 29 29 31 31 33 33 35 35 37 37 38 38 39 \
39 42 42 43 43 44 44 

