#    Name: 6t8b_6_ADP
#    Modification time : Fri May 22 19:27:48 2020

@<TRIPOS>MOLECULE
6t8b_6_ADP
   27    29     1     0     1
SMALL
NO_CHARGES


@<TRIPOS>ATOM
      1 PB        155.0240  116.2610  129.4270 P.3       1 ADP801      0.0000 
      2 O1B       155.5940  116.1950  128.0320 O.co2     1 ADP801      0.0000 
      3 O2B       153.8190  117.1540  129.5680 O.co2     1 ADP801      0.0000 
      4 O3B       154.8820  114.9230  130.1090 O.co2     1 ADP801      0.0000 
      5 PA        157.3710  116.1820  130.9150 P.3       1 ADP801      0.0000 
      6 O1A       157.6730  115.0360  129.9830 O.co2     1 ADP801      0.0000 
      7 O2A       157.0620  115.9140  132.3670 O.co2     1 ADP801      0.0000 
      8 O3A       156.1570  117.0210  130.2800 O.3       1 ADP801      0.0000 
      9 O5'       158.6030  117.2130  130.8290 O.3       1 ADP801      0.0000 
     10 C5'       159.9330  116.7090  130.9220 C.3       1 ADP801      0.0000 
     11 C4'       160.9530  117.8000  130.6230 C.3       1 ADP801      0.0000 
     12 O4'       160.8700  118.8360  131.6030 O.3       1 ADP801      0.0000 
     13 C3'       162.3650  117.2410  130.6670 C.3       1 ADP801      0.0000 
     14 O3'       162.9650  117.3290  129.3730 O.3       1 ADP801      0.0000 
     15 C2'       163.1330  118.1030  131.6460 C.3       1 ADP801      0.0000 
     16 O2'       164.2380  118.7190  130.9820 O.3       1 ADP801      0.0000 
     17 C1'       162.1580  119.1620  132.1280 C.3       1 ADP801      0.0000 
     18 N9        162.0880  119.1170  133.6070 N.pl3     1 ADP801      0.0000 
     19 C8        161.2100  118.3850  134.3110 C.2       1 ADP801      0.0000 
     20 N7        161.3890  118.5500  135.6440 N.2       1 ADP801      0.0000 
     21 C5        162.4080  119.4090  135.8070 C.ar      1 ADP801      0.0000 
     22 C6        163.1130  120.0120  136.9580 C.ar      1 ADP801      0.0000 
     23 N6        162.7490  119.7210  138.2290 N.pl3     1 ADP801      0.0000 
     24 N1        164.1270  120.8640  136.6950 N.ar      1 ADP801      0.0000 
     25 C2        164.4940  121.1610  135.4360 C.ar      1 ADP801      0.0000 
     26 N3        163.8990  120.6480  134.3460 N.ar      1 ADP801      0.0000 
     27 C4        162.8670  119.7810  134.4620 C.ar      1 ADP801      0.0000 
@<TRIPOS>BOND
     1    1    2 ar   
     2    1    3 ar   
     3    1    4 ar   
     4    1    8 1    
     5    5    6 ar   
     6    5    7 ar   
     7    5    8 1    
     8    5    9 1    
     9    9   10 1    
    10   10   11 1    
    11   11   12 1    
    12   11   13 1    
    13   12   17 1    
    14   13   14 1    
    15   13   15 1    
    16   15   16 1    
    17   15   17 1    
    18   17   18 1    
    19   18   19 1    
    20   18   27 1    
    21   19   20 2    
    22   20   21 1    
    23   21   22 ar   
    24   21   27 ar   
    25   22   23 1    
    26   22   24 ar   
    27   24   25 ar   
    28   25   26 ar   
    29   26   27 ar   
@<TRIPOS>SUBSTRUCTURE
     1 ADP801      1 GROUP   
@<TRIPOS>SET
ATOM$ORANGE STATIC     ATOMS   COLORGROUP SYSTEM 
20 10 10 11 11 13 13 15 15 17 17 19 19 21 21 22 22 25 \
25 27 27 

