#    Name: 6t8b_2_AGS
#    Modification time : Fri May 22 19:27:17 2020

@<TRIPOS>MOLECULE
6t8b_2_AGS
   31    33     1     0     0
SMALL
NO_CHARGES


@<TRIPOS>ATOM
      1 PG        103.2410  117.4560  151.3870 P.3       1 AGS801      0.0000 
      2 S1G       104.1900  116.7300  152.9270 S.2       1 AGS801      0.0000 
      3 O2G       101.8410  116.7880  151.2770 O.3       1 AGS801      0.0000 
      4 O3G       104.0510  117.1640  150.0880 O.3       1 AGS801      0.0000 
      5 PB        101.6540  119.5530  151.9960 P.3       1 AGS801      0.0000 
      6 O1B       100.8310  119.9020  150.8190 O.co2     1 AGS801      0.0000 
      7 O2B       101.0220  118.4640  152.8640 O.co2     1 AGS801      0.0000 
      8 O3B       103.0630  118.9930  151.5570 O.3       1 AGS801      0.0000 
      9 PA        100.7150  121.0180  154.0530 P.3       1 AGS801      0.0000 
     10 O1A        99.3750  121.1090  153.4460 O.co2     1 AGS801      0.0000 
     11 O2A       100.8630  119.8620  155.0440 O.co2     1 AGS801      0.0000 
     12 O3A       101.8210  120.7940  152.9500 O.3       1 AGS801      0.0000 
     13 O5'       101.0710  122.3970  154.7250 O.3       1 AGS801      0.0000 
     14 C5'       102.1160  122.4610  155.7100 C.3       1 AGS801      0.0000 
     15 C4'       101.6260  123.2840  156.8700 C.3       1 AGS801      0.0000 
     16 O4'       101.6880  124.6830  156.5260 O.3       1 AGS801      0.0000 
     17 C3'       100.1770  123.0410  157.2670 C.3       1 AGS801      0.0000 
     18 O3'       100.0820  121.9510  158.1770 O.3       1 AGS801      0.0000 
     19 C2'        99.7950  124.3640  157.9270 C.3       1 AGS801      0.0000 
     20 O2'       100.2020  124.4070  159.2890 O.3       1 AGS801      0.0000 
     21 C1'       100.5960  125.3760  157.1020 C.3       1 AGS801      0.0000 
     22 N9         99.8350  126.0010  156.0300 N.pl3     1 AGS801      0.0000 
     23 C8         99.4920  125.4440  154.8250 C.2       1 AGS801      0.0000 
     24 N7         98.8020  126.2400  154.0460 N.2       1 AGS801      0.0000 
     25 C5         98.6830  127.4070  154.7880 C.ar      1 AGS801      0.0000 
     26 C6         98.0620  128.6400  154.5210 C.ar      1 AGS801      0.0000 
     27 N6         97.4130  128.9150  153.3870 N.pl3     1 AGS801      0.0000 
     28 N1         98.1300  129.5950  155.4750 N.ar      1 AGS801      0.0000 
     29 C2         98.7750  129.3230  156.6130 C.ar      1 AGS801      0.0000 
     30 N3         99.3990  128.1990  156.9750 N.ar      1 AGS801      0.0000 
     31 C4         99.3170  127.2710  156.0100 C.ar      1 AGS801      0.0000 
@<TRIPOS>BOND
     1    1    2 2    
     2    1    3 1    
     3    1    4 1    
     4    1    8 1    
     5    5    6 ar   
     6    5    7 ar   
     7    5    8 1    
     8    5   12 1    
     9    9   10 ar   
    10    9   11 ar   
    11    9   12 1    
    12    9   13 1    
    13   13   14 1    
    14   14   15 1    
    15   15   16 1    
    16   15   17 1    
    17   16   21 1    
    18   17   18 1    
    19   17   19 1    
    20   19   20 1    
    21   19   21 1    
    22   21   22 1    
    23   22   23 1    
    24   22   31 1    
    25   23   24 2    
    26   24   25 1    
    27   25   26 ar   
    28   25   31 ar   
    29   26   27 1    
    30   26   28 ar   
    31   28   29 ar   
    32   29   30 ar   
    33   30   31 ar   
@<TRIPOS>SUBSTRUCTURE
     1 AGS801      1 GROUP   
@<TRIPOS>SET

