#    Name: 6t8b_1_AGS
#    Modification time : Fri May 22 19:27:07 2020

@<TRIPOS>MOLECULE
6t8b_1_AGS
   31    33     1     0     0
SMALL
NO_CHARGES


@<TRIPOS>ATOM
      1 PG        136.0630  110.8870  155.0610 P.3       1 AGS801      0.0000 
      2 S1G       137.5690  110.0120  155.9340 S.2       1 AGS801      0.0000 
      3 O2G       134.7540  110.0990  155.3540 O.3       1 AGS801      0.0000 
      4 O3G       136.3090  110.9360  153.5250 O.3       1 AGS801      0.0000 
      5 PB        135.0320  112.5320  156.9100 P.3       1 AGS801      0.0000 
      6 O1B       133.8530  113.3710  156.6130 O.co2     1 AGS801      0.0000 
      7 O2B       134.6370  111.1260  157.3680 O.co2     1 AGS801      0.0000 
      8 O3B       135.9160  112.3290  155.6190 O.3       1 AGS801      0.0000 
      9 PA        135.2730  113.2490  159.5230 P.3       1 AGS801      0.0000 
     10 O1A       133.9120  113.8160  159.4650 O.co2     1 AGS801      0.0000 
     11 O2A       135.3370  111.8410  160.1180 O.co2     1 AGS801      0.0000 
     12 O3A       135.9030  113.1470  158.0770 O.3       1 AGS801      0.0000 
     13 O5'       136.2040  114.2430  160.3180 O.3       1 AGS801      0.0000 
     14 C5'       137.6340  114.1700  160.1770 C.3       1 AGS801      0.0000 
     15 C4'       138.2690  115.0050  161.2580 C.3       1 AGS801      0.0000 
     16 O4'       137.5560  116.2450  161.3920 O.3       1 AGS801      0.0000 
     17 C3'       138.2250  114.4010  162.6540 C.3       1 AGS801      0.0000 
     18 O3'       139.3100  113.5020  162.8470 O.3       1 AGS801      0.0000 
     19 C2'       138.3410  115.6340  163.5590 C.3       1 AGS801      0.0000 
     20 O2'       139.6900  115.8840  163.9340 O.3       1 AGS801      0.0000 
     21 C1'       137.8060  116.7750  162.6780 C.3       1 AGS801      0.0000 
     22 N9        136.5780  117.3850  163.1730 N.pl3     1 AGS801      0.0000 
     23 C8        135.2940  116.9940  162.9060 C.2       1 AGS801      0.0000 
     24 N7        134.3780  117.7310  163.4900 N.2       1 AGS801      0.0000 
     25 C5        135.1160  118.6710  164.1900 C.ar      1 AGS801      0.0000 
     26 C6        134.7370  119.7460  165.0200 C.ar      1 AGS801      0.0000 
     27 N6        133.4690  120.0620  165.2920 N.pl3     1 AGS801      0.0000 
     28 N1        135.7210  120.4930  165.5670 N.ar      1 AGS801      0.0000 
     29 C2        136.9910  120.1790  165.2980 C.ar      1 AGS801      0.0000 
     30 N3        137.4670  119.1920  164.5340 N.ar      1 AGS801      0.0000 
     31 C4        136.4720  118.4720  164.0070 C.ar      1 AGS801      0.0000 
@<TRIPOS>BOND
     1    1    2 2    
     2    1    3 1    
     3    1    4 1    
     4    1    8 1    
     5    5    6 ar   
     6    5    7 ar   
     7    5    8 1    
     8    5   12 1    
     9    9   10 ar   
    10    9   11 ar   
    11    9   12 1    
    12    9   13 1    
    13   13   14 1    
    14   14   15 1    
    15   15   16 1    
    16   15   17 1    
    17   16   21 1    
    18   17   18 1    
    19   17   19 1    
    20   19   20 1    
    21   19   21 1    
    22   21   22 1    
    23   22   23 1    
    24   22   31 1    
    25   23   24 2    
    26   24   25 1    
    27   25   26 ar   
    28   25   31 ar   
    29   26   27 1    
    30   26   28 ar   
    31   28   29 ar   
    32   29   30 ar   
    33   30   31 ar   
@<TRIPOS>SUBSTRUCTURE
     1 AGS801      1 GROUP   
@<TRIPOS>SET

