#    Name: 6t8b_4_ADP_CAVITY_N1_4
#    Modification time : Fri May 22 19:27:38 2020

@<TRIPOS>MOLECULE
6t8b_4_ADP_CAVITY_N1_4
   48     0     6     0     0
SMALL
NO_CHARGES


@<TRIPOS>ATOM
      1 OG        109.7500  126.8200   91.0000 O.3       1 SER1        0.0000 
      2 OG        109.9800  126.5700   93.1000 O.3       1 SER1        0.0000 
      3 OG        110.8000  125.3400   92.8600 O.3       1 SER1        0.0000 
      4 OG        110.7500  127.2900   92.0200 O.3       1 SER1        0.0000 
      5 OG        110.9800  127.0400   94.1200 O.3       1 SER1        0.0000 
      6 OG        111.8000  125.8100   93.8800 O.3       1 SER1        0.0000 
      7 OG        111.7400  127.7600   93.0400 O.3       1 SER1        0.0000 
      8 OG        112.7900  126.2700   94.9000 O.3       1 SER1        0.0000 
      9 OG        112.7400  128.2200   94.0600 O.3       1 SER1        0.0000 
     10 O         110.3900  128.0200   96.4500 O.2       2 ALA2        0.0000 
     11 O         111.2100  126.7900   96.2100 O.2       2 ALA2        0.0000 
     12 O         111.1500  128.7400   95.3800 O.2       2 ALA2        0.0000 
     13 O         111.9700  127.5100   95.1400 O.2       2 ALA2        0.0000 
     14 O         113.5600  126.9900   93.8300 O.2       2 ALA2        0.0000 
     15 O         113.5000  128.9400   92.9900 O.2       2 ALA2        0.0000 
     16 O         112.9700  127.9700   96.1600 O.2       2 ALA2        0.0000 
     17 OD1       108.7500  126.3500   89.9800 O.co2     3 ASP3        0.0000 
     18 OD1       107.4000  126.6200   93.3900 O.co2     3 ASP3        0.0000 
     19 OD1       108.2200  125.3900   93.1500 O.co2     3 ASP3        0.0000 
     20 OD1       109.2700  123.9100   95.0100 O.co2     3 ASP3        0.0000 
     21 OD1       108.4000  127.0900   94.4100 O.co2     3 ASP3        0.0000 
     22 OD1       109.2200  125.8600   94.1700 O.co2     3 ASP3        0.0000 
     23 OD1       110.0400  124.6200   93.9400 O.co2     3 ASP3        0.0000 
     24 OD1       110.8600  123.3900   93.7000 O.co2     3 ASP3        0.0000 
     25 OD1       107.8100  128.0700   96.7400 O.co2     3 ASP3        0.0000 
     26 OD1       109.4500  125.6100   96.2700 O.co2     3 ASP3        0.0000 
     27 OD1       110.2700  124.3800   96.0300 O.co2     3 ASP3        0.0000 
     28 OD1       108.5700  128.7900   95.6700 O.co2     3 ASP3        0.0000 
     29 OD1       109.3900  127.5600   95.4300 O.co2     3 ASP3        0.0000 
     30 OD1       110.2100  126.3200   95.1900 O.co2     3 ASP3        0.0000 
     31 OD1       111.0300  125.0900   94.9600 O.co2     3 ASP3        0.0000 
     32 OD1       111.2700  124.8400   97.0500 O.co2     3 ASP3        0.0000 
     33 OD1       112.0300  125.5600   95.9800 O.co2     3 ASP3        0.0000 
     34 NZ        109.0400  124.1600   92.9200 N.4       4 LYS4        0.0000 
     35 NZ        109.8100  124.8700   91.8400 N.4       4 LYS4        0.0000 
     36 CA        112.5100  128.4700   91.9700 C.3       5 GLY6        0.0000 
     37 CA        109.6200  127.3100   97.5200 C.3       5 GLY6        0.0000 
     38 CA        110.4400  126.0800   97.2900 C.3       5 GLY6        0.0000 
     39 CA        112.8500  124.3300   95.7400 C.3       5 GLY6        0.0000 
     40 CA        111.9200  129.4600   94.3000 C.3       5 GLY6        0.0000 
     41 CA        112.2000  127.2600   97.2300 C.3       5 GLY6        0.0000 
     42 CA        113.0300  126.0300   97.0000 C.3       5 GLY6        0.0000 
     43 CA        113.7900  126.7400   95.9200 C.3       5 GLY6        0.0000 
     44 DU        108.1600  127.3400   92.3200 H         6 CUB7        0.0000 
     45 DU        108.9900  126.1100   92.0800 H         6 CUB7        0.0000 
     46 DU        109.1600  127.8100   93.3400 H         6 CUB7        0.0000 
     47 DU        110.1600  128.2700   94.3600 H         6 CUB7        0.0000 
     48 DU        110.9200  128.9900   93.2800 H         6 CUB7        0.0000 
@<TRIPOS>BOND
@<TRIPOS>SUBSTRUCTURE
     1 SER1        1 GROUP   
     2 ALA2       10 GROUP   
     3 ASP3       17 GROUP   
     4 LYS4       34 GROUP   
     5 GLY6       36 GROUP   
     6 CUB7       44 GROUP   
@<TRIPOS>SET

