#    Name: 6t8b_3_AGS
#    Modification time : Fri May 22 19:27:27 2020

@<TRIPOS>MOLECULE
6t8b_3_AGS
   31    33     1     0     0
SMALL
NO_CHARGES


@<TRIPOS>ATOM
      1 PG         91.4830  121.0350  121.4290 P.3       1 AGS801      0.0000 
      2 S1G        90.2120  120.4740  122.7930 S.2       1 AGS801      0.0000 
      3 O2G        90.9290  120.6900  120.0180 O.3       1 AGS801      0.0000 
      4 O3G        92.8390  120.3030  121.6440 O.3       1 AGS801      0.0000 
      5 PB         91.2030  123.5160  120.3800 P.3       1 AGS801      0.0000 
      6 O1B        92.3490  124.0940  119.6510 O.co2     1 AGS801      0.0000 
      7 O2B        90.2820  122.6810  119.4880 O.co2     1 AGS801      0.0000 
      8 O3B        91.7060  122.5680  121.5360 O.3       1 AGS801      0.0000 
      9 PA         89.1250  125.2270  120.1160 P.3       1 AGS801      0.0000 
     10 O1A        89.4380  125.0970  118.6820 O.co2     1 AGS801      0.0000 
     11 O2A        87.8520  124.4970  120.5480 O.co2     1 AGS801      0.0000 
     12 O3A        90.2920  124.6440  120.9960 O.3       1 AGS801      0.0000 
     13 O5'        89.0430  126.7470  120.4990 O.3       1 AGS801      0.0000 
     14 C5'        87.7580  127.3310  120.7620 C.3       1 AGS801      0.0000 
     15 C4'        87.8770  128.2590  121.9410 C.3       1 AGS801      0.0000 
     16 O4'        88.7470  129.3590  121.5980 O.3       1 AGS801      0.0000 
     17 C3'        86.5670  128.8890  122.4010 C.3       1 AGS801      0.0000 
     18 O3'        86.5790  129.0980  123.8080 O.3       1 AGS801      0.0000 
     19 C2'        86.5490  130.2130  121.6410 C.3       1 AGS801      0.0000 
     20 O2'        85.8030  131.2030  122.3370 O.3       1 AGS801      0.0000 
     21 C1'        88.0320  130.5780  121.6360 C.3       1 AGS801      0.0000 
     22 N9         88.4410  131.3820  120.4930 N.pl3     1 AGS801      0.0000 
     23 C8         89.0870  130.9500  119.3670 C.2       1 AGS801      0.0000 
     24 N7         89.3310  131.8970  118.4930 N.2       1 AGS801      0.0000 
     25 C5         88.8050  133.0310  119.0890 C.ar      1 AGS801      0.0000 
     26 C6         88.7390  134.3760  118.6720 C.ar      1 AGS801      0.0000 
     27 N6         89.2270  134.8170  117.5110 N.pl3     1 AGS801      0.0000 
     28 N1         88.1460  135.2620  119.5020 N.ar      1 AGS801      0.0000 
     29 C2         87.6560  134.8240  120.6660 C.ar      1 AGS801      0.0000 
     30 N3         87.6590  133.5850  121.1630 N.ar      1 AGS801      0.0000 
     31 C4         88.2510  132.7330  120.3200 C.ar      1 AGS801      0.0000 
@<TRIPOS>BOND
     1    1    2 2    
     2    1    3 1    
     3    1    4 1    
     4    1    8 1    
     5    5    6 ar   
     6    5    7 ar   
     7    5    8 1    
     8    5   12 1    
     9    9   10 ar   
    10    9   11 ar   
    11    9   12 1    
    12    9   13 1    
    13   13   14 1    
    14   14   15 1    
    15   15   16 1    
    16   15   17 1    
    17   16   21 1    
    18   17   18 1    
    19   17   19 1    
    20   19   20 1    
    21   19   21 1    
    22   21   22 1    
    23   22   23 1    
    24   22   31 1    
    25   23   24 2    
    26   24   25 1    
    27   25   26 ar   
    28   25   31 ar   
    29   26   27 1    
    30   26   28 ar   
    31   28   29 ar   
    32   29   30 ar   
    33   30   31 ar   
@<TRIPOS>SUBSTRUCTURE
     1 AGS801      1 GROUP   
@<TRIPOS>SET

