#    Name: 6t8b_4_ADP_CAVITY_N1_12
#    Modification time : Fri May 22 19:27:38 2020

@<TRIPOS>MOLECULE
6t8b_4_ADP_CAVITY_N1_12
   90     0     6     0     0
SMALL
NO_CHARGES


@<TRIPOS>ATOM
      1 OG        109.7500  126.8200   91.0000 O.3       1 SER1        0.0000 
      2 OG        109.9800  126.5700   93.1000 O.3       1 SER1        0.0000 
      3 OG        110.8000  125.3400   92.8600 O.3       1 SER1        0.0000 
      4 OG        110.7500  127.2900   92.0200 O.3       1 SER1        0.0000 
      5 OG        110.9800  127.0400   94.1200 O.3       1 SER1        0.0000 
      6 OG        111.8000  125.8100   93.8800 O.3       1 SER1        0.0000 
      7 OG        111.7400  127.7600   93.0400 O.3       1 SER1        0.0000 
      8 OG        112.7900  126.2700   94.9000 O.3       1 SER1        0.0000 
      9 OG        112.7400  128.2200   94.0600 O.3       1 SER1        0.0000 
     10 N         105.0600  122.2900   88.8400 N.am      2 ALA2        0.0000 
     11 O         105.0000  124.2400   88.0000 O.2       2 ALA2        0.0000 
     12 O         104.9500  126.1800   87.1600 O.2       2 ALA2        0.0000 
     13 O         105.2300  123.9900   90.0900 O.2       2 ALA2        0.0000 
     14 O         105.1800  125.9400   89.2600 O.2       2 ALA2        0.0000 
     15 O         106.0000  124.7000   89.0200 O.2       2 ALA2        0.0000 
     16 O         105.9400  126.6500   88.1800 O.2       2 ALA2        0.0000 
     17 O         105.5200  121.7900   93.0200 O.2       2 ALA2        0.0000 
     18 O         106.3400  120.5600   92.7900 O.2       2 ALA2        0.0000 
     19 O         104.5900  126.9200   91.5900 O.2       2 ALA2        0.0000 
     20 O         105.4100  125.6900   91.3500 O.2       2 ALA2        0.0000 
     21 O         106.2300  124.4600   91.1100 O.2       2 ALA2        0.0000 
     22 O         106.1700  126.4000   90.2800 O.2       2 ALA2        0.0000 
     23 O         110.3900  128.0200   96.4500 O.2       2 ALA2        0.0000 
     24 O         111.2100  126.7900   96.2100 O.2       2 ALA2        0.0000 
     25 O         111.1500  128.7400   95.3800 O.2       2 ALA2        0.0000 
     26 O         111.9700  127.5100   95.1400 O.2       2 ALA2        0.0000 
     27 O         113.5600  126.9900   93.8300 O.2       2 ALA2        0.0000 
     28 O         113.5000  128.9400   92.9900 O.2       2 ALA2        0.0000 
     29 O         112.9700  127.9700   96.1600 O.2       2 ALA2        0.0000 
     30 OD1       106.8200  123.4700   88.7800 O.co2     3 ASP3        0.0000 
     31 OD1       106.7600  125.4200   87.9400 O.co2     3 ASP3        0.0000 
     32 OD1       106.7100  127.3700   87.1100 O.co2     3 ASP3        0.0000 
     33 OD1       104.6400  124.9700   92.4200 O.co2     3 ASP3        0.0000 
     34 OD1       106.9900  125.1700   90.0400 O.co2     3 ASP3        0.0000 
     35 OD1       107.7600  125.8900   88.9600 O.co2     3 ASP3        0.0000 
     36 OD1       107.7000  127.8400   88.1300 O.co2     3 ASP3        0.0000 
     37 OD1       106.4600  124.2100   93.2100 O.co2     3 ASP3        0.0000 
     38 OD1       106.4000  126.1500   92.3700 O.co2     3 ASP3        0.0000 
     39 OD1       108.7500  126.3500   89.9800 O.co2     3 ASP3        0.0000 
     40 OD1       108.2800  123.4400   93.9900 O.co2     3 ASP3        0.0000 
     41 OD1       107.4000  126.6200   93.3900 O.co2     3 ASP3        0.0000 
     42 OD1       108.2200  125.3900   93.1500 O.co2     3 ASP3        0.0000 
     43 OD1       109.2700  123.9100   95.0100 O.co2     3 ASP3        0.0000 
     44 OD1       108.4000  127.0900   94.4100 O.co2     3 ASP3        0.0000 
     45 OD1       109.2200  125.8600   94.1700 O.co2     3 ASP3        0.0000 
     46 OD1       110.0400  124.6200   93.9400 O.co2     3 ASP3        0.0000 
     47 OD1       110.8600  123.3900   93.7000 O.co2     3 ASP3        0.0000 
     48 OD1       107.8100  128.0700   96.7400 O.co2     3 ASP3        0.0000 
     49 OD1       109.4500  125.6100   96.2700 O.co2     3 ASP3        0.0000 
     50 OD1       110.2700  124.3800   96.0300 O.co2     3 ASP3        0.0000 
     51 OD1       108.5700  128.7900   95.6700 O.co2     3 ASP3        0.0000 
     52 OD1       109.3900  127.5600   95.4300 O.co2     3 ASP3        0.0000 
     53 OD1       110.2100  126.3200   95.1900 O.co2     3 ASP3        0.0000 
     54 OD1       111.0300  125.0900   94.9600 O.co2     3 ASP3        0.0000 
     55 OD1       111.2700  124.8400   97.0500 O.co2     3 ASP3        0.0000 
     56 OD1       112.0300  125.5600   95.9800 O.co2     3 ASP3        0.0000 
     57 NZ        106.8800  121.5200   89.6200 N.4       4 LYS4        0.0000 
     58 NZ        106.2900  122.5100   91.9500 N.4       4 LYS4        0.0000 
     59 NZ        107.1100  121.2700   91.7100 N.4       4 LYS4        0.0000 
     60 NZ        107.0500  123.2200   90.8800 N.4       4 LYS4        0.0000 
     61 NZ        107.8200  123.9400   89.8000 N.4       4 LYS4        0.0000 
     62 NZ        107.2800  122.9700   92.9700 N.4       4 LYS4        0.0000 
     63 NZ        107.2300  124.9200   92.1300 N.4       4 LYS4        0.0000 
     64 NZ        107.9900  125.6400   91.0600 N.4       4 LYS4        0.0000 
     65 NZ        109.1000  122.2100   93.7500 N.4       4 LYS4        0.0000 
     66 NZ        109.0400  124.1600   92.9200 N.4       4 LYS4        0.0000 
     67 NZ        109.8100  124.8700   91.8400 N.4       4 LYS4        0.0000 
     68 CA        104.4700  123.2700   91.1700 C.3       5 GLY6        0.0000 
     69 CA        105.2900  122.0400   90.9300 C.3       5 GLY6        0.0000 
     70 CA        106.1100  120.8100   90.6900 C.3       5 GLY6        0.0000 
     71 CA        106.0600  122.7600   89.8600 C.3       5 GLY6        0.0000 
     72 CA        105.4700  123.7400   92.1900 C.3       5 GLY6        0.0000 
     73 CA        106.5200  122.2600   94.0400 C.3       5 GLY6        0.0000 
     74 CA        107.3400  121.0300   93.8100 C.3       5 GLY6        0.0000 
     75 CA        107.5100  122.7300   95.0600 C.3       5 GLY6        0.0000 
     76 CA        108.3400  121.4900   94.8300 C.3       5 GLY6        0.0000 
     77 CA        112.5100  128.4700   91.9700 C.3       5 GLY6        0.0000 
     78 CA        109.6200  127.3100   97.5200 C.3       5 GLY6        0.0000 
     79 CA        110.4400  126.0800   97.2900 C.3       5 GLY6        0.0000 
     80 CA        112.8500  124.3300   95.7400 C.3       5 GLY6        0.0000 
     81 CA        111.9200  129.4600   94.3000 C.3       5 GLY6        0.0000 
     82 CA        112.2000  127.2600   97.2300 C.3       5 GLY6        0.0000 
     83 CA        113.0300  126.0300   97.0000 C.3       5 GLY6        0.0000 
     84 CA        113.7900  126.7400   95.9200 C.3       5 GLY6        0.0000 
     85 DU        107.1700  126.8700   91.3000 H         6 CUB7        0.0000 
     86 DU        108.1600  127.3400   92.3200 H         6 CUB7        0.0000 
     87 DU        108.9900  126.1100   92.0800 H         6 CUB7        0.0000 
     88 DU        109.1600  127.8100   93.3400 H         6 CUB7        0.0000 
     89 DU        110.1600  128.2700   94.3600 H         6 CUB7        0.0000 
     90 DU        110.9200  128.9900   93.2800 H         6 CUB7        0.0000 
@<TRIPOS>BOND
@<TRIPOS>SUBSTRUCTURE
     1 SER1        1 GROUP   
     2 ALA2       10 GROUP   
     3 ASP3       30 GROUP   
     4 LYS4       57 GROUP   
     5 GLY6       68 GROUP   
     6 CUB7       85 GROUP   
@<TRIPOS>SET

