#    Name: 6t8b_4_ADP
#    Modification time : Fri May 22 19:27:37 2020

@<TRIPOS>MOLECULE
6t8b_4_ADP
   27    29     1     0     1
SMALL
NO_CHARGES


@<TRIPOS>ATOM
      1 PB        112.1280  127.4210   94.4850 P.3       1 ADP801      0.0000 
      2 O1B       111.5530  126.6310   93.3330 O.co2     1 ADP801      0.0000 
      3 O2B       113.5250  126.9960   94.8670 O.co2     1 ADP801      0.0000 
      4 O3B       111.1770  127.6010   95.6440 O.co2     1 ADP801      0.0000 
      5 PA        111.3960  129.4740   92.7100 P.3       1 ADP801      0.0000 
      6 O1A       111.6220  128.6490   91.4690 O.co2     1 ADP801      0.0000 
      7 O2A       109.9960  129.6420   93.2460 O.co2     1 ADP801      0.0000 
      8 O3A       112.3190  128.9130   93.9050 O.3       1 ADP801      0.0000 
      9 O5'       111.9930  130.9400   92.4240 O.3       1 ADP801      0.0000 
     10 C5'       111.5280  131.6630   91.2880 C.3       1 ADP801      0.0000 
     11 C4'       111.5390  133.1590   91.5730 C.3       1 ADP801      0.0000 
     12 O4'       112.8740  133.6650   91.6240 O.3       1 ADP801      0.0000 
     13 C3'       110.8210  133.9330   90.4790 C.3       1 ADP801      0.0000 
     14 O3'       109.5630  134.4060   90.9620 O.3       1 ADP801      0.0000 
     15 C2'       111.7190  135.1050   90.1460 C.3       1 ADP801      0.0000 
     16 O2'       111.0230  136.3320   90.3790 O.3       1 ADP801      0.0000 
     17 C1'       112.9060  134.9880   91.0870 C.3       1 ADP801      0.0000 
     18 N9        114.1710  135.2270   90.3490 N.pl3     1 ADP801      0.0000 
     19 C8        114.9780  134.2840   89.8310 C.2       1 ADP801      0.0000 
     20 N7        116.0550  134.8440   89.2240 N.2       1 ADP801      0.0000 
     21 C5        115.9450  136.1780   89.3530 C.ar      1 ADP801      0.0000 
     22 C6        116.7360  137.3630   88.9440 C.ar      1 ADP801      0.0000 
     23 N6        117.8950  137.2310   88.2560 N.pl3     1 ADP801      0.0000 
     24 N1        116.2600  138.5820   89.2820 N.ar      1 ADP801      0.0000 
     25 C2        115.1100  138.7290   89.9650 C.ar      1 ADP801      0.0000 
     26 N3        114.3450  137.7000   90.3670 N.ar      1 ADP801      0.0000 
     27 C4        114.7020  136.4230   90.0970 C.ar      1 ADP801      0.0000 
@<TRIPOS>BOND
     1    1    2 ar   
     2    1    3 ar   
     3    1    4 ar   
     4    1    8 1    
     5    5    6 ar   
     6    5    7 ar   
     7    5    8 1    
     8    5    9 1    
     9    9   10 1    
    10   10   11 1    
    11   11   12 1    
    12   11   13 1    
    13   12   17 1    
    14   13   14 1    
    15   13   15 1    
    16   15   16 1    
    17   15   17 1    
    18   17   18 1    
    19   18   19 1    
    20   18   27 1    
    21   19   20 2    
    22   20   21 1    
    23   21   22 ar   
    24   21   27 ar   
    25   22   23 1    
    26   22   24 ar   
    27   24   25 ar   
    28   25   26 ar   
    29   26   27 ar   
@<TRIPOS>SUBSTRUCTURE
     1 ADP801      1 GROUP   
@<TRIPOS>SET
ATOM$ORANGE STATIC     ATOMS   COLORGROUP SYSTEM 
20 10 10 11 11 13 13 15 15 17 17 19 19 21 21 22 22 25 \
25 27 27 

