#    Name: 6t8b_6_ADP_CAVITY_N1_4
#    Modification time : Fri May 22 19:27:48 2020

@<TRIPOS>MOLECULE
6t8b_6_ADP_CAVITY_N1_4
   35     0     5     0     0
SMALL
NO_CHARGES


@<TRIPOS>ATOM
      1 N         155.1500  115.9600  124.4600 N.am      1 ALA2        0.0000 
      2 O         155.3900  115.7100  126.5500 O.2       1 ALA2        0.0000 
      3 N         156.1500  116.4200  125.4800 N.am      1 ALA2        0.0000 
      4 O         154.8000  116.6900  128.8800 O.2       1 ALA2        0.0000 
      5 O         156.3800  116.1800  127.5700 O.2       1 ALA2        0.0000 
      6 O         157.1500  116.8900  126.5000 O.2       1 ALA2        0.0000 
      7 O         155.7900  117.1600  129.9000 O.2       1 ALA2        0.0000 
      8 OD1       152.1000  113.0900  128.7500 O.co2     2 ASP3        0.0000 
      9 OD1       151.2200  116.2700  128.1500 O.co2     2 ASP3        0.0000 
     10 OD1       152.8600  113.8100  127.6800 O.co2     2 ASP3        0.0000 
     11 OD1       153.6300  114.5300  126.6000 O.co2     2 ASP3        0.0000 
     12 OD1       154.4500  113.2900  126.3700 O.co2     2 ASP3        0.0000 
     13 OD1       153.0400  115.5100  128.9300 O.co2     2 ASP3        0.0000 
     14 OD1       154.6200  114.9900  127.6200 O.co2     2 ASP3        0.0000 
     15 OD1       155.4400  113.7600  127.3900 O.co2     2 ASP3        0.0000 
     16 OD1       154.0300  115.9800  129.9500 O.co2     2 ASP3        0.0000 
     17 OD1       155.6200  115.4600  128.6400 O.co2     2 ASP3        0.0000 
     18 OD1       157.2000  114.9400  127.3300 O.co2     2 ASP3        0.0000 
     19 OD1       156.6100  115.9300  129.6600 O.co2     2 ASP3        0.0000 
     20 NZ        150.4500  115.5600  129.2300 N.4       3 LYS4        0.0000 
     21 NZ        151.2800  114.3300  128.9900 N.4       3 LYS4        0.0000 
     22 NZ        152.0400  115.0400  127.9100 N.4       3 LYS4        0.0000 
     23 CA        152.8000  115.7600  126.8400 C.3       4 GLY6        0.0000 
     24 CA        153.5700  116.4700  125.7700 C.3       4 GLY6        0.0000 
     25 CA        154.3300  117.1900  124.6900 C.3       4 GLY6        0.0000 
     26 CA        152.2700  114.7900  130.0100 C.3       4 GLY6        0.0000 
     27 CA        153.8000  116.2300  127.8600 C.3       4 GLY6        0.0000 
     28 CA        154.5600  116.9400  126.7900 C.3       4 GLY6        0.0000 
     29 CA        157.0300  113.2400  126.0700 C.3       4 GLY6        0.0000 
     30 CA        155.3300  117.6600  125.7100 C.3       4 GLY6        0.0000 
     31 CA        157.3800  116.6400  128.5900 C.3       4 GLY6        0.0000 
     32 DU        154.3900  115.2400  125.5300 H         5 CUB7        0.0000 
     33 DU        155.2100  114.0100  125.2900 H         5 CUB7        0.0000 
     34 DU        156.2100  114.4800  126.3100 H         5 CUB7        0.0000 
     35 DU        156.9700  115.1900  125.2400 H         5 CUB7        0.0000 
@<TRIPOS>BOND
@<TRIPOS>SUBSTRUCTURE
     1 ALA2        1 GROUP   
     2 ASP3        8 GROUP   
     3 LYS4       20 GROUP   
     4 GLY6       23 GROUP   
     5 CUB7       32 GROUP   
@<TRIPOS>SET

