#    Name: 6t8b_6_ADP_CAVITY_N1_6
#    Modification time : Fri May 22 19:27:48 2020

@<TRIPOS>MOLECULE
6t8b_6_ADP_CAVITY_N1_6
   56     0     5     0     0
SMALL
NO_CHARGES


@<TRIPOS>ATOM
      1 N         150.2200  115.8100  127.1300 N.am      1 ALA2        0.0000 
      2 N         155.1500  115.9600  124.4600 N.am      1 ALA2        0.0000 
      3 N         155.9800  114.7200  124.2200 N.am      1 ALA2        0.0000 
      4 O         155.3900  115.7100  126.5500 O.2       1 ALA2        0.0000 
      5 N         156.1500  116.4200  125.4800 N.am      1 ALA2        0.0000 
      6 O         154.8000  116.6900  128.8800 O.2       1 ALA2        0.0000 
      7 O         156.3800  116.1800  127.5700 O.2       1 ALA2        0.0000 
      8 O         157.1500  116.8900  126.5000 O.2       1 ALA2        0.0000 
      9 O         155.7900  117.1600  129.9000 O.2       1 ALA2        0.0000 
     10 OD1       151.8700  113.3400  126.6600 O.co2     2 ASP3        0.0000 
     11 OD1       152.6300  114.0600  125.5800 O.co2     2 ASP3        0.0000 
     12 OD1       153.4500  112.8300  125.3500 O.co2     2 ASP3        0.0000 
     13 OD1       154.2700  111.5900  125.1100 O.co2     2 ASP3        0.0000 
     14 OD1       152.1000  113.0900  128.7500 O.co2     2 ASP3        0.0000 
     15 OD1       151.2200  116.2700  128.1500 O.co2     2 ASP3        0.0000 
     16 OD1       152.8600  113.8100  127.6800 O.co2     2 ASP3        0.0000 
     17 OD1       153.6300  114.5300  126.6000 O.co2     2 ASP3        0.0000 
     18 OD1       154.4500  113.2900  126.3700 O.co2     2 ASP3        0.0000 
     19 OD1       155.2700  112.0600  126.1300 O.co2     2 ASP3        0.0000 
     20 OD1       153.0400  115.5100  128.9300 O.co2     2 ASP3        0.0000 
     21 OD1       154.6200  114.9900  127.6200 O.co2     2 ASP3        0.0000 
     22 OD1       155.4400  113.7600  127.3900 O.co2     2 ASP3        0.0000 
     23 OD1       154.0300  115.9800  129.9500 O.co2     2 ASP3        0.0000 
     24 OD1       155.6200  115.4600  128.6400 O.co2     2 ASP3        0.0000 
     25 OD1       157.2000  114.9400  127.3300 O.co2     2 ASP3        0.0000 
     26 OD1       156.6100  115.9300  129.6600 O.co2     2 ASP3        0.0000 
     27 NZ        151.0400  114.5700  126.8900 N.4       3 LYS4        0.0000 
     28 NZ        150.4500  115.5600  129.2300 N.4       3 LYS4        0.0000 
     29 NZ        151.2800  114.3300  128.9900 N.4       3 LYS4        0.0000 
     30 NZ        152.0400  115.0400  127.9100 N.4       3 LYS4        0.0000 
     31 CA        151.8100  115.2900  125.8200 C.3       4 GLY6        0.0000 
     32 CA        152.5700  116.0100  124.7500 C.3       4 GLY6        0.0000 
     33 CA        153.3900  114.7700  124.5100 C.3       4 GLY6        0.0000 
     34 CA        154.2200  113.5400  124.2700 C.3       4 GLY6        0.0000 
     35 CA        154.1600  115.4900  123.4400 C.3       4 GLY6        0.0000 
     36 CA        154.9800  114.2600  123.2000 C.3       4 GLY6        0.0000 
     37 CA        155.8000  113.0200  122.9600 C.3       4 GLY6        0.0000 
     38 CA        152.8000  115.7600  126.8400 C.3       4 GLY6        0.0000 
     39 CA        153.5700  116.4700  125.7700 C.3       4 GLY6        0.0000 
     40 CA        156.0300  112.7800  125.0500 C.3       4 GLY6        0.0000 
     41 CA        156.8500  111.5400  124.8200 C.3       4 GLY6        0.0000 
     42 CA        154.3300  117.1900  124.6900 C.3       4 GLY6        0.0000 
     43 CA        157.5600  114.2100  122.9100 C.3       4 GLY6        0.0000 
     44 CA        152.2700  114.7900  130.0100 C.3       4 GLY6        0.0000 
     45 CA        153.8000  116.2300  127.8600 C.3       4 GLY6        0.0000 
     46 CA        154.5600  116.9400  126.7900 C.3       4 GLY6        0.0000 
     47 CA        157.0300  113.2400  126.0700 C.3       4 GLY6        0.0000 
     48 CA        155.3300  117.6600  125.7100 C.3       4 GLY6        0.0000 
     49 CA        157.3800  116.6400  128.5900 C.3       4 GLY6        0.0000 
     50 DU        155.0400  112.3100  124.0300 H         5 CUB7        0.0000 
     51 DU        154.3900  115.2400  125.5300 H         5 CUB7        0.0000 
     52 DU        155.2100  114.0100  125.2900 H         5 CUB7        0.0000 
     53 DU        156.8000  113.4900  123.9800 H         5 CUB7        0.0000 
     54 DU        156.2100  114.4800  126.3100 H         5 CUB7        0.0000 
     55 DU        156.9700  115.1900  125.2400 H         5 CUB7        0.0000 
     56 DU        157.7900  113.9600  125.0000 H         5 CUB7        0.0000 
@<TRIPOS>BOND
@<TRIPOS>SUBSTRUCTURE
     1 ALA2        1 GROUP   
     2 ASP3       10 GROUP   
     3 LYS4       27 GROUP   
     4 GLY6       31 GROUP   
     5 CUB7       50 GROUP   
@<TRIPOS>SET

