#    Name: 6cm2_3_GTP_CAVITY_N1_4
#    Modification time : Fri May 22 19:28:15 2020

@<TRIPOS>MOLECULE
6cm2_3_GTP_CAVITY_N1_4
    2     0     2     0     0
SMALL
NO_CHARGES


@<TRIPOS>ATOM
      1 OD1        31.6600   51.2400   95.3900 O.co2     1 ASP3        0.0000 
      2 CA         30.5300   51.2200   96.3800 C.3       2 GLY6        0.0000 
@<TRIPOS>BOND
@<TRIPOS>SUBSTRUCTURE
     1 ASP3        1 GROUP   
     2 GLY6        2 GROUP   
@<TRIPOS>SET

