#    Name: 6cm2_1_GTP
#    Modification time : Fri May 22 19:27:55 2020

@<TRIPOS>MOLECULE
6cm2_1_GTP
   32    34     1     0     1
SMALL
NO_CHARGES


@<TRIPOS>ATOM
      1 PG         54.7150   60.1260  134.0470 P.3       1 GTP704      0.0000 
      2 O1G        54.6600   59.4940  132.6800 O.co2     1 GTP704      0.0000 
      3 O2G        56.0100   60.7810  134.3970 O.co2     1 GTP704      0.0000 
      4 O3G        53.3420   60.7030  134.2570 O.co2     1 GTP704      0.0000 
      5 O3B        54.7930   58.9710  135.2070 O.3       1 GTP704      0.0000 
      6 PB         55.4780   57.5000  135.1920 P.3       1 GTP704      0.0000 
      7 O1B        55.9050   57.1030  133.8000 O.co2     1 GTP704      0.0000 
      8 O2B        56.3490   57.3440  136.3830 O.co2     1 GTP704      0.0000 
      9 O3A        54.1860   56.6320  135.6550 O.3       1 GTP704      0.0000 
     10 PA         52.9190   56.4860  134.7300 P.3       1 GTP704      0.0000 
     11 O1A        53.2130   56.9170  133.3490 O.co2     1 GTP704      0.0000 
     12 O2A        51.6450   56.9380  135.3330 O.co2     1 GTP704      0.0000 
     13 O5'        52.6940   54.8860  134.6650 O.3       1 GTP704      0.0000 
     14 C5'        53.2930   53.9470  133.7530 C.3       1 GTP704      0.0000 
     15 C4'        52.2430   53.3850  132.7780 C.3       1 GTP704      0.0000 
     16 O4'        51.2390   52.6550  133.5370 O.3       1 GTP704      0.0000 
     17 C3'        51.4640   54.4330  131.9760 C.3       1 GTP704      0.0000 
     18 O3'        52.2390   54.8660  130.8520 O.3       1 GTP704      0.0000 
     19 C2'        50.1970   53.6710  131.6510 C.3       1 GTP704      0.0000 
     20 O2'        50.3900   53.0000  130.4240 O.3       1 GTP704      0.0000 
     21 C1'        50.1000   52.5400  132.6400 C.3       1 GTP704      0.0000 
     22 N9         48.9160   52.4620  133.4550 N.pl3     1 GTP704      0.0000 
     23 C8         48.1650   51.3630  133.7400 C.2       1 GTP704      0.0000 
     24 N7         47.1530   51.6510  134.6060 N.2       1 GTP704      0.0000 
     25 C5         47.2950   52.9470  134.8800 C.2       1 GTP704      0.0000 
     26 C6         46.6010   53.8690  135.7640 C.2       1 GTP704      0.0000 
     27 O6         45.6100   53.4900  136.4300 O.2       1 GTP704      0.0000 
     28 N1         47.0840   55.1230  135.7560 N.am      1 GTP704      0.0000 
     29 C2         48.1670   55.5350  135.0170 C.2       1 GTP704      0.0000 
     30 N2         48.6000   56.7940  135.0840 N.pl3     1 GTP704      0.0000 
     31 N3         48.8850   54.7210  134.2330 N.2       1 GTP704      0.0000 
     32 C4         48.4650   53.4660  134.1470 C.2       1 GTP704      0.0000 
@<TRIPOS>BOND
     1    1    2 ar   
     2    1    3 ar   
     3    1    4 ar   
     4    1    5 1    
     5    5    6 1    
     6    6    7 ar   
     7    6    8 ar   
     8    6    9 1    
     9    9   10 1    
    10   10   11 ar   
    11   10   12 ar   
    12   10   13 1    
    13   13   14 1    
    14   14   15 1    
    15   15   16 1    
    16   15   17 1    
    17   16   21 1    
    18   17   18 1    
    19   17   19 1    
    20   19   20 1    
    21   19   21 1    
    22   21   22 1    
    23   22   23 1    
    24   22   32 1    
    25   23   24 2    
    26   24   25 1    
    27   25   26 1    
    28   25   32 2    
    29   26   27 2    
    30   26   28 am   
    31   28   29 1    
    32   29   30 1    
    33   29   31 2    
    34   31   32 1    
@<TRIPOS>SUBSTRUCTURE
     1 GTP704      1 GROUP   
@<TRIPOS>SET
ATOM$ORANGE STATIC     ATOMS   COLORGROUP SYSTEM 
20 14 14 15 15 17 17 19 19 21 21 23 23 25 25 26 26 29 \
29 32 32 

