#    Name: 6cm2_1_GTP_CAVITY_N1_4
#    Modification time : Fri May 22 19:27:57 2020

@<TRIPOS>MOLECULE
6cm2_1_GTP_CAVITY_N1_4
   59     0     4     0     0
SMALL
NO_CHARGES


@<TRIPOS>ATOM
      1 N          52.4900   60.7400  137.6900 N.am      1 ALA2        0.0000 
      2 N          52.9500   59.4100  138.1900 N.am      1 ALA2        0.0000 
      3 O          58.1300   57.4700  137.2400 O.2       1 ALA2        0.0000 
      4 N          57.0000   57.4500  138.2200 N.am      1 ALA2        0.0000 
      5 O          58.5900   56.1400  137.7400 O.2       1 ALA2        0.0000 
      6 N          57.4600   56.1100  138.7200 N.am      1 ALA2        0.0000 
      7 O          59.6700   59.5100  136.7700 O.2       1 ALA2        0.0000 
      8 OD1        53.4600   58.0900  134.1900 O.co2     2 ASP3        0.0000 
      9 OD1        52.3300   58.0700  135.1700 O.co2     2 ASP3        0.0000 
     10 OD1        53.9200   56.7500  134.6800 O.co2     2 ASP3        0.0000 
     11 OD1        52.7900   56.7300  135.6700 O.co2     2 ASP3        0.0000 
     12 OD1        52.7500   60.0900  135.6900 O.co2     2 ASP3        0.0000 
     13 OD1        55.4700   58.7900  134.2100 O.co2     2 ASP3        0.0000 
     14 OD1        54.3400   58.7700  135.2000 O.co2     2 ASP3        0.0000 
     15 OD1        57.0600   57.4700  133.7200 O.co2     2 ASP3        0.0000 
     16 OD1        55.9300   57.4500  134.7100 O.co2     2 ASP3        0.0000 
     17 OD1        54.8000   57.4300  135.7000 O.co2     2 ASP3        0.0000 
     18 OD1        53.6200   60.7600  136.7000 O.co2     2 ASP3        0.0000 
     19 OD1        56.3400   59.4700  135.2300 O.co2     2 ASP3        0.0000 
     20 OD1        54.0800   59.4300  137.2000 O.co2     2 ASP3        0.0000 
     21 OD1        59.0600   58.1700  133.7500 O.co2     2 ASP3        0.0000 
     22 OD1        57.9300   58.1500  134.7400 O.co2     2 ASP3        0.0000 
     23 OD1        56.8000   58.1300  135.7200 O.co2     2 ASP3        0.0000 
     24 OD1        55.6700   58.1100  136.7100 O.co2     2 ASP3        0.0000 
     25 OD1        54.5400   58.0900  137.7000 O.co2     2 ASP3        0.0000 
     26 OD1        58.5500   62.8600  133.2700 O.co2     2 ASP3        0.0000 
     27 OD1        59.0100   61.5300  133.7700 O.co2     2 ASP3        0.0000 
     28 OD1        57.8800   61.5000  134.7500 O.co2     2 ASP3        0.0000 
     29 OD1        59.4700   60.1900  134.2700 O.co2     2 ASP3        0.0000 
     30 OD1        58.3400   60.1700  135.2500 O.co2     2 ASP3        0.0000 
     31 OD1        57.6700   58.8100  136.7400 O.co2     2 ASP3        0.0000 
     32 OD1        55.4100   58.7700  138.7100 O.co2     2 ASP3        0.0000 
     33 CA         50.7400   59.3900  135.6600 C.3       3 GLY6        0.0000 
     34 CA         55.5100   55.4400  134.2000 C.3       3 GLY6        0.0000 
     35 CA         54.3800   55.4200  135.1800 C.3       3 GLY6        0.0000 
     36 CA         51.6200   60.0700  136.6700 C.3       3 GLY6        0.0000 
     37 CA         52.0800   58.7300  137.1700 C.3       3 GLY6        0.0000 
     38 CA         53.6700   57.4100  136.6800 C.3       3 GLY6        0.0000 
     39 CA         52.5400   57.3900  137.6700 C.3       3 GLY6        0.0000 
     40 CA         57.5200   56.1300  134.2200 C.3       3 GLY6        0.0000 
     41 CA         56.3900   56.1100  135.2100 C.3       3 GLY6        0.0000 
     42 CA         55.2600   56.0900  136.2000 C.3       3 GLY6        0.0000 
     43 CA         54.1300   56.0700  137.1800 C.3       3 GLY6        0.0000 
     44 CA         53.4100   58.0700  138.6800 C.3       3 GLY6        0.0000 
     45 CA         59.5200   56.8300  134.2500 C.3       3 GLY6        0.0000 
     46 CA         58.3900   56.8100  135.2400 C.3       3 GLY6        0.0000 
     47 CA         57.2600   56.7900  136.2200 C.3       3 GLY6        0.0000 
     48 CA         56.1300   56.7700  137.2100 C.3       3 GLY6        0.0000 
     49 CA         55.0000   56.7500  138.2000 C.3       3 GLY6        0.0000 
     50 CA         58.8500   55.4800  135.7400 C.3       3 GLY6        0.0000 
     51 CA         56.5900   55.4400  137.7100 C.3       3 GLY6        0.0000 
     52 CA         58.8000   58.8300  135.7500 C.3       3 GLY6        0.0000 
     53 CA         59.2600   57.4900  136.2500 C.3       3 GLY6        0.0000 
     54 CA         55.8700   57.4300  139.2100 C.3       3 GLY6        0.0000 
     55 CA         58.2900   63.5200  135.2700 C.3       3 GLY6        0.0000 
     56 CA         58.7500   62.1800  135.7700 C.3       3 GLY6        0.0000 
     57 CA         59.2100   60.8500  136.2700 C.3       3 GLY6        0.0000 
     58 DU         51.1600   61.4000  136.1700 H         4 CUB7        0.0000 
     59 DU         53.2100   58.7500  136.1900 H         4 CUB7        0.0000 
@<TRIPOS>BOND
@<TRIPOS>SUBSTRUCTURE
     1 ALA2        1 GROUP   
     2 ASP3        8 GROUP   
     3 GLY6       33 GROUP   
     4 CUB7       58 GROUP   
@<TRIPOS>SET

