#    Name: 6cm2_3_GTP
#    Modification time : Fri May 22 19:28:14 2020

@<TRIPOS>MOLECULE
6cm2_3_GTP
   32    34     1     0     1
SMALL
NO_CHARGES


@<TRIPOS>ATOM
      1 PG         31.8620   48.2300   93.1010 P.3       1 GTP705      0.0000 
      2 O1G        33.0130   48.9100   92.4420 O.co2     1 GTP705      0.0000 
      3 O2G        30.5240   48.7750   92.7160 O.co2     1 GTP705      0.0000 
      4 O3G        31.9810   48.1560   94.6060 O.co2     1 GTP705      0.0000 
      5 O3B        31.8580   46.7740   92.4390 O.3       1 GTP705      0.0000 
      6 PB         31.5730   45.3850   93.1860 P.3       1 GTP705      0.0000 
      7 O1B        30.8070   44.4630   92.3250 O.co2     1 GTP705      0.0000 
      8 O2B        31.1150   45.7010   94.6130 O.co2     1 GTP705      0.0000 
      9 O3A        32.9850   44.6170   93.1110 O.3       1 GTP705      0.0000 
     10 PA         34.2160   45.0560   94.0820 P.3       1 GTP705      0.0000 
     11 O1A        35.4410   45.2340   93.2480 O.co2     1 GTP705      0.0000 
     12 O2A        33.8450   46.0900   95.1060 O.co2     1 GTP705      0.0000 
     13 O5'        34.5760   43.6450   94.7550 O.3       1 GTP705      0.0000 
     14 C5'        34.1070   43.2630   96.0500 C.3       1 GTP705      0.0000 
     15 C4'        35.1680   43.3100   97.1890 C.3       1 GTP705      0.0000 
     16 O4'        36.3110   42.4710   96.9000 O.3       1 GTP705      0.0000 
     17 C3'        35.7700   44.6600   97.4170 C.3       1 GTP705      0.0000 
     18 O3'        34.8580   45.4510   98.2130 O.3       1 GTP705      0.0000 
     19 C2'        37.0980   44.3330   98.0770 C.3       1 GTP705      0.0000 
     20 O2'        37.0580   44.3260   99.5200 O.3       1 GTP705      0.0000 
     21 C1'        37.4170   42.9100   97.6840 C.3       1 GTP705      0.0000 
     22 N9         38.5970   42.6600   96.8830 N.pl3     1 GTP705      0.0000 
     23 C8         39.4570   41.6580   97.0760 C.2       1 GTP705      0.0000 
     24 N7         40.4450   41.6500   96.1300 N.2       1 GTP705      0.0000 
     25 C5         40.1810   42.6560   95.3200 C.2       1 GTP705      0.0000 
     26 C6         40.8200   43.1990   94.1260 C.2       1 GTP705      0.0000 
     27 O6         41.8070   42.6650   93.6180 O.2       1 GTP705      0.0000 
     28 N1         40.2420   44.2590   93.5780 N.am      1 GTP705      0.0000 
     29 C2         39.0910   44.8020   94.0650 C.2       1 GTP705      0.0000 
     30 N2         38.5670   45.8270   93.4280 N.pl3     1 GTP705      0.0000 
     31 N3         38.4520   44.3740   95.1800 N.2       1 GTP705      0.0000 
     32 C4         38.9500   43.3050   95.8130 C.2       1 GTP705      0.0000 
@<TRIPOS>BOND
     1    1    2 ar   
     2    1    3 ar   
     3    1    4 ar   
     4    1    5 1    
     5    5    6 1    
     6    6    7 ar   
     7    6    8 ar   
     8    6    9 1    
     9    9   10 1    
    10   10   11 ar   
    11   10   12 ar   
    12   10   13 1    
    13   13   14 1    
    14   14   15 1    
    15   15   16 1    
    16   15   17 1    
    17   16   21 1    
    18   17   18 1    
    19   17   19 1    
    20   19   20 1    
    21   19   21 1    
    22   21   22 1    
    23   22   23 1    
    24   22   32 1    
    25   23   24 2    
    26   24   25 1    
    27   25   26 1    
    28   25   32 2    
    29   26   27 2    
    30   26   28 am   
    31   28   29 1    
    32   29   30 1    
    33   29   31 2    
    34   31   32 1    
@<TRIPOS>SUBSTRUCTURE
     1 GTP705      1 GROUP   
@<TRIPOS>SET
ATOM$ORANGE STATIC     ATOMS   COLORGROUP SYSTEM 
20 14 14 15 15 17 17 19 19 21 21 23 23 25 25 26 26 29 \
29 32 32 

