#    Name: 6cm2_4_GTP_CAVITY_N1_6
#    Modification time : Fri May 22 19:28:35 2020

@<TRIPOS>MOLECULE
6cm2_4_GTP_CAVITY_N1_6
   70     0     6     0     0
SMALL
NO_CHARGES


@<TRIPOS>ATOM
      1 N          34.0200   23.5900  136.3000 N.am      1 ALA2        0.0000 
      2 N          34.4800   22.2500  136.8000 N.am      1 ALA2        0.0000 
      3 N          34.4400   25.6000  136.8200 N.am      1 ALA2        0.0000 
      4 N          30.6300   20.1500  143.7500 N.am      1 ALA2        0.0000 
      5 N          31.0900   18.8200  144.2500 N.am      1 ALA2        0.0000 
      6 N          29.9600   18.8000  145.2300 N.am      1 ALA2        0.0000 
      7 N          36.4400   26.3000  136.8400 N.am      1 ALA2        0.0000 
      8 N          31.9600   19.4900  145.2600 N.am      1 ALA2        0.0000 
      9 N          36.1800   26.9600  138.8400 N.am      1 ALA2        0.0000 
     10 N          36.6400   25.6200  139.3400 N.am      1 ALA2        0.0000 
     11 OD1        29.0900   21.4900  139.7400 O.co2     2 ASP3        0.0000 
     12 OD1        29.5500   20.1500  140.2300 O.co2     2 ASP3        0.0000 
     13 OD1        28.4200   20.1300  141.2200 O.co2     2 ASP3        0.0000 
     14 OD1        30.0100   18.8200  140.7300 O.co2     2 ASP3        0.0000 
     15 OD1        28.8800   18.8000  141.7200 O.co2     2 ASP3        0.0000 
     16 OD1        32.8900   23.5700  137.2900 O.co2     2 ASP3        0.0000 
     17 OD1        31.7600   23.5500  138.2800 O.co2     2 ASP3        0.0000 
     18 OD1        32.2200   22.2100  138.7800 O.co2     2 ASP3        0.0000 
     19 OD1        31.0900   22.1900  139.7600 O.co2     2 ASP3        0.0000 
     20 OD1        29.9700   22.1700  140.7500 O.co2     2 ASP3        0.0000 
     21 OD1        31.5600   20.8500  140.2600 O.co2     2 ASP3        0.0000 
     22 OD1        30.4300   20.8300  141.2500 O.co2     2 ASP3        0.0000 
     23 OD1        30.8900   19.4900  141.7500 O.co2     2 ASP3        0.0000 
     24 OD1        29.7600   19.4700  142.7300 O.co2     2 ASP3        0.0000 
     25 OD1        33.3100   25.5800  137.8000 O.co2     2 ASP3        0.0000 
     26 OD1        34.9000   24.2700  137.3200 O.co2     2 ASP3        0.0000 
     27 OD1        33.7700   24.2500  138.3000 O.co2     2 ASP3        0.0000 
     28 OD1        34.2300   22.9100  138.8000 O.co2     2 ASP3        0.0000 
     29 OD1        33.1000   22.8900  139.7900 O.co2     2 ASP3        0.0000 
     30 OD1        31.9700   22.8700  140.7800 O.co2     2 ASP3        0.0000 
     31 OD1        30.8400   22.8500  141.7600 O.co2     2 ASP3        0.0000 
     32 OD1        32.4300   21.5300  141.2700 O.co2     2 ASP3        0.0000 
     33 OD1        32.8900   20.1900  141.7700 O.co2     2 ASP3        0.0000 
     34 OD1        32.2200   18.8400  143.2600 O.co2     2 ASP3        0.0000 
     35 OD1        35.7700   24.9500  138.3300 O.co2     2 ASP3        0.0000 
     36 OD1        35.1000   23.5900  139.8200 O.co2     2 ASP3        0.0000 
     37 OD1        34.4300   22.2300  141.3000 O.co2     2 ASP3        0.0000 
     38 OD1        35.9700   24.2700  140.8300 O.co2     2 ASP3        0.0000 
     39 OD1        37.5100   26.3000  140.3600 O.co2     2 ASP3        0.0000 
     40 OD1        37.9800   24.9700  140.8600 O.co2     2 ASP3        0.0000 
     41 OD1        36.8500   24.9500  141.8400 O.co2     2 ASP3        0.0000 
     42 NZ         36.4300   22.9300  141.3300 N.4       3 LYS4        0.0000 
     43 CZ         38.6400   26.3200  139.3700 C.ar      4 PHE5        0.0000 
     44 CZ         39.1000   24.9900  139.8700 C.ar      4 PHE5        0.0000 
     45 CA         27.9600   21.4700  140.7200 C.3       5 GLY6        0.0000 
     46 CA         32.4300   24.9000  136.7900 C.3       5 GLY6        0.0000 
     47 CA         30.6300   23.5300  139.2600 C.3       5 GLY6        0.0000 
     48 CA         29.5000   23.5100  140.2500 C.3       5 GLY6        0.0000 
     49 CA         33.3500   22.2300  137.7900 C.3       5 GLY6        0.0000 
     50 CA         36.0300   24.2900  136.3300 C.3       5 GLY6        0.0000 
     51 CA         36.4900   22.9500  136.8300 C.3       5 GLY6        0.0000 
     52 CA         35.3600   22.9300  137.8200 C.3       5 GLY6        0.0000 
     53 CA         33.5600   21.5500  140.2900 C.3       5 GLY6        0.0000 
     54 CA         31.3000   21.5100  142.2600 C.3       5 GLY6        0.0000 
     55 CA         31.7600   20.1700  142.7600 C.3       5 GLY6        0.0000 
     56 CA         35.3100   26.2800  137.8300 C.3       5 GLY6        0.0000 
     57 CA         36.9000   24.9700  137.3400 C.3       5 GLY6        0.0000 
     58 CA         36.2300   23.6100  138.8300 C.3       5 GLY6        0.0000 
     59 CA         36.6900   22.2700  139.3300 C.3       5 GLY6        0.0000 
     60 CA         35.5600   22.2500  140.3200 C.3       5 GLY6        0.0000 
     61 CA         37.3100   26.9800  137.8600 C.3       5 GLY6        0.0000 
     62 CA         37.7700   25.6500  138.3600 C.3       5 GLY6        0.0000 
     63 CA         37.1000   24.2900  139.8400 C.3       5 GLY6        0.0000 
     64 CA         38.6900   22.9700  139.3600 C.3       5 GLY6        0.0000 
     65 CA         37.5600   22.9500  140.3400 C.3       5 GLY6        0.0000 
     66 CA         39.1500   21.6300  139.8500 C.3       5 GLY6        0.0000 
     67 CA         38.0200   21.6100  140.8400 C.3       5 GLY6        0.0000 
     68 CA         39.5700   23.6500  140.3700 C.3       5 GLY6        0.0000 
     69 CA         38.4400   23.6300  141.3600 C.3       5 GLY6        0.0000 
     70 DU         31.5500   17.4800  144.7500 H         6 CUB7        0.0000 
@<TRIPOS>BOND
@<TRIPOS>SUBSTRUCTURE
     1 ALA2        1 GROUP   
     2 ASP3       11 GROUP   
     3 LYS4       42 GROUP   
     4 PHE5       43 GROUP   
     5 GLY6       45 GROUP   
     6 CUB7       70 GROUP   
@<TRIPOS>SET

