#    Name: 6cm2_3_GTP_CAVITY_N1_8
#    Modification time : Fri May 22 19:28:15 2020

@<TRIPOS>MOLECULE
6cm2_3_GTP_CAVITY_N1_8
   27     0     6     0     0
SMALL
NO_CHARGES


@<TRIPOS>ATOM
      1 OG         29.3500   54.5500   97.3800 O.3       1 SER1        0.0000 
      2 OG         29.8100   53.2100   97.8800 O.3       1 SER1        0.0000 
      3 OG         32.5300   51.9100   96.4100 O.3       1 SER1        0.0000 
      4 OG         31.4000   51.8900   97.3900 O.3       1 SER1        0.0000 
      5 OG         30.6800   53.8900   98.8900 O.3       1 SER1        0.0000 
      6 OG         31.1400   52.5500   99.3900 O.3       1 SER1        0.0000 
      7 N          32.7300   51.2400   98.9100 N.am      2 ALA2        0.0000 
      8 N          31.6000   51.2200   99.8900 N.am      2 ALA2        0.0000 
      9 N          32.4800   51.8900  100.9100 N.am      2 ALA2        0.0000 
     10 N          32.9400   50.5600  101.4100 N.am      2 ALA2        0.0000 
     11 OD1        31.6600   51.2400   95.3900 O.co2     3 ASP3        0.0000 
     12 OD1        28.0100   51.8300  100.3500 O.co2     3 ASP3        0.0000 
     13 OD1        29.6000   50.5200   99.8700 O.co2     3 ASP3        0.0000 
     14 OD1        30.4700   51.2000  100.8800 O.co2     3 ASP3        0.0000 
     15 OD1        30.9300   49.8600  101.3800 O.co2     3 ASP3        0.0000 
     16 CZ         31.8100   50.5400  102.3900 C.ar      4 PHE5        0.0000 
     17 CA         28.9400   52.5300   96.8700 C.3       5 GLY6        0.0000 
     18 CA         30.5300   51.2200   96.3800 C.3       5 GLY6        0.0000 
     19 CA         28.6800   53.1900   98.8700 C.3       5 GLY6        0.0000 
     20 CA         30.2700   51.8700   98.3800 C.3       5 GLY6        0.0000 
     21 CA         29.1400   51.8500   99.3700 C.3       5 GLY6        0.0000 
     22 CA         30.7300   50.5400   98.8800 C.3       5 GLY6        0.0000 
     23 CA         32.0200   53.2300  100.4100 C.3       5 GLY6        0.0000 
     24 CA         33.8100   51.2400  102.4200 C.3       5 GLY6        0.0000 
     25 DU         31.8600   50.5600   97.8900 H         6 CUB7        0.0000 
     26 DU         30.0100   52.5300  100.3800 H         6 CUB7        0.0000 
     27 DU         32.0600   49.8800  100.3900 H         6 CUB7        0.0000 
@<TRIPOS>BOND
@<TRIPOS>SUBSTRUCTURE
     1 SER1        1 GROUP   
     2 ALA2        7 GROUP   
     3 ASP3       11 GROUP   
     4 PHE5       16 GROUP   
     5 GLY6       17 GROUP   
     6 CUB7       25 GROUP   
@<TRIPOS>SET

