#    Name: 6cm2_4_GTP
#    Modification time : Fri May 22 19:28:33 2020

@<TRIPOS>MOLECULE
6cm2_4_GTP
   32    34     1     0     1
SMALL
NO_CHARGES


@<TRIPOS>ATOM
      1 PG         29.7190   18.3910  140.5660 P.3       1 GTP702      0.0000 
      2 O1G        30.1350   18.3220  139.1160 O.co2     1 GTP702      0.0000 
      3 O2G        30.8420   18.0570  141.4580 O.co2     1 GTP702      0.0000 
      4 O3G        28.4150   17.7270  140.8510 O.co2     1 GTP702      0.0000 
      5 O3B        29.3610   19.9080  141.0370 O.3       1 GTP702      0.0000 
      6 PB         28.8690   21.1950  140.1910 P.3       1 GTP702      0.0000 
      7 O1B        28.7130   20.9550  138.7010 O.co2     1 GTP702      0.0000 
      8 O2B        27.7770   21.8850  140.9430 O.co2     1 GTP702      0.0000 
      9 O3A        30.0790   22.1970  140.4740 O.3       1 GTP702      0.0000 
     10 PA         31.5480   22.0350  139.9450 P.3       1 GTP702      0.0000 
     11 O1A        31.7480   20.9240  138.9240 O.co2     1 GTP702      0.0000 
     12 O2A        32.6090   22.0480  141.0660 O.co2     1 GTP702      0.0000 
     13 O5'        31.8530   23.4940  139.3260 O.3       1 GTP702      0.0000 
     14 C5'        31.5480   23.8320  138.0110 C.3       1 GTP702      0.0000 
     15 C4'        32.7810   23.9820  137.1460 C.3       1 GTP702      0.0000 
     16 O4'        33.5810   25.0710  137.6490 O.3       1 GTP702      0.0000 
     17 C3'        33.6920   22.7830  137.1410 C.3       1 GTP702      0.0000 
     18 O3'        33.0930   21.8200  136.2800 O.3       1 GTP702      0.0000 
     19 C2'        35.0380   23.4210  136.7330 C.3       1 GTP702      0.0000 
     20 O2'        35.1910   23.4980  135.3150 O.3       1 GTP702      0.0000 
     21 C1'        34.9020   24.8700  137.1710 C.3       1 GTP702      0.0000 
     22 N9         35.8000   25.3210  138.2320 N.pl3     1 GTP702      0.0000 
     23 C8         36.5020   26.4630  138.1680 C.2       1 GTP702      0.0000 
     24 N7         37.2240   26.6780  139.2780 N.2       1 GTP702      0.0000 
     25 C5         36.9790   25.6100  140.0740 C.2       1 GTP702      0.0000 
     26 C6         37.4370   25.1890  141.3970 C.2       1 GTP702      0.0000 
     27 O6         38.2140   25.9150  142.0230 O.2       1 GTP702      0.0000 
     28 N1         36.9710   24.0230  141.8960 N.am      1 GTP702      0.0000 
     29 C2         36.1070   23.2660  141.1760 C.2       1 GTP702      0.0000 
     30 N2         35.6520   22.1360  141.6850 N.pl3     1 GTP702      0.0000 
     31 N3         35.6230   23.5840  139.9570 N.2       1 GTP702      0.0000 
     32 C4         36.0250   24.7380  139.3850 C.2       1 GTP702      0.0000 
@<TRIPOS>BOND
     1    1    2 ar   
     2    1    3 ar   
     3    1    4 ar   
     4    1    5 1    
     5    5    6 1    
     6    6    7 ar   
     7    6    8 ar   
     8    6    9 1    
     9    9   10 1    
    10   10   11 ar   
    11   10   12 ar   
    12   10   13 1    
    13   13   14 1    
    14   14   15 1    
    15   15   16 1    
    16   15   17 1    
    17   16   21 1    
    18   17   18 1    
    19   17   19 1    
    20   19   20 1    
    21   19   21 1    
    22   21   22 1    
    23   22   23 1    
    24   22   32 1    
    25   23   24 2    
    26   24   25 1    
    27   25   26 1    
    28   25   32 2    
    29   26   27 2    
    30   26   28 am   
    31   28   29 1    
    32   29   30 1    
    33   29   31 2    
    34   31   32 1    
@<TRIPOS>SUBSTRUCTURE
     1 GTP702      1 GROUP   
@<TRIPOS>SET
ATOM$ORANGE STATIC     ATOMS   COLORGROUP SYSTEM 
20 14 14 15 15 17 17 19 19 21 21 23 23 25 25 26 26 29 \
29 32 32 

