#    Name: 6i7g_1_ATP
#    Modification time : Fri May 22 19:30:17 2020

@<TRIPOS>MOLECULE
6i7g_1_ATP
   31    33     1     0     1
SMALL
NO_CHARGES


@<TRIPOS>ATOM
      1 PG        -20.0490   33.1710  -48.8170 P.3       1 ATP501      0.0000 
      2 O1G       -20.0730   31.8380  -49.5230 O.co2     1 ATP501      0.0000 
      3 O2G       -18.7070   33.4800  -48.2040 O.co2     1 ATP501      0.0000 
      4 O3G       -21.1900   33.3410  -47.8450 O.co2     1 ATP501      0.0000 
      5 PB        -21.6150   34.6790  -50.7640 P.3       1 ATP501      0.0000 
      6 O1B       -21.2250   35.5150  -51.9380 O.co2     1 ATP501      0.0000 
      7 O2B       -22.6160   35.1990  -49.7850 O.co2     1 ATP501      0.0000 
      8 O3B       -20.2900   34.2760  -49.9620 O.3       1 ATP501      0.0000 
      9 PA        -22.6550   32.6820  -52.6810 P.3       1 ATP501      0.0000 
     10 O1A       -22.9450   33.8320  -53.5880 O.co2     1 ATP501      0.0000 
     11 O2A       -23.7520   31.7070  -52.4080 O.co2     1 ATP501      0.0000 
     12 O3A       -22.0990   33.2410  -51.2810 O.3       1 ATP501      0.0000 
     13 O5'       -21.3690   31.8860  -53.2130 O.3       1 ATP501      0.0000 
     14 C5'       -20.3920   32.5850  -54.0250 C.3       1 ATP501      0.0000 
     15 C4'       -19.0050   32.1730  -53.6010 C.3       1 ATP501      0.0000 
     16 O4'       -18.6920   30.8950  -54.2110 O.3       1 ATP501      0.0000 
     17 C3'       -17.8790   33.1360  -54.0060 C.3       1 ATP501      0.0000 
     18 O3'       -17.4290   33.8870  -52.8850 O.3       1 ATP501      0.0000 
     19 C2'       -16.7850   32.2130  -54.5530 C.3       1 ATP501      0.0000 
     20 O2'       -15.8750   31.7990  -53.5570 O.3       1 ATP501      0.0000 
     21 C1'       -17.5850   31.0220  -55.0710 C.3       1 ATP501      0.0000 
     22 N9        -18.0780   31.1390  -56.4490 N.pl3     1 ATP501      0.0000 
     23 C8        -18.5000   32.2710  -57.1140 C.2       1 ATP501      0.0000 
     24 N7        -18.8750   32.0220  -58.3470 N.2       1 ATP501      0.0000 
     25 C5        -18.6900   30.6530  -58.5040 C.ar      1 ATP501      0.0000 
     26 C6        -18.9050   29.7790  -59.5880 C.ar      1 ATP501      0.0000 
     27 N6        -19.3730   30.1690  -60.7700 N.pl3     1 ATP501      0.0000 
     28 N1        -18.6130   28.4680  -59.4010 N.ar      1 ATP501      0.0000 
     29 C2        -18.1410   28.0810  -58.2080 C.ar      1 ATP501      0.0000 
     30 N3        -17.8990   28.8110  -57.1210 N.ar      1 ATP501      0.0000 
     31 C4        -18.1980   30.1030  -57.3380 C.ar      1 ATP501      0.0000 
@<TRIPOS>BOND
     1    1    2 ar   
     2    1    3 ar   
     3    1    4 ar   
     4    1    8 1    
     5    5    6 ar   
     6    5    7 ar   
     7    5    8 1    
     8    5   12 1    
     9    9   10 ar   
    10    9   11 ar   
    11    9   12 1    
    12    9   13 1    
    13   13   14 1    
    14   14   15 1    
    15   15   16 1    
    16   15   17 1    
    17   16   21 1    
    18   17   18 1    
    19   17   19 1    
    20   19   20 1    
    21   19   21 1    
    22   21   22 1    
    23   22   23 1    
    24   22   31 1    
    25   23   24 2    
    26   24   25 1    
    27   25   26 ar   
    28   25   31 ar   
    29   26   27 1    
    30   26   28 ar   
    31   28   29 ar   
    32   29   30 ar   
    33   30   31 ar   
@<TRIPOS>SUBSTRUCTURE
     1 ATP501      1 GROUP   
@<TRIPOS>SET
ATOM$ORANGE STATIC     ATOMS   COLORGROUP SYSTEM 
20 14 14 15 15 17 17 19 19 21 21 23 23 25 25 26 26 29 \
29 31 31 

