#    Name: 6i7g_2_ATP
#    Modification time : Fri May 22 19:30:23 2020

@<TRIPOS>MOLECULE
6i7g_2_ATP
   31    33     1     0     1
SMALL
NO_CHARGES


@<TRIPOS>ATOM
      1 PG        -28.9690   33.3180  -17.6880 P.3       1 ATP501      0.0000 
      2 O1G       -27.8610   33.4090  -18.7060 O.co2     1 ATP501      0.0000 
      3 O2G       -29.0400   31.9690  -17.0170 O.co2     1 ATP501      0.0000 
      4 O3G       -30.3000   33.7680  -18.2310 O.co2     1 ATP501      0.0000 
      5 PB        -27.1910   34.6740  -15.8030 P.3       1 ATP501      0.0000 
      6 O1B       -26.1670   35.0030  -16.8390 O.co2     1 ATP501      0.0000 
      7 O2B       -27.4500   35.6330  -14.6870 O.co2     1 ATP501      0.0000 
      8 O3B       -28.5800   34.3700  -16.5350 O.3       1 ATP501      0.0000 
      9 PA        -26.4350   32.7080  -13.7330 P.3       1 ATP501      0.0000 
     10 O1A       -25.3610   31.6800  -13.8740 O.co2     1 ATP501      0.0000 
     11 O2A       -26.1770   33.8840  -12.8490 O.co2     1 ATP501      0.0000 
     12 O3A       -26.8520   33.2310  -15.1930 O.3       1 ATP501      0.0000 
     13 O5'       -27.7940   31.9930  -13.2800 O.3       1 ATP501      0.0000 
     14 C5'       -28.9000   32.8420  -12.8910 C.3       1 ATP501      0.0000 
     15 C4'       -30.1600   32.0180  -12.8100 C.3       1 ATP501      0.0000 
     16 O4'       -29.9320   30.8750  -11.9460 O.3       1 ATP501      0.0000 
     17 C3'       -31.3760   32.7350  -12.2160 C.3       1 ATP501      0.0000 
     18 O3'       -32.1170   33.4000  -13.2310 O.3       1 ATP501      0.0000 
     19 C2'       -32.1620   31.5840  -11.5850 C.3       1 ATP501      0.0000 
     20 O2'       -33.0220   30.9740  -12.5200 O.3       1 ATP501      0.0000 
     21 C1'       -31.0550   30.6350  -11.1270 C.3       1 ATP501      0.0000 
     22 N9        -30.6450   30.7990   -9.7280 N.pl3     1 ATP501      0.0000 
     23 C8        -30.1370   31.9270   -9.1300 C.2       1 ATP501      0.0000 
     24 N7        -29.8690   31.7500   -7.8570 N.2       1 ATP501      0.0000 
     25 C5        -30.2160   30.4290   -7.6050 C.ar      1 ATP501      0.0000 
     26 C6        -30.1660   29.6360   -6.4420 C.ar      1 ATP501      0.0000 
     27 N6        -29.7290   30.0760   -5.2650 N.pl3     1 ATP501      0.0000 
     28 N1        -30.5910   28.3520   -6.5450 N.ar      1 ATP501      0.0000 
     29 C2        -31.0300   27.9150   -7.7330 C.ar      1 ATP501      0.0000 
     30 N3        -31.1250   28.5690   -8.8880 N.ar      1 ATP501      0.0000 
     31 C4        -30.6950   29.8350   -8.7540 C.ar      1 ATP501      0.0000 
@<TRIPOS>BOND
     1    1    2 ar   
     2    1    3 ar   
     3    1    4 ar   
     4    1    8 1    
     5    5    6 ar   
     6    5    7 ar   
     7    5    8 1    
     8    5   12 1    
     9    9   10 ar   
    10    9   11 ar   
    11    9   12 1    
    12    9   13 1    
    13   13   14 1    
    14   14   15 1    
    15   15   16 1    
    16   15   17 1    
    17   16   21 1    
    18   17   18 1    
    19   17   19 1    
    20   19   20 1    
    21   19   21 1    
    22   21   22 1    
    23   22   23 1    
    24   22   31 1    
    25   23   24 2    
    26   24   25 1    
    27   25   26 ar   
    28   25   31 ar   
    29   26   27 1    
    30   26   28 ar   
    31   28   29 ar   
    32   29   30 ar   
    33   30   31 ar   
@<TRIPOS>SUBSTRUCTURE
     1 ATP501      1 GROUP   
@<TRIPOS>SET
ATOM$ORANGE STATIC     ATOMS   COLORGROUP SYSTEM 
20 14 14 15 15 17 17 19 19 21 21 23 23 25 25 26 26 29 \
29 31 31 

