#    Name: 6u5t_1_FMN
#    Modification time : Fri May 22 19:25:10 2020

@<TRIPOS>MOLECULE
6u5t_1_FMN
   31    33     1     0     1
SMALL
NO_CHARGES


@<TRIPOS>ATOM
      1 N1        175.7130  117.4390  266.0400 N.2       1 FMN3051     0.0000 
      2 C2        175.1440  118.6130  265.6070 C.2       1 FMN3051     0.0000 
      3 O2        175.5390  119.6820  266.0600 O.2       1 FMN3051     0.0000 
      4 N3        174.1370  118.5970  264.6710 N.am      1 FMN3051     0.0000 
      5 C4        173.7030  117.3940  264.1680 C.2       1 FMN3051     0.0000 
      6 O4        172.8060  117.3640  263.3320 O.2       1 FMN3051     0.0000 
      7 C4A       174.2740  116.2130  264.6000 C.2       1 FMN3051     0.0000 
      8 N5        173.8300  115.0230  264.0890 N.2       1 FMN3051     0.0000 
      9 C5A       174.3960  113.8510  264.5180 C.ar      1 FMN3051     0.0000 
     10 C6        173.9440  112.6530  264.0020 C.ar      1 FMN3051     0.0000 
     11 C7        174.5050  111.4630  264.4290 C.ar      1 FMN3051     0.0000 
     12 C7M       174.0010  110.1720  263.8660 C.3       1 FMN3051     0.0000 
     13 C8        175.5160  111.4830  265.3670 C.ar      1 FMN3051     0.0000 
     14 C8M       176.1370  110.2160  265.8450 C.3       1 FMN3051     0.0000 
     15 C9        175.9610  112.6790  265.8840 C.ar      1 FMN3051     0.0000 
     16 C9A       175.4040  113.8680  265.4600 C.ar      1 FMN3051     0.0000 
     17 N10       175.8530  115.0590  265.9760 N.pl3     1 FMN3051     0.0000 
     18 C10       175.2840  116.2340  265.5430 C.2       1 FMN3051     0.0000 
     19 C1'       176.9510  115.0700  267.0000 C.3       1 FMN3051     0.0000 
     20 C2'       176.3890  114.7020  268.3620 C.3       1 FMN3051     0.0000 
     21 O2'       175.7990  115.8600  268.8900 O.3       1 FMN3051     0.0000 
     22 C3'       177.4530  114.2290  269.3400 C.3       1 FMN3051     0.0000 
     23 O3'       178.5020  115.1610  269.3570 O.3       1 FMN3051     0.0000 
     24 C4'       178.0120  112.8580  268.9990 C.3       1 FMN3051     0.0000 
     25 O4'       176.9700  111.9340  268.8410 O.3       1 FMN3051     0.0000 
     26 C5'       178.9060  112.3270  270.1020 C.3       1 FMN3051     0.0000 
     27 O5'       179.5580  111.1610  269.6730 O.3       1 FMN3051     0.0000 
     28 P         179.7530  109.9600  270.7180 P.3       1 FMN3051     0.0000 
     29 O1P       178.4760  109.1600  270.7320 O.co2     1 FMN3051     0.0000 
     30 O2P       180.9180  109.0940  270.3070 O.co2     1 FMN3051     0.0000 
     31 O3P       180.0000  110.5190  272.0940 O.co2     1 FMN3051     0.0000 
@<TRIPOS>BOND
     1    1    2 1    
     2    1   18 2    
     3    2    3 2    
     4    2    4 am   
     5    4    5 am   
     6    5    6 2    
     7    5    7 1    
     8    7    8 2    
     9    7   18 1    
    10    8    9 1    
    11    9   10 ar   
    12    9   16 ar   
    13   10   11 ar   
    14   11   12 1    
    15   11   13 ar   
    16   13   14 1    
    17   13   15 ar   
    18   15   16 ar   
    19   16   17 1    
    20   17   18 1    
    21   17   19 1    
    22   19   20 1    
    23   20   21 1    
    24   20   22 1    
    25   22   23 1    
    26   22   24 1    
    27   24   25 1    
    28   24   26 1    
    29   26   27 1    
    30   27   28 1    
    31   28   29 ar   
    32   28   30 ar   
    33   28   31 ar   
@<TRIPOS>SUBSTRUCTURE
     1 FMN3051     1 GROUP   
@<TRIPOS>SET
ATOM$ORANGE STATIC     ATOMS   COLORGROUP SYSTEM 
34 2 2 5 5 7 7 9 9 10 10 11 11 12 12 13 13 14 \
14 15 15 16 16 18 18 19 19 20 20 22 22 24 24 26 26 

