#    Name: 6jll_3_PHO
#    Modification time : Fri May 22 19:30:04 2020

@<TRIPOS>MOLECULE
6jll_3_PHO
   64    69     1     0     0
SMALL
NO_CHARGES


@<TRIPOS>ATOM
      1 CHA         1.8440    0.6730    7.9360 C.2       1 PHO411      0.0000 
      2 CHB         2.4480    1.6390    3.2160 C.2       1 PHO411      0.0000 
      3 CHC         4.9630    5.7530    4.3500 C.2       1 PHO411      0.0000 
      4 CHD         4.4610    4.7820    9.1970 C.2       1 PHO411      0.0000 
      5 NA          2.4000    1.3180    5.6330 N.2       1 PHO411      0.0000 
      6 C1A         1.7990    0.4920    6.4630 C.2       1 PHO411      0.0000 
      7 C2A         1.1050   -0.6680    5.8130 C.3       1 PHO411      0.0000 
      8 C3A         1.4920   -0.4320    4.3610 C.3       1 PHO411      0.0000 
      9 C4A         2.1480    0.9130    4.4600 C.2       1 PHO411      0.0000 
     10 CMA         2.5300   -1.4390    3.8980 C.3       1 PHO411      0.0000 
     11 CAA        -0.4060   -0.6210    5.9720 C.3       1 PHO411      0.0000 
     12 CBA        -0.9600   -1.8770    5.3190 C.3       1 PHO411      0.0000 
     13 CGA        -2.4410   -1.6960    5.1530 C.2       1 PHO411      0.0000 
     14 O1A        -3.0130   -0.6680    5.4730 O.2       1 PHO411      0.0000 
     15 O2A        -3.1860   -2.7960    4.6300 O.3       1 PHO411      0.0000 
     16 NB          3.6800    3.6180    4.0740 N.pl3     1 PHO411      0.0000 
     17 C1B         3.1810    2.9140    3.0490 C.2       1 PHO411      0.0000 
     18 C2B         3.4290    3.5250    1.7200 C.2       1 PHO411      0.0000 
     19 C3B         4.1800    4.7460    2.0730 C.2       1 PHO411      0.0000 
     20 C4B         4.2750    4.7020    3.5600 C.2       1 PHO411      0.0000 
     21 CMB         3.0320    3.0460    0.3580 C.3       1 PHO411      0.0000 
     22 CAB         4.7220    5.8090    1.1950 C.2       1 PHO411      0.0000 
     23 CBB         3.9160    6.4180    0.3440 C.2       1 PHO411      0.0000 
     24 NC          4.5650    4.9350    6.7080 N.2       1 PHO411      0.0000 
     25 C1C         5.1480    5.7550    5.8140 C.2       1 PHO411      0.0000 
     26 C2C         5.9350    6.8510    6.4340 C.2       1 PHO411      0.0000 
     27 C3C         5.7750    6.6110    7.8860 C.2       1 PHO411      0.0000 
     28 C4C         4.9090    5.4040    7.9300 C.2       1 PHO411      0.0000 
     29 CMC         6.7150    7.9460    5.7630 C.3       1 PHO411      0.0000 
     30 CAC         6.3480    7.4090    9.0310 C.3       1 PHO411      0.0000 
     31 CBC         5.2140    7.9820    9.8460 C.3       1 PHO411      0.0000 
     32 ND          3.3040    2.9130    8.0470 N.pl3     1 PHO411      0.0000 
     33 C1D         3.6270    3.5600    9.1860 C.2       1 PHO411      0.0000 
     34 C2D         3.1670    2.9480   10.4680 C.2       1 PHO411      0.0000 
     35 C3D         2.4370    1.7780    9.9050 C.2       1 PHO411      0.0000 
     36 C4D         2.5620    1.8340    8.5190 C.2       1 PHO411      0.0000 
     37 CMD         3.2940    3.2880   11.9240 C.3       1 PHO411      0.0000 
     38 CAD         1.6370    0.5880   10.2890 C.2       1 PHO411      0.0000 
     39 OBD         1.3210    0.2150   11.4810 O.2       1 PHO411      0.0000 
     40 CBD         1.2240   -0.0970    9.0380 C.3       1 PHO411      0.0000 
     41 CGD         1.6310   -1.5310    9.0190 C.2       1 PHO411      0.0000 
     42 O1D         0.8030   -2.3820    9.3170 O.2       1 PHO411      0.0000 
     43 O2D         2.9930   -1.8880    8.6650 O.3       1 PHO411      0.0000 
     44 CED         3.3600   -3.2670    8.6570 C.3       1 PHO411      0.0000 
     45 C1         -4.5310   -2.6950    4.1920 C.3       1 PHO411      0.0000 
     46 C2         -4.4860   -2.6560    2.6790 C.2       1 PHO411      0.0000 
     47 C3         -4.1890   -3.7180    1.9090 C.2       1 PHO411      0.0000 
     48 C4         -3.8750   -5.0570    2.5170 C.3       1 PHO411      0.0000 
     49 C5         -4.1610   -3.5760    0.3940 C.3       1 PHO411      0.0000 
     50 C6         -4.9410   -2.3570   -0.0940 C.3       1 PHO411      0.0000 
     51 C7         -4.7430   -2.2210   -1.6130 C.3       1 PHO411      0.0000 
     52 C8         -5.5130   -1.0360   -2.2080 C.3       1 PHO411      0.0000 
     53 C9         -7.0220   -1.2920   -2.1300 C.3       1 PHO411      0.0000 
     54 C10        -5.0450   -0.7730   -3.6520 C.3       1 PHO411      0.0000 
     55 C11        -5.9140    0.2670   -4.3540 C.3       1 PHO411      0.0000 
     56 C12        -5.8640    1.6480   -3.6780 C.3       1 PHO411      0.0000 
     57 C13        -4.4410    2.1740   -3.4900 C.3       1 PHO411      0.0000 
     58 C14        -4.3960    3.4180   -2.6050 C.3       1 PHO411      0.0000 
     59 C15        -3.7900    2.4280   -4.8420 C.3       1 PHO411      0.0000 
     60 C16        -2.4460    3.1430   -4.6980 C.3       1 PHO411      0.0000 
     61 C17        -1.7140    3.2800   -6.0330 C.3       1 PHO411      0.0000 
     62 C18        -0.3230    3.8870   -5.8330 C.3       1 PHO411      0.0000 
     63 C19        -0.3940    5.3500   -5.3730 C.3       1 PHO411      0.0000 
     64 C20         0.5220    3.7260   -7.0860 C.3       1 PHO411      0.0000 
@<TRIPOS>BOND
     1    1    6 2    
     2    1   36 1    
     3    1   40 1    
     4    2    9 1    
     5    2   17 2    
     6    3   20 2    
     7    3   25 1    
     8    4   28 2    
     9    4   33 1    
    10    5    6 1    
    11    5    9 2    
    12    6    7 1    
    13    7    8 1    
    14    7   11 1    
    15    8    9 1    
    16    8   10 1    
    17   11   12 1    
    18   12   13 1    
    19   13   14 2    
    20   13   15 1    
    21   15   45 1    
    22   16   17 1    
    23   16   20 1    
    24   17   18 1    
    25   18   19 2    
    26   18   21 1    
    27   19   20 1    
    28   19   22 1    
    29   22   23 2    
    30   24   25 2    
    31   24   28 1    
    32   25   26 1    
    33   26   27 2    
    34   26   29 1    
    35   27   28 1    
    36   27   30 1    
    37   30   31 1    
    38   32   33 1    
    39   32   36 1    
    40   33   34 2    
    41   34   35 1    
    42   34   37 1    
    43   35   36 2    
    44   35   38 1    
    45   38   39 2    
    46   38   40 1    
    47   40   41 1    
    48   41   42 2    
    49   41   43 1    
    50   43   44 1    
    51   45   46 1    
    52   46   47 2    
    53   47   48 1    
    54   47   49 1    
    55   49   50 1    
    56   50   51 1    
    57   51   52 1    
    58   52   53 1    
    59   52   54 1    
    60   54   55 1    
    61   55   56 1    
    62   56   57 1    
    63   57   58 1    
    64   57   59 1    
    65   59   60 1    
    66   60   61 1    
    67   61   62 1    
    68   62   63 1    
    69   62   64 1    
@<TRIPOS>SUBSTRUCTURE
     1 PHO411      1 GROUP   
@<TRIPOS>SET

