#    Name: 6jll_4_PHO
#    Modification time : Fri May 22 19:30:16 2020

@<TRIPOS>MOLECULE
6jll_4_PHO
   64    69     1     0     0
SMALL
NO_CHARGES


@<TRIPOS>ATOM
      1 CHA        24.7590   11.5300   10.9530 C.2       1 PHO420      0.0000 
      2 CHB        22.5770   15.4450    9.0130 C.2       1 PHO420      0.0000 
      3 CHC        20.0180   12.4750    6.0160 C.2       1 PHO420      0.0000 
      4 CHD        22.0970    8.4280    8.0100 C.2       1 PHO420      0.0000 
      5 NA         23.5210   13.3320    9.7850 N.2       1 PHO420      0.0000 
      6 C1A        24.4090   12.9530   10.6950 C.2       1 PHO420      0.0000 
      7 C2A        25.0620   14.0700   11.4390 C.3       1 PHO420      0.0000 
      8 C3A        24.1430   15.2120   11.0400 C.3       1 PHO420      0.0000 
      9 C4A        23.3910   14.5870    9.8930 C.2       1 PHO420      0.0000 
     10 CMA        23.1760   15.5470   12.1750 C.3       1 PHO420      0.0000 
     11 CAA        26.4560   14.2670   10.8620 C.3       1 PHO420      0.0000 
     12 CBA        27.2320   15.2610   11.7080 C.3       1 PHO420      0.0000 
     13 CGA        28.5070   15.6680   11.0100 C.2       1 PHO420      0.0000 
     14 O1A        28.8720   15.1520    9.9620 O.2       1 PHO420      0.0000 
     15 O2A        29.3170   16.7160   11.5940 O.3       1 PHO420      0.0000 
     16 NB         21.4200   13.7530    7.6300 N.pl3     1 PHO420      0.0000 
     17 C1B        21.6360   15.0400    7.9420 C.2       1 PHO420      0.0000 
     18 C2B        20.8540   16.0010    7.1100 C.2       1 PHO420      0.0000 
     19 C3B        20.0950   15.0830    6.2240 C.2       1 PHO420      0.0000 
     20 C4B        20.5300   13.7200    6.6370 C.2       1 PHO420      0.0000 
     21 CMB        20.8410   17.5050    7.1730 C.3       1 PHO420      0.0000 
     22 CAB        19.1180   15.3600    5.1420 C.2       1 PHO420      0.0000 
     23 CBB        19.1220   16.5050    4.4820 C.2       1 PHO420      0.0000 
     24 NC         21.3640   10.6410    7.1560 N.2       1 PHO420      0.0000 
     25 C1C        20.4520   11.0790    6.2680 C.2       1 PHO420      0.0000 
     26 C2C        19.6740    9.9810    5.6350 C.2       1 PHO420      0.0000 
     27 C3C        20.2230    8.7490    6.2530 C.2       1 PHO420      0.0000 
     28 C4C        21.2540    9.2930    7.1710 C.2       1 PHO420      0.0000 
     29 CMC        18.5920   10.1160    4.5990 C.3       1 PHO420      0.0000 
     30 CAC        19.8270    7.3000    6.0140 C.3       1 PHO420      0.0000 
     31 CBC        20.8270    6.5800    5.1340 C.3       1 PHO420      0.0000 
     32 ND         23.1240   10.3740    9.1600 N.pl3     1 PHO420      0.0000 
     33 C1D        23.0510    9.0420    8.9550 C.2       1 PHO420      0.0000 
     34 C2D        23.8840    8.1700    9.8260 C.2       1 PHO420      0.0000 
     35 C3D        24.5620    9.2370   10.6050 C.2       1 PHO420      0.0000 
     36 C4D        24.0770   10.4580   10.1720 C.2       1 PHO420      0.0000 
     37 CMD        24.1070    6.6870    9.9600 C.3       1 PHO420      0.0000 
     38 CAD        25.5690    9.4560   11.6730 C.2       1 PHO420      0.0000 
     39 OBD        26.2080    8.5320   12.2880 O.2       1 PHO420      0.0000 
     40 CBD        25.6910   10.9080   11.9220 C.3       1 PHO420      0.0000 
     41 CGD        25.1310   11.1600   13.2900 C.2       1 PHO420      0.0000 
     42 O1D        25.8100   11.0680   14.3010 O.2       1 PHO420      0.0000 
     43 O2D        23.7270   11.4920   13.4360 O.3       1 PHO420      0.0000 
     44 CED        23.1740   11.5330   14.7530 C.3       1 PHO420      0.0000 
     45 C1         30.4690   17.1380   10.8850 C.3       1 PHO420      0.0000 
     46 C2         30.0800   18.3260   10.0440 C.2       1 PHO420      0.0000 
     47 C3         30.5600   18.3860    8.8000 C.2       1 PHO420      0.0000 
     48 C4         31.4460   17.2860    8.3070 C.3       1 PHO420      0.0000 
     49 C5         30.2120   19.5390    7.8970 C.3       1 PHO420      0.0000 
     50 C6         29.3620   19.0340    6.7400 C.3       1 PHO420      0.0000 
     51 C7         29.1760   20.1400    5.7100 C.3       1 PHO420      0.0000 
     52 C8         28.1060   19.7860    4.6900 C.3       1 PHO420      0.0000 
     53 C9         28.4020   18.4300    4.0560 C.3       1 PHO420      0.0000 
     54 C10        28.0450   20.8970    3.6460 C.3       1 PHO420      0.0000 
     55 C11        27.7610   22.2480    4.2980 C.3       1 PHO420      0.0000 
     56 C12        26.2780   22.4210    4.6080 C.3       1 PHO420      0.0000 
     57 C13        25.9930   23.8250    5.1410 C.3       1 PHO420      0.0000 
     58 C14        26.8320   24.1070    6.3790 C.3       1 PHO420      0.0000 
     59 C15        24.5070   23.9720    5.4540 C.3       1 PHO420      0.0000 
     60 C16        23.6690   24.0550    4.1790 C.3       1 PHO420      0.0000 
     61 C17        22.1820   24.1260    4.5030 C.3       1 PHO420      0.0000 
     62 C18        21.3660   24.5000    3.2710 C.3       1 PHO420      0.0000 
     63 C19        19.9100   24.7670    3.6420 C.3       1 PHO420      0.0000 
     64 C20        21.4640   23.4330    2.1780 C.3       1 PHO420      0.0000 
@<TRIPOS>BOND
     1    1    6 2    
     2    1   36 1    
     3    1   40 1    
     4    2    9 1    
     5    2   17 2    
     6    3   20 2    
     7    3   25 1    
     8    4   28 2    
     9    4   33 1    
    10    5    6 1    
    11    5    9 2    
    12    6    7 1    
    13    7    8 1    
    14    7   11 1    
    15    8    9 1    
    16    8   10 1    
    17   11   12 1    
    18   12   13 1    
    19   13   14 2    
    20   13   15 1    
    21   15   45 1    
    22   16   17 1    
    23   16   20 1    
    24   17   18 1    
    25   18   19 2    
    26   18   21 1    
    27   19   20 1    
    28   19   22 1    
    29   22   23 2    
    30   24   25 2    
    31   24   28 1    
    32   25   26 1    
    33   26   27 2    
    34   26   29 1    
    35   27   28 1    
    36   27   30 1    
    37   30   31 1    
    38   32   33 1    
    39   32   36 1    
    40   33   34 2    
    41   34   35 1    
    42   34   37 1    
    43   35   36 2    
    44   35   38 1    
    45   38   39 2    
    46   38   40 1    
    47   40   41 1    
    48   41   42 2    
    49   41   43 1    
    50   43   44 1    
    51   45   46 1    
    52   46   47 2    
    53   47   48 1    
    54   47   49 1    
    55   49   50 1    
    56   50   51 1    
    57   51   52 1    
    58   52   53 1    
    59   52   54 1    
    60   54   55 1    
    61   55   56 1    
    62   56   57 1    
    63   57   58 1    
    64   57   59 1    
    65   59   60 1    
    66   60   61 1    
    67   61   62 1    
    68   62   63 1    
    69   62   64 1    
@<TRIPOS>SUBSTRUCTURE
     1 PHO420      1 GROUP   
@<TRIPOS>SET

