#    Name: 6jll_2_PHO
#    Modification time : Fri May 22 19:29:52 2020

@<TRIPOS>MOLECULE
6jll_2_PHO
   64    69     1     0     0
SMALL
NO_CHARGES


@<TRIPOS>ATOM
      1 CHA         9.8510  -58.0110  -32.2110 C.2       1 PHO409      0.0000 
      2 CHB        10.1760  -57.4200  -37.0420 C.2       1 PHO409      0.0000 
      3 CHC        11.8690  -52.8310  -36.3650 C.2       1 PHO409      0.0000 
      4 CHD        11.9670  -53.5140  -31.4400 C.2       1 PHO409      0.0000 
      5 NA         10.1320  -57.4640  -34.6130 N.2       1 PHO409      0.0000 
      6 C1A         9.7290  -58.3070  -33.6690 C.2       1 PHO409      0.0000 
      7 C2A         9.1390  -59.5900  -34.1810 C.3       1 PHO409      0.0000 
      8 C3A         9.4980  -59.4710  -35.6560 C.3       1 PHO409      0.0000 
      9 C4A         9.9630  -58.0380  -35.7260 C.2       1 PHO409      0.0000 
     10 CMA        10.6400  -60.4140  -36.0250 C.3       1 PHO409      0.0000 
     11 CAA         7.6280  -59.5740  -34.0060 C.3       1 PHO409      0.0000 
     12 CBA         7.0370  -60.8460  -34.6000 C.3       1 PHO409      0.0000 
     13 CGA         5.5330  -60.7720  -34.6220 C.2       1 PHO409      0.0000 
     14 O1A         4.9290  -59.7400  -34.3610 O.2       1 PHO409      0.0000 
     15 O2A         4.7780  -61.9500  -34.9890 O.3       1 PHO409      0.0000 
     16 NB         11.0060  -55.1650  -36.4360 N.pl3     1 PHO409      0.0000 
     17 C1B        10.6650  -56.0590  -37.3730 C.2       1 PHO409      0.0000 
     18 C2B        10.8350  -55.5660  -38.7700 C.2       1 PHO409      0.0000 
     19 C3B        11.3460  -54.1860  -38.5450 C.2       1 PHO409      0.0000 
     20 C4B        11.4080  -54.0540  -37.0620 C.2       1 PHO409      0.0000 
     21 CMB        10.5630  -56.2890  -40.0620 C.3       1 PHO409      0.0000 
     22 CAB        11.7260  -53.1260  -39.5140 C.2       1 PHO409      0.0000 
     23 CBB        11.1200  -53.0190  -40.6840 C.2       1 PHO409      0.0000 
     24 NC         11.7660  -53.5100  -33.9220 N.2       1 PHO409      0.0000 
     25 C1C        12.1440  -52.6890  -34.9160 C.2       1 PHO409      0.0000 
     26 C2C        12.8710  -51.4780  -34.4360 C.2       1 PHO409      0.0000 
     27 C3C        12.9060  -51.6520  -32.9600 C.2       1 PHO409      0.0000 
     28 C4C        12.1960  -52.9410  -32.7750 C.2       1 PHO409      0.0000 
     29 CMC        13.4270  -50.3590  -35.2680 C.3       1 PHO409      0.0000 
     30 CAC        13.5160  -50.7660  -31.8950 C.3       1 PHO409      0.0000 
     31 CBC        12.4700  -49.9980  -31.1150 C.3       1 PHO409      0.0000 
     32 ND         10.9810  -55.5780  -32.3730 N.pl3     1 PHO409      0.0000 
     33 C1D        11.3040  -54.8230  -31.3090 C.2       1 PHO409      0.0000 
     34 C2D        11.0550  -55.3890  -29.9570 C.2       1 PHO409      0.0000 
     35 C3D        10.4580  -56.6880  -30.3830 C.2       1 PHO409      0.0000 
     36 C4D        10.4520  -56.7170  -31.7660 C.2       1 PHO409      0.0000 
     37 CMD        11.2780  -54.8970  -28.5500 C.3       1 PHO409      0.0000 
     38 CAD         9.8660  -57.9550  -29.8740 C.2       1 PHO409      0.0000 
     39 OBD         9.7140  -58.2620  -28.6420 O.2       1 PHO409      0.0000 
     40 CBD         9.4890  -58.8110  -31.0220 C.3       1 PHO409      0.0000 
     41 CGD        10.3800  -60.0180  -31.0300 C.2       1 PHO409      0.0000 
     42 O1D        10.0900  -61.0420  -30.4290 O.2       1 PHO409      0.0000 
     43 O2D        11.6380  -59.9580  -31.7550 O.3       1 PHO409      0.0000 
     44 CED        12.5430  -61.0600  -31.7260 C.3       1 PHO409      0.0000 
     45 C1          3.3990  -61.7690  -35.2430 C.3       1 PHO409      0.0000 
     46 C2          3.2440  -61.3630  -36.6870 C.2       1 PHO409      0.0000 
     47 C3          2.2090  -60.5830  -37.0110 C.2       1 PHO409      0.0000 
     48 C4          1.2640  -60.1390  -35.9360 C.3       1 PHO409      0.0000 
     49 C5          2.0020  -60.1350  -38.4370 C.3       1 PHO409      0.0000 
     50 C6          2.1320  -58.6160  -38.4850 C.3       1 PHO409      0.0000 
     51 C7          1.6540  -58.0800  -39.8300 C.3       1 PHO409      0.0000 
     52 C8          2.2790  -56.7260  -40.1580 C.3       1 PHO409      0.0000 
     53 C9          2.0370  -55.7190  -39.0320 C.3       1 PHO409      0.0000 
     54 C10         1.7390  -56.2290  -41.5000 C.3       1 PHO409      0.0000 
     55 C11         1.9490  -57.2540  -42.6220 C.3       1 PHO409      0.0000 
     56 C12         3.4120  -57.3570  -43.0570 C.3       1 PHO409      0.0000 
     57 C13         3.5840  -58.3510  -44.2080 C.3       1 PHO409      0.0000 
     58 C14         3.2640  -59.7860  -43.7770 C.3       1 PHO409      0.0000 
     59 C15         4.9880  -58.2570  -44.8030 C.3       1 PHO409      0.0000 
     60 C16         5.1500  -57.0470  -45.7240 C.3       1 PHO409      0.0000 
     61 C17         6.5680  -56.9310  -46.2780 C.3       1 PHO409      0.0000 
     62 C18         6.7160  -55.6950  -47.1650 C.3       1 PHO409      0.0000 
     63 C19         8.0240  -55.7250  -47.9460 C.3       1 PHO409      0.0000 
     64 C20         6.6240  -54.4060  -46.3520 C.3       1 PHO409      0.0000 
@<TRIPOS>BOND
     1    1    6 2    
     2    1   36 1    
     3    1   40 1    
     4    2    9 1    
     5    2   17 2    
     6    3   20 2    
     7    3   25 1    
     8    4   28 2    
     9    4   33 1    
    10    5    6 1    
    11    5    9 2    
    12    6    7 1    
    13    7    8 1    
    14    7   11 1    
    15    8    9 1    
    16    8   10 1    
    17   11   12 1    
    18   12   13 1    
    19   13   14 2    
    20   13   15 1    
    21   15   45 1    
    22   16   17 1    
    23   16   20 1    
    24   17   18 1    
    25   18   19 2    
    26   18   21 1    
    27   19   20 1    
    28   19   22 1    
    29   22   23 2    
    30   24   25 2    
    31   24   28 1    
    32   25   26 1    
    33   26   27 2    
    34   26   29 1    
    35   27   28 1    
    36   27   30 1    
    37   30   31 1    
    38   32   33 1    
    39   32   36 1    
    40   33   34 2    
    41   34   35 1    
    42   34   37 1    
    43   35   36 2    
    44   35   38 1    
    45   38   39 2    
    46   38   40 1    
    47   40   41 1    
    48   41   42 2    
    49   41   43 1    
    50   43   44 1    
    51   45   46 1    
    52   46   47 2    
    53   47   48 1    
    54   47   49 1    
    55   49   50 1    
    56   50   51 1    
    57   51   52 1    
    58   52   53 1    
    59   52   54 1    
    60   54   55 1    
    61   55   56 1    
    62   56   57 1    
    63   57   58 1    
    64   57   59 1    
    65   59   60 1    
    66   60   61 1    
    67   61   62 1    
    68   62   63 1    
    69   62   64 1    
@<TRIPOS>SUBSTRUCTURE
     1 PHO409      1 GROUP   
@<TRIPOS>SET

