#    Name: 6jll_1_PHO
#    Modification time : Fri May 22 19:29:41 2020

@<TRIPOS>MOLECULE
6jll_1_PHO
   64    69     1     0     0
SMALL
NO_CHARGES


@<TRIPOS>ATOM
      1 CHA        32.0310  -45.2950  -31.9430 C.2       1 PHO408      0.0000 
      2 CHB        29.4200  -41.7320  -33.9740 C.2       1 PHO408      0.0000 
      3 CHC        26.6490  -44.9530  -36.4610 C.2       1 PHO408      0.0000 
      4 CHD        29.0190  -48.6660  -34.1260 C.2       1 PHO408      0.0000 
      5 NA         30.4830  -43.6880  -32.9870 N.2       1 PHO408      0.0000 
      6 C1A        31.5650  -43.9160  -32.2520 C.2       1 PHO408      0.0000 
      7 C2A        32.2490  -42.6900  -31.7120 C.3       1 PHO408      0.0000 
      8 C3A        31.2550  -41.6340  -32.1760 C.3       1 PHO408      0.0000 
      9 C4A        30.3500  -42.4390  -33.0710 C.2       1 PHO408      0.0000 
     10 CMA        30.4470  -41.1150  -30.9930 C.3       1 PHO408      0.0000 
     11 CAA        33.6400  -42.4570  -32.2820 C.3       1 PHO408      0.0000 
     12 CBA        34.2320  -41.2430  -31.5690 C.3       1 PHO408      0.0000 
     13 CGA        35.4770  -40.7760  -32.2740 C.2       1 PHO408      0.0000 
     14 O1A        35.8140  -41.2470  -33.3520 O.2       1 PHO408      0.0000 
     15 O2A        36.2820  -39.7520  -31.6390 O.3       1 PHO408      0.0000 
     16 NB         28.1830  -43.5570  -35.0830 N.pl3     1 PHO408      0.0000 
     17 C1B        28.4010  -42.2480  -34.9150 C.2       1 PHO408      0.0000 
     18 C2B        27.5390  -41.3810  -35.7730 C.2       1 PHO408      0.0000 
     19 C3B        26.7300  -42.3720  -36.5110 C.2       1 PHO408      0.0000 
     20 C4B        27.2170  -43.6740  -36.0050 C.2       1 PHO408      0.0000 
     21 CMB        27.4730  -39.8910  -35.9040 C.3       1 PHO408      0.0000 
     22 CAB        25.6590  -42.1890  -37.5270 C.2       1 PHO408      0.0000 
     23 CBB        25.7570  -41.2460  -38.4520 C.2       1 PHO408      0.0000 
     24 NC         28.0800  -46.5550  -35.1110 N.2       1 PHO408      0.0000 
     25 C1C        27.0450  -46.2710  -35.9270 C.2       1 PHO408      0.0000 
     26 C2C        26.2730  -47.4570  -36.3760 C.2       1 PHO408      0.0000 
     27 C3C        26.9690  -48.5750  -35.7030 C.2       1 PHO408      0.0000 
     28 C4C        28.0600  -47.9010  -34.9540 C.2       1 PHO408      0.0000 
     29 CMC        25.0710  -47.5080  -37.2930 C.3       1 PHO408      0.0000 
     30 CAC        26.6500  -50.0470  -35.7880 C.3       1 PHO408      0.0000 
     31 CBC        27.6420  -50.6680  -36.7400 C.3       1 PHO408      0.0000 
     32 ND         30.1440  -46.6290  -33.2910 N.pl3     1 PHO408      0.0000 
     33 C1D        30.0820  -47.9740  -33.3810 C.2       1 PHO408      0.0000 
     34 C2D        31.1190  -48.7660  -32.6680 C.2       1 PHO408      0.0000 
     35 C3D        31.8900  -47.6340  -32.1010 C.2       1 PHO408      0.0000 
     36 C4D        31.2730  -46.4540  -32.5060 C.2       1 PHO408      0.0000 
     37 CMD        31.4250  -50.2320  -32.4800 C.3       1 PHO408      0.0000 
     38 CAD        33.0720  -47.3130  -31.2530 C.2       1 PHO408      0.0000 
     39 OBD        33.8720  -48.1800  -30.7360 O.2       1 PHO408      0.0000 
     40 CBD        33.1910  -45.8200  -31.1770 C.3       1 PHO408      0.0000 
     41 CGD        33.1900  -45.2720  -29.7840 C.2       1 PHO408      0.0000 
     42 O1D        34.2320  -44.8680  -29.2950 O.2       1 PHO408      0.0000 
     43 O2D        31.9550  -45.2180  -29.0290 O.3       1 PHO408      0.0000 
     44 CED        32.0050  -44.8850  -27.6470 C.3       1 PHO408      0.0000 
     45 C1         37.2520  -39.0070  -32.3720 C.3       1 PHO408      0.0000 
     46 C2         36.6090  -37.7370  -32.9010 C.2       1 PHO408      0.0000 
     47 C3         36.3040  -36.6960  -32.1170 C.2       1 PHO408      0.0000 
     48 C4         36.5800  -36.7610  -30.6410 C.3       1 PHO408      0.0000 
     49 C5         35.6500  -35.4550  -32.6970 C.3       1 PHO408      0.0000 
     50 C6         35.7980  -35.3640  -34.2110 C.3       1 PHO408      0.0000 
     51 C7         35.0630  -34.1230  -34.7400 C.3       1 PHO408      0.0000 
     52 C8         35.2600  -33.9230  -36.2380 C.3       1 PHO408      0.0000 
     53 C9         36.7370  -33.7170  -36.5780 C.3       1 PHO408      0.0000 
     54 C10        34.3810  -32.7670  -36.7250 C.3       1 PHO408      0.0000 
     55 C11        34.5750  -32.4660  -38.2110 C.3       1 PHO408      0.0000 
     56 C12        34.3120  -33.6630  -39.1330 C.3       1 PHO408      0.0000 
     57 C13        32.9280  -34.2990  -38.9840 C.3       1 PHO408      0.0000 
     58 C14        32.8660  -35.6140  -39.7580 C.3       1 PHO408      0.0000 
     59 C15        31.8040  -33.3590  -39.4240 C.3       1 PHO408      0.0000 
     60 C16        30.4580  -34.0710  -39.4050 C.3       1 PHO408      0.0000 
     61 C17        29.2960  -33.1510  -39.7810 C.3       1 PHO408      0.0000 
     62 C18        28.0080  -33.9620  -39.6410 C.3       1 PHO408      0.0000 
     63 C19        27.9730  -35.0580  -40.7070 C.3       1 PHO408      0.0000 
     64 C20        26.7550  -33.0960  -39.6910 C.3       1 PHO408      0.0000 
@<TRIPOS>BOND
     1    1    6 2    
     2    1   36 1    
     3    1   40 1    
     4    2    9 1    
     5    2   17 2    
     6    3   20 2    
     7    3   25 1    
     8    4   28 2    
     9    4   33 1    
    10    5    6 1    
    11    5    9 2    
    12    6    7 1    
    13    7    8 1    
    14    7   11 1    
    15    8    9 1    
    16    8   10 1    
    17   11   12 1    
    18   12   13 1    
    19   13   14 2    
    20   13   15 1    
    21   15   45 1    
    22   16   17 1    
    23   16   20 1    
    24   17   18 1    
    25   18   19 2    
    26   18   21 1    
    27   19   20 1    
    28   19   22 1    
    29   22   23 2    
    30   24   25 2    
    31   24   28 1    
    32   25   26 1    
    33   26   27 2    
    34   26   29 1    
    35   27   28 1    
    36   27   30 1    
    37   30   31 1    
    38   32   33 1    
    39   32   36 1    
    40   33   34 2    
    41   34   35 1    
    42   34   37 1    
    43   35   36 2    
    44   35   38 1    
    45   38   39 2    
    46   38   40 1    
    47   40   41 1    
    48   41   42 2    
    49   41   43 1    
    50   43   44 1    
    51   45   46 1    
    52   46   47 2    
    53   47   48 1    
    54   47   49 1    
    55   49   50 1    
    56   50   51 1    
    57   51   52 1    
    58   52   53 1    
    59   52   54 1    
    60   54   55 1    
    61   55   56 1    
    62   56   57 1    
    63   57   58 1    
    64   57   59 1    
    65   59   60 1    
    66   60   61 1    
    67   61   62 1    
    68   62   63 1    
    69   62   64 1    
@<TRIPOS>SUBSTRUCTURE
     1 PHO408      1 GROUP   
@<TRIPOS>SET

