#    Name: 6mqq_2_0JO_CAVITY_N1_4
#    Modification time : Fri May 22 19:28:31 2020

@<TRIPOS>MOLECULE
6mqq_2_0JO_CAVITY_N1_4
   46     0     6     0     0
SMALL
NO_CHARGES


@<TRIPOS>ATOM
      1 OG         -9.4500  -42.5700   14.4600 O.3       1 SER1        0.0000 
      2 OG         -6.0800  -45.3200   15.6300 O.3       1 SER1        0.0000 
      3 OG        -11.6400  -44.6700   17.7900 O.3       1 SER1        0.0000 
      4 OG         -5.5100  -46.3100   17.4200 O.3       1 SER1        0.0000 
      5 OG         -5.5200  -44.8800   16.9500 O.3       1 SER1        0.0000 
      6 OG         -6.9000  -46.1400   17.9600 O.3       1 SER1        0.0000 
      7 OG         -3.5700  -44.6100   17.7300 O.3       1 SER1        0.0000 
      8 OG         -3.5800  -43.1800   17.2700 O.3       1 SER1        0.0000 
      9 O         -10.0200  -43.0100   13.1400 O.2       2 ALA2        0.0000 
     10 O          -9.6900  -44.3900   18.5700 O.2       2 ALA2        0.0000 
     11 OD1       -10.0000  -44.4300   13.6100 O.co2     3 ASP3        0.0000 
     12 OD1        -8.0500  -44.1600   14.3900 O.co2     3 ASP3        0.0000 
     13 OD1        -9.4400  -44.0000   14.9300 O.co2     3 ASP3        0.0000 
     14 OD1       -10.8300  -43.8400   15.4700 O.co2     3 ASP3        0.0000 
     15 OD1        -7.4600  -46.5800   16.6400 O.co2     3 ASP3        0.0000 
     16 OD1        -7.4700  -45.1500   16.1700 O.co2     3 ASP3        0.0000 
     17 OD1        -8.8600  -44.9900   16.7100 O.co2     3 ASP3        0.0000 
     18 OD1        -8.2900  -45.9800   18.5000 O.co2     3 ASP3        0.0000 
     19 OD1       -11.0800  -44.2300   19.1100 O.co2     3 ASP3        0.0000 
     20 OD1        -4.9400  -45.8700   18.7400 O.co2     3 ASP3        0.0000 
     21 OD1        -6.3300  -45.7100   19.2800 O.co2     3 ASP3        0.0000 
     22 OD1        -4.3900  -44.0100   19.5900 O.co2     3 ASP3        0.0000 
     23 NZ        -10.8400  -42.4100   15.0000 N.4       4 LYS4        0.0000 
     24 NZ        -12.2300  -42.2500   15.5400 N.4       4 LYS4        0.0000 
     25 NZ        -11.6700  -41.8100   16.8600 N.4       4 LYS4        0.0000 
     26 NZ        -13.0500  -43.0800   17.8600 N.4       4 LYS4        0.0000 
     27 CZ         -7.4900  -43.7300   15.7100 C.ar      5 PHE5        0.0000 
     28 CZ         -8.8800  -43.5600   16.2500 C.ar      5 PHE5        0.0000 
     29 CZ        -10.2700  -43.4000   16.7900 C.ar      5 PHE5        0.0000 
     30 CZ        -10.2800  -41.9800   16.3200 C.ar      5 PHE5        0.0000 
     31 CZ         -4.1200  -46.4700   16.8800 C.ar      5 PHE5        0.0000 
     32 CZ         -5.5300  -43.4500   16.4900 C.ar      5 PHE5        0.0000 
     33 CZ         -6.9100  -44.7200   17.4900 C.ar      5 PHE5        0.0000 
     34 CZ         -8.3000  -44.5600   18.0300 C.ar      5 PHE5        0.0000 
     35 CZ         -9.7000  -42.9700   18.1100 C.ar      5 PHE5        0.0000 
     36 CZ        -11.0900  -42.8000   18.6500 C.ar      5 PHE5        0.0000 
     37 CZ         -4.9600  -44.4500   18.2700 C.ar      5 PHE5        0.0000 
     38 CZ         -4.9700  -43.0200   17.8100 C.ar      5 PHE5        0.0000 
     39 CZ         -6.3500  -44.2800   18.8100 C.ar      5 PHE5        0.0000 
     40 CA        -11.3900  -44.2700   14.1400 C.3       6 GLY6        0.0000 
     41 CA        -11.4100  -42.8500   13.6800 C.3       6 GLY6        0.0000 
     42 CA        -12.2200  -43.6700   16.0000 C.3       6 GLY6        0.0000 
     43 CA        -10.2500  -44.8300   17.2500 C.3       6 GLY6        0.0000 
     44 CA        -11.6600  -43.2400   17.3300 C.3       6 GLY6        0.0000 
     45 CA         -3.5500  -46.0300   18.2000 C.3       6 GLY6        0.0000 
     46 CA         -3.0000  -44.1700   19.0500 C.3       6 GLY6        0.0000 
@<TRIPOS>BOND
@<TRIPOS>SUBSTRUCTURE
     1 SER1        1 GROUP   
     2 ALA2        9 GROUP   
     3 ASP3       11 GROUP   
     4 LYS4       23 GROUP   
     5 PHE5       27 GROUP   
     6 GLY6       40 GROUP   
@<TRIPOS>SET

