#    Name: 6mqq_2_0JO
#    Modification time : Fri May 22 19:28:30 2020

@<TRIPOS>MOLECULE
6mqq_2_0JO
   21    21     1     0     0
SMALL
NO_CHARGES


@<TRIPOS>ATOM
      1 O          -5.2500  -46.6990   18.9670 O.co2     1 0JO1604     0.0000 
      2 C          -6.3640  -46.1490   18.9630 C.2       1 0JO1604     0.0000 
      3 OXT        -7.1040  -45.9990   19.9610 O.co2     1 0JO1604     0.0000 
      4 CA         -6.8500  -45.5840   17.6580 C.2       1 0JO1604     0.0000 
      5 CB         -6.1360  -45.6590   16.5560 C.2       1 0JO1604     0.0000 
      6 N          -8.0700  -44.9100   17.6390 N.2       1 0JO1604     0.0000 
      7 C4A        -8.5620  -44.4230   16.5520 C.2       1 0JO1604     0.0000 
      8 C4         -9.8310  -43.6940   16.6220 C.ar      1 0JO1604     0.0000 
      9 C3        -10.5610  -43.6410   17.7720 C.ar      1 0JO1604     0.0000 
     10 O3        -10.2130  -44.2480   18.9010 O.3       1 0JO1604     0.0000 
     11 C2        -11.7370  -42.9440   17.8190 C.ar      1 0JO1604     0.0000 
     12 C2A       -12.5270  -42.8890   19.0270 C.3       1 0JO1604     0.0000 
     13 N1        -12.2150  -42.2810   16.7820 N.ar      1 0JO1604     0.0000 
     14 C6        -11.5100  -42.3320   15.6870 C.ar      1 0JO1604     0.0000 
     15 C5        -10.3210  -43.0100   15.5440 C.ar      1 0JO1604     0.0000 
     16 C5A        -9.6870  -42.9390   14.2460 C.3       1 0JO1604     0.0000 
     17 OP4       -10.0850  -43.9110   13.5030 O.3       1 0JO1604     0.0000 
     18 P          -9.1400  -44.4310   12.3200 P.3       1 0JO1604     0.0000 
     19 OP3        -7.9920  -44.8580   13.1700 O.co2     1 0JO1604     0.0000 
     20 OP1       -10.0230  -45.4790   11.7740 O.co2     1 0JO1604     0.0000 
     21 OP2        -8.9430  -43.2420   11.4750 O.co2     1 0JO1604     0.0000 
@<TRIPOS>BOND
     1    1    2 ar   
     2    2    3 ar   
     3    2    4 1    
     4    4    5 2    
     5    4    6 1    
     6    6    7 2    
     7    7    8 1    
     8    8    9 ar   
     9    8   15 ar   
    10    9   10 1    
    11    9   11 ar   
    12   11   12 1    
    13   11   13 ar   
    14   13   14 ar   
    15   14   15 ar   
    16   15   16 1    
    17   16   17 1    
    18   17   18 1    
    19   18   19 ar   
    20   18   20 ar   
    21   18   21 ar   
@<TRIPOS>SUBSTRUCTURE
     1 0JO1604     1 GROUP   
@<TRIPOS>SET

