#    Name: 5oel_2_1W6
#    Modification time : Fri May 22 19:21:47 2020

@<TRIPOS>MOLECULE
5oel_2_1W6
   25    27     1     0     0
SMALL
NO_CHARGES


@<TRIPOS>ATOM
      1 O12       -23.6740  -24.1420    2.4260 O.2       1 1W6502      0.0000 
      2 C12       -24.1410  -24.4080    3.5220 C.2       1 1W6502      0.0000 
      3 C26       -24.9460  -23.3800    4.2410 C.2       1 1W6502      0.0000 
      4 S27       -25.0360  -23.2550    5.9580 S.3       1 1W6502      0.0000 
      5 C28       -26.0900  -21.9420    5.7970 C.ar      1 1W6502      0.0000 
      6 C34       -26.6320  -21.2540    6.8820 C.ar      1 1W6502      0.0000 
      7 C33       -27.4890  -20.1830    6.6210 C.ar      1 1W6502      0.0000 
      8 C32       -27.7870  -19.8220    5.3030 C.ar      1 1W6502      0.0000 
      9 C31       -27.2330  -20.5280    4.2280 C.ar      1 1W6502      0.0000 
     10 C29       -26.3700  -21.6010    4.4720 C.ar      1 1W6502      0.0000 
     11 N30       -25.7140  -22.4290    3.6130 N.2       1 1W6502      0.0000 
     12 N13       -23.9770  -25.6760    4.1750 N.am      1 1W6502      0.0000 
     13 C14       -23.2660  -26.8290    3.6910 C.2       1 1W6502      0.0000 
     14 S15       -22.8690  -27.2320    2.0470 S.3       1 1W6502      0.0000 
     15 C16       -22.1170  -28.6660    2.4540 C.2       1 1W6502      0.0000 
     16 C17       -22.1410  -28.8780    3.7920 C.2       1 1W6502      0.0000 
     17 C18       -22.7780  -27.8770    4.5680 C.2       1 1W6502      0.0000 
     18 C19       -22.9280  -27.8990    6.0680 C.2       1 1W6502      0.0000 
     19 O19       -22.8860  -28.9810    6.6400 O.2       1 1W6502      0.0000 
     20 N20       -22.8900  -26.6830    6.8390 N.am      1 1W6502      0.0000 
     21 C21       -23.2900  -26.5880    8.2210 C.2       1 1W6502      0.0000 
     22 O22       -22.4790  -26.9100    9.0840 O.2       1 1W6502      0.0000 
     23 O21       -24.5960  -26.2980    8.5750 O.3       1 1W6502      0.0000 
     24 C37       -24.9500  -25.0940    9.1600 C.3       1 1W6502      0.0000 
     25 C38       -26.4280  -25.0210    9.3660 C.3       1 1W6502      0.0000 
@<TRIPOS>BOND
     1    1    2 2    
     2    2    3 1    
     3    2   12 am   
     4    3    4 1    
     5    3   11 2    
     6    4    5 1    
     7    5    6 ar   
     8    5   10 ar   
     9    6    7 ar   
    10    7    8 ar   
    11    8    9 ar   
    12    9   10 ar   
    13   10   11 1    
    14   12   13 1    
    15   13   14 1    
    16   13   17 2    
    17   14   15 1    
    18   15   16 2    
    19   16   17 1    
    20   17   18 1    
    21   18   19 2    
    22   18   20 am   
    23   20   21 am   
    24   21   22 2    
    25   21   23 1    
    26   23   24 1    
    27   24   25 1    
@<TRIPOS>SUBSTRUCTURE
     1 1W6502      1 GROUP   
@<TRIPOS>SET

