#    Name: 5oel_1_1W6
#    Modification time : Fri May 22 19:21:43 2020

@<TRIPOS>MOLECULE
5oel_1_1W6
   25    27     1     0     0
SMALL
NO_CHARGES


@<TRIPOS>ATOM
      1 O12        13.3760  -17.0400   39.0130 O.2       1 1W6502      0.0000 
      2 C12        13.4210  -17.8640   38.1170 C.2       1 1W6502      0.0000 
      3 C26        14.3030  -17.5930   36.9600 C.2       1 1W6502      0.0000 
      4 S27        14.2500  -18.5150   35.5110 S.3       1 1W6502      0.0000 
      5 C28        15.4990  -17.5560   34.8860 C.ar      1 1W6502      0.0000 
      6 C34        16.0400  -17.7400   33.6160 C.ar      1 1W6502      0.0000 
      7 C33        17.0600  -16.8810   33.2180 C.ar      1 1W6502      0.0000 
      8 C32        17.5170  -15.8800   34.0730 C.ar      1 1W6502      0.0000 
      9 C31        16.9710  -15.7130   35.3460 C.ar      1 1W6502      0.0000 
     10 C29        15.9450  -16.5620   35.7610 C.ar      1 1W6502      0.0000 
     11 N30        15.2520  -16.6050   36.9300 N.2       1 1W6502      0.0000 
     12 N13        12.6910  -19.1000   38.0840 N.am      1 1W6502      0.0000 
     13 C14        11.7980  -19.6230   39.0750 C.2       1 1W6502      0.0000 
     14 S15        11.4840  -19.0250   40.6760 S.3       1 1W6502      0.0000 
     15 C16        10.4030  -20.2390   41.0510 C.2       1 1W6502      0.0000 
     16 C17        10.2490  -21.0970   40.0130 C.2       1 1W6502      0.0000 
     17 C18        11.0140  -20.8180   38.8560 C.2       1 1W6502      0.0000 
     18 C19        11.0000  -21.6270   37.5890 C.2       1 1W6502      0.0000 
     19 O19        10.1110  -22.4680   37.4930 O.2       1 1W6502      0.0000 
     20 N20        11.6020  -21.0930   36.3880 N.am      1 1W6502      0.0000 
     21 C21        12.0570  -21.8710   35.2610 C.2       1 1W6502      0.0000 
     22 O22        11.3930  -22.8450   34.9170 O.2       1 1W6502      0.0000 
     23 O21        13.2990  -21.6360   34.6840 O.3       1 1W6502      0.0000 
     24 C37        13.4870  -21.4440   33.3240 C.3       1 1W6502      0.0000 
     25 C38        14.9340  -21.2290   33.0290 C.3       1 1W6502      0.0000 
@<TRIPOS>BOND
     1    1    2 2    
     2    2    3 1    
     3    2   12 am   
     4    3    4 1    
     5    3   11 2    
     6    4    5 1    
     7    5    6 ar   
     8    5   10 ar   
     9    6    7 ar   
    10    7    8 ar   
    11    8    9 ar   
    12    9   10 ar   
    13   10   11 1    
    14   12   13 1    
    15   13   14 1    
    16   13   17 2    
    17   14   15 1    
    18   15   16 2    
    19   16   17 1    
    20   17   18 1    
    21   18   19 2    
    22   18   20 am   
    23   20   21 am   
    24   21   22 2    
    25   21   23 1    
    26   23   24 1    
    27   24   25 1    
@<TRIPOS>SUBSTRUCTURE
     1 1W6502      1 GROUP   
@<TRIPOS>SET

