#    Name: 6ax8_1_ME8
#    Modification time : Fri May 22 19:28:28 2020

@<TRIPOS>MOLECULE
6ax8_1_ME8
   31    33     1     0     0
SMALL
NO_CHARGES


@<TRIPOS>ATOM
      1 O         269.7210  203.5240   -1.1820 O.2       1 ME8801      0.0000 
      2 N1        276.2760  209.5730    4.6520 N.ar      1 ME8801      0.0000 
      3 O1        269.4500  204.9850   -2.9230 O.3       1 ME8801      0.0000 
      4 P1        270.4440  206.1820   -2.5570 P.3       1 ME8801      0.0000 
      5 C2        276.7880  208.3760    4.3680 C.ar      1 ME8801      0.0000 
      6 N2        269.0610  203.0160   -4.5370 N.4       1 ME8801      0.0000 
      7 N3        276.2870  207.5430    3.4590 N.ar      1 ME8801      0.0000 
      8 C4        275.2100  207.8810    2.7420 C.ar      1 ME8801      0.0000 
      9 C5        274.5990  209.1740    2.9850 C.ar      1 ME8801      0.0000 
     10 C6        275.2070  210.0360    4.0140 C.ar      1 ME8801      0.0000 
     11 N6        274.7220  211.2490    4.3150 N.pl3     1 ME8801      0.0000 
     12 N7        273.5640  209.2460    2.1460 N.2       1 ME8801      0.0000 
     13 C8        273.5140  208.1080    1.4310 C.2       1 ME8801      0.0000 
     14 C9        269.4770  203.6690   -2.3450 C.2       1 ME8801      0.0000 
     15 N9        274.4980  207.2940    1.7980 N.pl3     1 ME8801      0.0000 
     16 CA        269.1610  202.5060   -3.2070 C.3       1 ME8801      0.0000 
     17 CB        270.2680  201.4710   -3.1720 C.3       1 ME8801      0.0000 
     18 SD        271.3560  199.2330   -4.0620 S.3       1 ME8801      0.0000 
     19 CE        270.7400  197.8510   -4.9010 C.3       1 ME8801      0.0000 
     20 CG        270.1560  200.4670   -4.2970 C.3       1 ME8801      0.0000 
     21 C1'       274.7480  205.9680    1.2310 C.3       1 ME8801      0.0000 
     22 O1S       270.5710  206.9880   -3.8040 O.co2     1 ME8801      0.0000 
     23 C2'       273.6260  205.0170    1.5800 C.3       1 ME8801      0.0000 
     24 O2'       274.0030  204.0250    2.5200 O.3       1 ME8801      0.0000 
     25 O2S       270.0060  206.9180   -1.3210 O.co2     1 ME8801      0.0000 
     26 C3'       273.3620  204.2760    0.3120 C.3       1 ME8801      0.0000 
     27 O3'       274.2420  203.1710    0.3060 O.3       1 ME8801      0.0000 
     28 C4'       273.7650  205.2360   -0.7650 C.3       1 ME8801      0.0000 
     29 O4'       274.6920  206.1260   -0.1710 O.3       1 ME8801      0.0000 
     30 C5'       272.5560  206.0420   -1.1550 C.3       1 ME8801      0.0000 
     31 O5'       271.8280  205.4650   -2.2250 O.3       1 ME8801      0.0000 
@<TRIPOS>BOND
     1    9   10 ar   
     2    9   12 1    
     3   10   11 1    
     4   12   13 2    
     5   13   15 1    
     6   14   16 1    
     7   15   21 1    
     8   16   17 1    
     9   17   20 1    
    10   18   19 1    
    11   18   20 1    
    12   21   23 1    
    13   21   29 1    
    14   23   24 1    
    15   23   26 1    
    16   26   27 1    
    17   26   28 1    
    18   28   29 1    
    19   28   30 1    
    20   30   31 1    
    21    1   14 2    
    22    2    5 ar   
    23    2   10 ar   
    24    3    4 1    
    25    3   14 1    
    26    4   22 ar   
    27    4   25 ar   
    28    4   31 1    
    29    5    7 ar   
    30    6   16 1    
    31    7    8 ar   
    32    8    9 ar   
    33    8   15 1    
@<TRIPOS>SUBSTRUCTURE
     1 ME8801      1 GROUP   
@<TRIPOS>SET

