#    Name: 6ax8_1_ME8_CAVITY_N1_6
#    Modification time : Fri May 22 19:28:30 2020

@<TRIPOS>MOLECULE
6ax8_1_ME8_CAVITY_N1_6
  139     0     7     0     0
SMALL
NO_CHARGES


@<TRIPOS>ATOM
      1 OG        269.7100  207.5400   -2.4300 O.3       1 SER1        0.0000 
      2 OG        271.6000  205.9200   -1.6900 O.3       1 SER1        0.0000 
      3 OG        271.6100  206.7400   -2.9400 O.3       1 SER1        0.0000 
      4 OG        270.6600  208.3000   -0.1300 O.3       1 SER1        0.0000 
      5 OG        272.5600  207.5000   -0.6500 O.3       1 SER1        0.0000 
      6 OG        272.0800  207.8700    1.3900 O.3       1 SER1        0.0000 
      7 OG        271.6100  209.0600    2.1600 O.3       1 SER1        0.0000 
      8 OG        273.5100  208.2600    1.6500 O.3       1 SER1        0.0000 
      9 OG        273.0400  209.4500    2.4300 O.3       1 SER1        0.0000 
     10 OG        272.5700  210.6500    3.2000 O.3       1 SER1        0.0000 
     11 OG        274.4600  209.8400    2.6900 O.3       1 SER1        0.0000 
     12 OG        273.9900  211.0400    3.4700 O.3       1 SER1        0.0000 
     13 N         266.3800  205.4900    1.6000 N.am      2 ALA2        0.0000 
     14 N         270.6500  204.3300   -2.7300 N.am      2 ALA2        0.0000 
     15 O         270.1800  206.3500   -3.2000 O.2       2 ALA2        0.0000 
     16 N         272.5400  203.5300   -3.2500 N.am      2 ALA2        0.0000 
     17 N         272.0700  204.7200   -2.4700 N.am      2 ALA2        0.0000 
     18 N         270.2000  211.8200    5.7600 N.am      2 ALA2        0.0000 
     19 N         270.2000  212.6400    4.5000 N.am      2 ALA2        0.0000 
     20 N         270.2100  213.4600    3.2400 N.am      2 ALA2        0.0000 
     21 N         269.7300  213.0100    6.5300 N.am      2 ALA2        0.0000 
     22 N         272.1000  211.8400    3.9800 N.am      2 ALA2        0.0000 
     23 N         271.6200  212.2100    6.0200 N.am      2 ALA2        0.0000 
     24 N         271.6300  213.0300    4.7600 N.am      2 ALA2        0.0000 
     25 N         271.6300  213.8500    3.5100 N.am      2 ALA2        0.0000 
     26 N         275.4000  207.4600    1.1300 N.am      2 ALA2        0.0000 
     27 N         273.5200  211.4100    5.5000 N.am      2 ALA2        0.0000 
     28 O         273.0500  212.6000    6.2800 O.2       2 ALA2        0.0000 
     29 O         275.8800  209.4100    4.2000 O.2       2 ALA2        0.0000 
     30 N         275.4100  210.6100    4.9800 N.am      2 ALA2        0.0000 
     31 N         274.9400  212.6200    4.5100 N.am      2 ALA2        0.0000 
     32 OD1       266.3800  206.3100    0.3400 O.co2     3 ASP3        0.0000 
     33 OD1       267.8100  206.7000    0.6000 O.co2     3 ASP3        0.0000 
     34 OD1       267.3400  207.8900    1.3800 O.co2     3 ASP3        0.0000 
     35 NZ        266.8400  203.4700    2.0700 N.4       4 LYS4        0.0000 
     36 NZ        266.3700  204.6700    2.8500 N.4       4 LYS4        0.0000 
     37 NZ        265.9100  206.6800    2.3700 N.4       4 LYS4        0.0000 
     38 NZ        268.2700  204.6800    1.0800 N.4       4 LYS4        0.0000 
     39 NZ        267.7900  204.2300    4.3700 N.4       4 LYS4        0.0000 
     40 NZ        267.8000  205.0600    3.1100 N.4       4 LYS4        0.0000 
     41 NZ        267.8000  205.8800    1.8600 N.4       4 LYS4        0.0000 
     42 NZ        267.3300  206.2500    3.8900 N.4       4 LYS4        0.0000 
     43 NZ        267.3300  207.0700    2.6400 N.4       4 LYS4        0.0000 
     44 NZ        266.8600  208.2600    3.4100 N.4       4 LYS4        0.0000 
     45 NZ        270.1700  203.8800    0.5600 N.4       4 LYS4        0.0000 
     46 NZ        269.7000  205.9000    0.0800 N.4       4 LYS4        0.0000 
     47 NZ        269.2300  206.2700    2.1200 N.4       4 LYS4        0.0000 
     48 NZ        269.2300  207.0900    0.8600 N.4       4 LYS4        0.0000 
     49 NZ        268.7500  206.6400    4.1500 N.4       4 LYS4        0.0000 
     50 NZ        268.7600  207.4600    2.9000 N.4       4 LYS4        0.0000 
     51 NZ        271.5900  204.2700    0.8200 N.4       4 LYS4        0.0000 
     52 NZ        271.1300  206.2900    0.3500 N.4       4 LYS4        0.0000 
     53 NZ        270.6500  206.6600    2.3800 N.4       4 LYS4        0.0000 
     54 NZ        270.1800  207.0300    4.4100 N.4       4 LYS4        0.0000 
     55 NZ        270.1800  207.8500    3.1600 N.4       4 LYS4        0.0000 
     56 NZ        273.4900  204.2900   -0.9500 N.4       4 LYS4        0.0000 
     57 NZ        273.5000  205.1100   -2.2100 N.4       4 LYS4        0.0000 
     58 NZ        273.0200  204.6600    1.0800 N.4       4 LYS4        0.0000 
     59 NZ        272.5500  205.8600    1.8600 N.4       4 LYS4        0.0000 
     60 NZ        272.0800  207.0500    2.6400 N.4       4 LYS4        0.0000 
     61 NZ        274.9100  203.8600    0.5700 N.4       4 LYS4        0.0000 
     62 NZ        274.4400  205.0500    1.3400 N.4       4 LYS4        0.0000 
     63 NZ        274.4500  205.8800    0.0900 N.4       4 LYS4        0.0000 
     64 NZ        273.9700  205.4300    3.3800 N.4       4 LYS4        0.0000 
     65 NZ        275.8700  206.2700    0.3500 N.4       4 LYS4        0.0000 
     66 CZ        266.8500  204.2900    0.8200 C.ar      5 PHE5        0.0000 
     67 CZ        266.8500  205.1200   -0.4400 C.ar      5 PHE5        0.0000 
     68 CZ        269.2200  203.9400   -2.9900 C.ar      5 PHE5        0.0000 
     69 CZ        268.7500  204.3100   -0.9600 C.ar      5 PHE5        0.0000 
     70 CZ        268.7500  205.1300   -2.2100 C.ar      5 PHE5        0.0000 
     71 CZ        268.2800  205.5100   -0.1800 C.ar      5 PHE5        0.0000 
     72 CZ        268.2800  206.3300   -1.4300 C.ar      5 PHE5        0.0000 
     73 CZ        270.1800  205.5200   -1.9500 C.ar      5 PHE5        0.0000 
     74 CZ        270.1700  206.2100    5.6700 C.ar      5 PHE5        0.0000 
     75 CZ        269.7100  208.2200    5.1900 C.ar      5 PHE5        0.0000 
     76 CZ        273.0300  206.3100   -1.4300 C.ar      5 PHE5        0.0000 
     77 CZ        272.0700  206.2300    3.9000 C.ar      5 PHE5        0.0000 
     78 CZ        271.6100  208.2400    3.4200 C.ar      5 PHE5        0.0000 
     79 CZ        271.1300  208.6100    5.4500 C.ar      5 PHE5        0.0000 
     80 CZ        271.1400  210.2600    2.9400 C.ar      5 PHE5        0.0000 
     81 CZ        270.6600  208.9900    7.4900 C.ar      5 PHE5        0.0000 
     82 CZ        270.6800  212.2700    2.4700 C.ar      5 PHE5        0.0000 
     83 CZ        274.4500  206.7000   -1.1700 C.ar      5 PHE5        0.0000 
     84 CZ        273.9800  207.8900   -0.3900 C.ar      5 PHE5        0.0000 
     85 CZ        273.5000  207.4400    2.9000 C.ar      5 PHE5        0.0000 
     86 CZ        273.0300  208.6300    3.6800 C.ar      5 PHE5        0.0000 
     87 CZ        272.5600  209.0000    5.7100 C.ar      5 PHE5        0.0000 
     88 CZ        272.5600  209.8300    4.4600 C.ar      5 PHE5        0.0000 
     89 CZ        272.0800  209.3800    7.7500 C.ar      5 PHE5        0.0000 
     90 CZ        272.0900  210.2000    6.4900 C.ar      5 PHE5        0.0000 
     91 CZ        272.1000  212.6600    2.7300 C.ar      5 PHE5        0.0000 
     92 CZ        275.8600  205.4400    1.6100 C.ar      5 PHE5        0.0000 
     93 CZ        275.3900  205.8200    3.6400 C.ar      5 PHE5        0.0000 
     94 CZ        275.3900  206.6400    2.3800 C.ar      5 PHE5        0.0000 
     95 CZ        274.9200  207.8300    3.1600 C.ar      5 PHE5        0.0000 
     96 CZ        274.4600  209.0200    3.9400 C.ar      5 PHE5        0.0000 
     97 CZ        273.9900  210.2200    4.7200 C.ar      5 PHE5        0.0000 
     98 CZ        273.5100  210.5900    6.7500 C.ar      5 PHE5        0.0000 
     99 CZ        273.5300  213.0500    2.9900 C.ar      5 PHE5        0.0000 
    100 CZ        276.8200  207.0300    2.6500 C.ar      5 PHE5        0.0000 
    101 CZ        276.3400  207.4000    4.6800 C.ar      5 PHE5        0.0000 
    102 CA        268.7400  203.4900    0.3000 C.3       6 GLY6        0.0000 
    103 CA        271.1100  202.3200   -2.2500 C.3       6 GLY6        0.0000 
    104 CA        270.6400  203.5100   -1.4700 C.3       6 GLY6        0.0000 
    105 CA        270.6500  205.1500   -3.9800 C.3       6 GLY6        0.0000 
    106 CA        272.5400  202.7100   -1.9900 C.3       6 GLY6        0.0000 
    107 CA        272.0600  203.0800    0.0400 C.3       6 GLY6        0.0000 
    108 CA        272.0700  203.9000   -1.2100 C.3       6 GLY6        0.0000 
    109 CA        272.0800  205.5400   -3.7200 C.3       6 GLY6        0.0000 
    110 CA        273.4900  203.4700    0.3000 C.3       6 GLY6        0.0000 
    111 CA        270.1900  211.0000    7.0100 C.3       6 GLY6        0.0000 
    112 CA        274.4400  204.2300    2.6000 C.3       6 GLY6        0.0000 
    113 CA        271.6100  210.5700    8.5300 C.3       6 GLY6        0.0000 
    114 CA        271.6200  211.3900    7.2700 C.3       6 GLY6        0.0000 
    115 CA        274.9300  208.6500    1.9100 C.3       6 GLY6        0.0000 
    116 CA        273.5100  209.7700    8.0100 C.3       6 GLY6        0.0000 
    117 CA        273.5200  212.2300    4.2400 C.3       6 GLY6        0.0000 
    118 CA        273.0400  210.9600    8.7900 C.3       6 GLY6        0.0000 
    119 CA        273.0500  213.4200    5.0200 C.3       6 GLY6        0.0000 
    120 CA        276.3500  208.2200    3.4200 C.3       6 GLY6        0.0000 
    121 CA        275.8700  208.5900    5.4600 C.3       6 GLY6        0.0000 
    122 CA        275.4100  211.4300    3.7300 C.3       6 GLY6        0.0000 
    123 DU        270.1700  204.7000   -0.6900 H         7 CUB7        0.0000 
    124 DU        269.7100  206.7200   -1.1700 H         7 CUB7        0.0000 
    125 DU        268.2900  208.6500    3.6800 H         7 CUB7        0.0000 
    126 DU        271.6000  205.0900   -0.4300 H         7 CUB7        0.0000 
    127 DU        269.7100  209.0400    3.9400 H         7 CUB7        0.0000 
    128 DU        269.7200  209.8700    2.6800 H         7 CUB7        0.0000 
    129 DU        269.2400  209.4200    5.9700 H         7 CUB7        0.0000 
    130 DU        269.2500  211.0600    3.4600 H         7 CUB7        0.0000 
    131 DU        273.0200  205.4800   -0.1700 H         7 CUB7        0.0000 
    132 DU        272.5500  206.6800    0.6100 H         7 CUB7        0.0000 
    133 DU        271.1400  209.4400    4.2000 H         7 CUB7        0.0000 
    134 DU        270.6600  209.8100    6.2300 H         7 CUB7        0.0000 
    135 DU        270.6700  210.6300    4.9800 H         7 CUB7        0.0000 
    136 DU        270.6700  211.4500    3.7200 H         7 CUB7        0.0000 
    137 DU        273.9700  206.2500    2.1200 H         7 CUB7        0.0000 
    138 DU        273.9800  207.0700    0.8700 H         7 CUB7        0.0000 
    139 DU        272.0900  211.0200    5.2400 H         7 CUB7        0.0000 
@<TRIPOS>BOND
@<TRIPOS>SUBSTRUCTURE
     1 SER1        1 GROUP   
     2 ALA2       13 GROUP   
     3 ASP3       32 GROUP   
     4 LYS4       35 GROUP   
     5 PHE5       66 GROUP   
     6 GLY6      102 GROUP   
     7 CUB7      123 GROUP   
@<TRIPOS>SET

