#    Name: 6ax8_1_ME8_CAVITY_N1_4
#    Modification time : Fri May 22 19:28:30 2020

@<TRIPOS>MOLECULE
6ax8_1_ME8_CAVITY_N1_4
  103     0     7     0     0
SMALL
NO_CHARGES


@<TRIPOS>ATOM
      1 OG        269.7100  207.5400   -2.4300 O.3       1 SER1        0.0000 
      2 OG        271.6000  205.9200   -1.6900 O.3       1 SER1        0.0000 
      3 OG        271.6100  206.7400   -2.9400 O.3       1 SER1        0.0000 
      4 OG        270.6600  208.3000   -0.1300 O.3       1 SER1        0.0000 
      5 OG        272.5600  207.5000   -0.6500 O.3       1 SER1        0.0000 
      6 OG        272.0800  207.8700    1.3900 O.3       1 SER1        0.0000 
      7 OG        271.6100  209.0600    2.1600 O.3       1 SER1        0.0000 
      8 OG        273.5100  208.2600    1.6500 O.3       1 SER1        0.0000 
      9 OG        273.0400  209.4500    2.4300 O.3       1 SER1        0.0000 
     10 OG        272.5700  210.6500    3.2000 O.3       1 SER1        0.0000 
     11 OG        274.4600  209.8400    2.6900 O.3       1 SER1        0.0000 
     12 OG        273.9900  211.0400    3.4700 O.3       1 SER1        0.0000 
     13 N         270.6500  204.3300   -2.7300 N.am      2 ALA2        0.0000 
     14 O         270.1800  206.3500   -3.2000 O.2       2 ALA2        0.0000 
     15 N         272.5400  203.5300   -3.2500 N.am      2 ALA2        0.0000 
     16 N         272.0700  204.7200   -2.4700 N.am      2 ALA2        0.0000 
     17 N         272.1000  211.8400    3.9800 N.am      2 ALA2        0.0000 
     18 N         271.6200  212.2100    6.0200 N.am      2 ALA2        0.0000 
     19 N         271.6300  213.0300    4.7600 N.am      2 ALA2        0.0000 
     20 N         275.4000  207.4600    1.1300 N.am      2 ALA2        0.0000 
     21 N         273.5200  211.4100    5.5000 N.am      2 ALA2        0.0000 
     22 O         273.0500  212.6000    6.2800 O.2       2 ALA2        0.0000 
     23 O         275.8800  209.4100    4.2000 O.2       2 ALA2        0.0000 
     24 N         275.4100  210.6100    4.9800 N.am      2 ALA2        0.0000 
     25 N         274.9400  212.6200    4.5100 N.am      2 ALA2        0.0000 
     26 OD1       267.8100  206.7000    0.6000 O.co2     3 ASP3        0.0000 
     27 OD1       267.3400  207.8900    1.3800 O.co2     3 ASP3        0.0000 
     28 NZ        268.2700  204.6800    1.0800 N.4       4 LYS4        0.0000 
     29 NZ        270.1700  203.8800    0.5600 N.4       4 LYS4        0.0000 
     30 NZ        269.7000  205.9000    0.0800 N.4       4 LYS4        0.0000 
     31 NZ        269.2300  206.2700    2.1200 N.4       4 LYS4        0.0000 
     32 NZ        269.2300  207.0900    0.8600 N.4       4 LYS4        0.0000 
     33 NZ        271.5900  204.2700    0.8200 N.4       4 LYS4        0.0000 
     34 NZ        271.1300  206.2900    0.3500 N.4       4 LYS4        0.0000 
     35 NZ        270.6500  206.6600    2.3800 N.4       4 LYS4        0.0000 
     36 NZ        270.1800  207.8500    3.1600 N.4       4 LYS4        0.0000 
     37 NZ        273.4900  204.2900   -0.9500 N.4       4 LYS4        0.0000 
     38 NZ        273.5000  205.1100   -2.2100 N.4       4 LYS4        0.0000 
     39 NZ        273.0200  204.6600    1.0800 N.4       4 LYS4        0.0000 
     40 NZ        272.5500  205.8600    1.8600 N.4       4 LYS4        0.0000 
     41 NZ        272.0800  207.0500    2.6400 N.4       4 LYS4        0.0000 
     42 NZ        274.9100  203.8600    0.5700 N.4       4 LYS4        0.0000 
     43 NZ        274.4400  205.0500    1.3400 N.4       4 LYS4        0.0000 
     44 NZ        274.4500  205.8800    0.0900 N.4       4 LYS4        0.0000 
     45 NZ        273.9700  205.4300    3.3800 N.4       4 LYS4        0.0000 
     46 NZ        275.8700  206.2700    0.3500 N.4       4 LYS4        0.0000 
     47 CZ        266.8500  204.2900    0.8200 C.ar      5 PHE5        0.0000 
     48 CZ        266.8500  205.1200   -0.4400 C.ar      5 PHE5        0.0000 
     49 CZ        269.2200  203.9400   -2.9900 C.ar      5 PHE5        0.0000 
     50 CZ        268.7500  204.3100   -0.9600 C.ar      5 PHE5        0.0000 
     51 CZ        268.7500  205.1300   -2.2100 C.ar      5 PHE5        0.0000 
     52 CZ        268.2800  205.5100   -0.1800 C.ar      5 PHE5        0.0000 
     53 CZ        268.2800  206.3300   -1.4300 C.ar      5 PHE5        0.0000 
     54 CZ        270.1800  205.5200   -1.9500 C.ar      5 PHE5        0.0000 
     55 CZ        273.0300  206.3100   -1.4300 C.ar      5 PHE5        0.0000 
     56 CZ        272.0700  206.2300    3.9000 C.ar      5 PHE5        0.0000 
     57 CZ        271.6100  208.2400    3.4200 C.ar      5 PHE5        0.0000 
     58 CZ        271.1400  210.2600    2.9400 C.ar      5 PHE5        0.0000 
     59 CZ        274.4500  206.7000   -1.1700 C.ar      5 PHE5        0.0000 
     60 CZ        273.9800  207.8900   -0.3900 C.ar      5 PHE5        0.0000 
     61 CZ        273.5000  207.4400    2.9000 C.ar      5 PHE5        0.0000 
     62 CZ        273.0300  208.6300    3.6800 C.ar      5 PHE5        0.0000 
     63 CZ        272.5600  209.0000    5.7100 C.ar      5 PHE5        0.0000 
     64 CZ        272.5600  209.8300    4.4600 C.ar      5 PHE5        0.0000 
     65 CZ        272.0900  210.2000    6.4900 C.ar      5 PHE5        0.0000 
     66 CZ        272.1000  212.6600    2.7300 C.ar      5 PHE5        0.0000 
     67 CZ        275.8600  205.4400    1.6100 C.ar      5 PHE5        0.0000 
     68 CZ        275.3900  205.8200    3.6400 C.ar      5 PHE5        0.0000 
     69 CZ        275.3900  206.6400    2.3800 C.ar      5 PHE5        0.0000 
     70 CZ        274.9200  207.8300    3.1600 C.ar      5 PHE5        0.0000 
     71 CZ        274.4600  209.0200    3.9400 C.ar      5 PHE5        0.0000 
     72 CZ        273.9900  210.2200    4.7200 C.ar      5 PHE5        0.0000 
     73 CZ        273.5100  210.5900    6.7500 C.ar      5 PHE5        0.0000 
     74 CZ        273.5300  213.0500    2.9900 C.ar      5 PHE5        0.0000 
     75 CZ        276.8200  207.0300    2.6500 C.ar      5 PHE5        0.0000 
     76 CZ        276.3400  207.4000    4.6800 C.ar      5 PHE5        0.0000 
     77 CA        268.7400  203.4900    0.3000 C.3       6 GLY6        0.0000 
     78 CA        271.1100  202.3200   -2.2500 C.3       6 GLY6        0.0000 
     79 CA        270.6400  203.5100   -1.4700 C.3       6 GLY6        0.0000 
     80 CA        270.6500  205.1500   -3.9800 C.3       6 GLY6        0.0000 
     81 CA        272.5400  202.7100   -1.9900 C.3       6 GLY6        0.0000 
     82 CA        272.0600  203.0800    0.0400 C.3       6 GLY6        0.0000 
     83 CA        272.0700  203.9000   -1.2100 C.3       6 GLY6        0.0000 
     84 CA        272.0800  205.5400   -3.7200 C.3       6 GLY6        0.0000 
     85 CA        273.4900  203.4700    0.3000 C.3       6 GLY6        0.0000 
     86 CA        274.4400  204.2300    2.6000 C.3       6 GLY6        0.0000 
     87 CA        274.9300  208.6500    1.9100 C.3       6 GLY6        0.0000 
     88 CA        273.5200  212.2300    4.2400 C.3       6 GLY6        0.0000 
     89 CA        273.0500  213.4200    5.0200 C.3       6 GLY6        0.0000 
     90 CA        276.3500  208.2200    3.4200 C.3       6 GLY6        0.0000 
     91 CA        275.8700  208.5900    5.4600 C.3       6 GLY6        0.0000 
     92 CA        275.4100  211.4300    3.7300 C.3       6 GLY6        0.0000 
     93 DU        270.1700  204.7000   -0.6900 H         7 CUB7        0.0000 
     94 DU        269.7100  206.7200   -1.1700 H         7 CUB7        0.0000 
     95 DU        271.6000  205.0900   -0.4300 H         7 CUB7        0.0000 
     96 DU        269.7200  209.8700    2.6800 H         7 CUB7        0.0000 
     97 DU        273.0200  205.4800   -0.1700 H         7 CUB7        0.0000 
     98 DU        272.5500  206.6800    0.6100 H         7 CUB7        0.0000 
     99 DU        271.1400  209.4400    4.2000 H         7 CUB7        0.0000 
    100 DU        270.6700  211.4500    3.7200 H         7 CUB7        0.0000 
    101 DU        273.9700  206.2500    2.1200 H         7 CUB7        0.0000 
    102 DU        273.9800  207.0700    0.8700 H         7 CUB7        0.0000 
    103 DU        272.0900  211.0200    5.2400 H         7 CUB7        0.0000 
@<TRIPOS>BOND
@<TRIPOS>SUBSTRUCTURE
     1 SER1        1 GROUP   
     2 ALA2       13 GROUP   
     3 ASP3       26 GROUP   
     4 LYS4       28 GROUP   
     5 PHE5       47 GROUP   
     6 GLY6       77 GROUP   
     7 CUB7       93 GROUP   
@<TRIPOS>SET

