#    Name: 6fel_3_ARG_SER_LEU_ALA_PRO_GLY_SEP
#    Modification time : Fri May 22 19:25:13 2020

@<TRIPOS>MOLECULE
6fel_3_ARG_SER_LEU_ALA_PRO_GLY_SEP
   45    45     7     0     0
SMALL
NO_CHARGES


@<TRIPOS>ATOM
      1 N         -27.9080  -47.1690   19.4300 N.4       1 ARG508      0.0000 
      2 CA        -27.8020  -45.7480   19.7420 C.3       1 ARG508      0.0000 
      3 C         -28.4430  -44.8900   18.6500 C.2       1 ARG508      0.0000 
      4 O         -27.8270  -44.6180   17.6170 O.2       1 ARG508      0.0000 
      5 CB        -26.3360  -45.3510   19.9350 C.3       1 ARG508      0.0000 
      6 N         -29.6840  -44.4710   18.8920 N.am      2 SER509      0.0000 
      7 CA        -30.4170  -43.6220   17.9660 C.3       2 SER509      0.0000 
      8 C         -30.0580  -42.1550   18.1870 C.2       2 SER509      0.0000 
      9 O         -29.4120  -41.7830   19.1710 O.2       2 SER509      0.0000 
     10 CB        -31.9240  -43.8190   18.1300 C.3       2 SER509      0.0000 
     11 OG        -32.2630  -45.1880   18.2630 O.3       2 SER509      0.0000 
     12 N         -30.5020  -41.3120   17.2620 N.am      3 LEU510      0.0000 
     13 CA        -30.2080  -39.8830   17.3200 C.3       3 LEU510      0.0000 
     14 C         -31.3180  -39.1240   18.0470 C.2       3 LEU510      0.0000 
     15 O         -32.4580  -39.0960   17.5870 O.2       3 LEU510      0.0000 
     16 CB        -30.0220  -39.3250   15.9080 C.3       3 LEU510      0.0000 
     17 CG        -28.5990  -39.3050   15.3460 C.3       3 LEU510      0.0000 
     18 CD1       -27.8850  -40.6350   15.5600 C.3       3 LEU510      0.0000 
     19 CD2       -28.6330  -38.9540   13.8700 C.3       3 LEU510      0.0000 
     20 N         -32.7410  -35.4800   20.2730 N.am      4 ALA512      0.0000 
     21 CA        -32.6670  -34.0240   20.2050 C.3       4 ALA512      0.0000 
     22 C         -31.5080  -33.5140   21.0630 C.2       4 ALA512      0.0000 
     23 O         -31.3640  -33.9060   22.2240 O.2       4 ALA512      0.0000 
     24 CB        -33.9810  -33.4050   20.6490 C.3       4 ALA512      0.0000 
     25 N         -30.6780  -32.6440   20.4930 N.am      5 PRO513      0.0000 
     26 CA        -29.4840  -32.1870   21.2120 C.3       5 PRO513      0.0000 
     27 C         -29.7920  -31.0550   22.1780 C.2       5 PRO513      0.0000 
     28 O         -30.6140  -30.1780   21.8990 O.2       5 PRO513      0.0000 
     29 CB        -28.5650  -31.7100   20.0830 C.3       5 PRO513      0.0000 
     30 CG        -29.5130  -31.2250   19.0390 C.3       5 PRO513      0.0000 
     31 CD        -30.7410  -32.0990   19.1260 C.3       5 PRO513      0.0000 
     32 N         -29.1070  -31.0860   23.3220 N.am      6 GLY514      0.0000 
     33 CA        -29.1430  -30.0200   24.3130 C.3       6 GLY514      0.0000 
     34 C         -30.5010  -29.4420   24.6680 C.2       6 GLY514      0.0000 
     35 O         -30.7480  -28.2540   24.4530 O.2       6 GLY514      0.0000 
     36 N         -30.9850  -38.5150   19.1840 N.am      7 SEP511      0.0000 
     37 CA        -31.9730  -37.7630   19.9560 C.3       7 SEP511      0.0000 
     38 CB        -31.8950  -38.1200   21.4510 C.3       7 SEP511      0.0000 
     39 OG        -30.7660  -37.5420   22.0930 O.3       7 SEP511      0.0000 
     40 C         -31.7920  -36.2590   19.7590 C.2       7 SEP511      0.0000 
     41 O         -30.8230  -35.8150   19.1390 O.2       7 SEP511      0.0000 
     42 P         -30.7180  -37.9150   23.6680 P.3       7 SEP511      0.0000 
     43 O1P       -30.7830  -39.5090   23.8720 O.co2     7 SEP511      0.0000 
     44 O2P       -29.3520  -37.3610   24.3170 O.co2     7 SEP511      0.0000 
     45 O3P       -31.9710  -37.2470   24.4250 O.co2     7 SEP511      0.0000 
@<TRIPOS>BOND
     1    1    2 1    
     2    2    3 1    
     3    2    5 1    
     4    3    4 2    
     5    3    6 am   
     6    6    7 1    
     7    7    8 1    
     8    7   10 1    
     9    8    9 2    
    10    8   12 am   
    11   10   11 1    
    12   12   13 1    
    13   13   14 1    
    14   13   16 1    
    15   14   15 2    
    16   14   36 du   
    17   16   17 1    
    18   17   18 1    
    19   17   19 1    
    20   20   21 1    
    21   20   40 am   
    22   21   22 1    
    23   21   24 1    
    24   22   23 2    
    25   22   25 am   
    26   25   26 1    
    27   25   31 1    
    28   26   27 1    
    29   26   29 1    
    30   27   28 2    
    31   27   32 am   
    32   29   30 1    
    33   30   31 1    
    34   32   33 1    
    35   33   34 1    
    36   34   35 2    
    37   36   37 1    
    38   37   38 1    
    39   37   40 1    
    40   38   39 1    
    41   39   42 1    
    42   40   41 2    
    43   42   43 ar   
    44   42   44 ar   
    45   42   45 ar   
@<TRIPOS>SUBSTRUCTURE
     1 ARG508      1 RESIDUE 
     2 SER509      6 RESIDUE 
     3 LEU510     12 RESIDUE 
     4 ALA512     20 RESIDUE 
     5 PRO513     25 RESIDUE 
     6 GLY514     32 RESIDUE 
     7 SEP511     36 RESIDUE 
@<TRIPOS>SET

