#    Name: 6fel_1_ARG_SER_LEU_ALA_PRO_SEP_CAVITY_N1_4
#    Modification time : Fri May 22 19:25:10 2020

@<TRIPOS>MOLECULE
6fel_1_ARG_SER_LEU_ALA_PRO_SEP_CAVITY_N1_4
   39     0     5     0     0
SMALL
NO_CHARGES


@<TRIPOS>ATOM
      1 OG        -19.8600  -22.8600    6.0800 O.3       1 SER1        0.0000 
      2 OG        -21.0500  -22.6200    6.9700 O.3       1 SER1        0.0000 
      3 O         -15.4600  -23.1400    6.9700 O.2       2 ALA2        0.0000 
      4 O         -15.1800  -24.4200    7.7000 O.2       2 ALA2        0.0000 
      5 O         -15.7700  -22.1500    8.8200 O.2       2 ALA2        0.0000 
      6 N         -15.4800  -23.4200    9.5500 N.am      2 ALA2        0.0000 
      7 N         -18.7300  -19.3800   11.7000 N.am      2 ALA2        0.0000 
      8 N         -16.0800  -21.1500   10.6600 N.am      2 ALA2        0.0000 
      9 OD1       -17.8000  -22.3600    6.1600 O.co2     3 ASP3        0.0000 
     10 OD1       -18.1100  -21.3700    8.0100 O.co2     3 ASP3        0.0000 
     11 OD1       -16.6400  -22.8900    7.8500 O.co2     3 ASP3        0.0000 
     12 OD1       -17.2300  -20.6200    8.9700 O.co2     3 ASP3        0.0000 
     13 OD1       -16.9500  -21.9000    9.7000 O.co2     3 ASP3        0.0000 
     14 CA        -18.6800  -23.1100    5.2000 C.3       4 GLY6        0.0000 
     15 CA        -19.5800  -24.1400    6.8200 C.3       4 GLY6        0.0000 
     16 CA        -16.3400  -23.8900    6.0100 C.3       4 GLY6        0.0000 
     17 CA        -17.5200  -23.6400    6.8900 C.3       4 GLY6        0.0000 
     18 CA        -17.2400  -24.9200    7.6300 C.3       4 GLY6        0.0000 
     19 CA        -18.4200  -20.3800    9.8600 C.3       4 GLY6        0.0000 
     20 CA        -19.3200  -21.4100   11.4800 C.3       4 GLY6        0.0000 
     21 CA        -19.0400  -22.6800   12.2100 C.3       4 GLY6        0.0000 
     22 CA        -17.5400  -19.6300   10.8200 C.3       4 GLY6        0.0000 
     23 CA        -17.2600  -20.9100   11.5500 C.3       4 GLY6        0.0000 
     24 CA        -18.4400  -20.6600   12.4400 C.3       4 GLY6        0.0000 
     25 CA        -15.7900  -22.4300   11.4000 C.3       4 GLY6        0.0000 
     26 CA        -16.9800  -22.1800   12.2900 C.3       4 GLY6        0.0000 
     27 CA        -16.6900  -23.4600   13.0200 C.3       4 GLY6        0.0000 
     28 CA        -17.8800  -23.2100   13.9100 C.3       4 GLY6        0.0000 
     29 DU        -18.9900  -22.1200    7.0500 H         5 CUB7        0.0000 
     30 DU        -20.1700  -21.8700    7.9300 H         5 CUB7        0.0000 
     31 DU        -18.7000  -23.3900    7.7800 H         5 CUB7        0.0000 
     32 DU        -19.2900  -21.1200    8.8900 H         5 CUB7        0.0000 
     33 DU        -17.8300  -22.6500    8.7400 H         5 CUB7        0.0000 
     34 DU        -19.0100  -22.4000    9.6300 H         5 CUB7        0.0000 
     35 DU        -20.2000  -22.1500   10.5100 H         5 CUB7        0.0000 
     36 DU        -16.3600  -24.1700    8.5900 H         5 CUB7        0.0000 
     37 DU        -18.1400  -21.6500   10.5900 H         5 CUB7        0.0000 
     38 DU        -16.6700  -23.1800   10.4400 H         5 CUB7        0.0000 
     39 DU        -17.8500  -22.9300   11.3200 H         5 CUB7        0.0000 
@<TRIPOS>BOND
@<TRIPOS>SUBSTRUCTURE
     1 SER1        1 GROUP   
     2 ALA2        3 GROUP   
     3 ASP3        9 GROUP   
     4 GLY6       14 GROUP   
     5 CUB7       29 GROUP   
@<TRIPOS>SET

