#    Name: 6fel_1_ARG_SER_LEU_ALA_PRO_SEP_CAVITY_N1_12
#    Modification time : Fri May 22 19:25:10 2020

@<TRIPOS>MOLECULE
6fel_1_ARG_SER_LEU_ALA_PRO_SEP_CAVITY_N1_12
   77     0     7     0     0
SMALL
NO_CHARGES


@<TRIPOS>ATOM
      1 OG        -17.7800  -22.0800    3.5800 O.3       1 SER1        0.0000 
      2 OG        -21.3300  -21.3400    6.2400 O.3       1 SER1        0.0000 
      3 OG        -19.8600  -22.8600    6.0800 O.3       1 SER1        0.0000 
      4 OG        -21.0500  -22.6200    6.9700 O.3       1 SER1        0.0000 
      5 OG        -19.2700  -20.8400    6.3100 O.3       1 SER1        0.0000 
      6 OG        -20.4500  -20.5900    7.2000 O.3       1 SER1        0.0000 
      7 N         -22.5100  -21.0900    7.1200 N.am      2 ALA2        0.0000 
      8 N         -23.7000  -20.8400    8.0100 N.am      2 ALA2        0.0000 
      9 N         -23.1100  -18.8200    8.2400 N.am      2 ALA2        0.0000 
     10 N         -22.8200  -20.1000    8.9700 N.am      2 ALA2        0.0000 
     11 O         -15.4600  -23.1400    6.9700 O.2       2 ALA2        0.0000 
     12 O         -15.1800  -24.4200    7.7000 O.2       2 ALA2        0.0000 
     13 O         -15.7700  -22.1500    8.8200 O.2       2 ALA2        0.0000 
     14 N         -15.4800  -23.4200    9.5500 N.am      2 ALA2        0.0000 
     15 N         -19.0100  -18.1000   10.9700 N.am      2 ALA2        0.0000 
     16 N         -18.7300  -19.3800   11.7000 N.am      2 ALA2        0.0000 
     17 N         -19.9100  -19.1300   12.5900 N.am      2 ALA2        0.0000 
     18 N         -16.0800  -21.1500   10.6600 N.am      2 ALA2        0.0000 
     19 OD1       -18.0900  -21.0900    5.4200 O.co2     3 ASP3        0.0000 
     20 OD1       -17.8000  -22.3600    6.1600 O.co2     3 ASP3        0.0000 
     21 OD1       -19.5800  -19.8400    8.1600 O.co2     3 ASP3        0.0000 
     22 OD1       -18.1100  -21.3700    8.0100 O.co2     3 ASP3        0.0000 
     23 OD1       -16.6400  -22.8900    7.8500 O.co2     3 ASP3        0.0000 
     24 OD1       -18.7000  -19.1000    9.1200 O.co2     3 ASP3        0.0000 
     25 OD1       -17.2300  -20.6200    8.9700 O.co2     3 ASP3        0.0000 
     26 OD1       -16.9500  -21.9000    9.7000 O.co2     3 ASP3        0.0000 
     27 NZ        -16.6200  -22.6100    5.2700 N.4       4 LYS4        0.0000 
     28 NZ        -23.1300  -19.1000   10.8200 N.4       4 LYS4        0.0000 
     29 NZ        -23.4400  -18.1100   12.6700 N.4       4 LYS4        0.0000 
     30 NZ        -21.9700  -19.6300   12.5200 N.4       4 LYS4        0.0000 
     31 CZ        -16.5900  -22.3300    2.6900 C.ar      5 PHE5        0.0000 
     32 CZ        -20.7400  -19.3100    6.4600 C.ar      5 PHE5        0.0000 
     33 CZ        -21.9200  -19.0700    7.3500 C.ar      5 PHE5        0.0000 
     34 CZ        -19.8600  -18.5700    7.4300 C.ar      5 PHE5        0.0000 
     35 CA        -17.4900  -23.3600    4.3100 C.3       6 GLY6        0.0000 
     36 CA        -18.6800  -23.1100    5.2000 C.3       6 GLY6        0.0000 
     37 CA        -19.5800  -24.1400    6.8200 C.3       6 GLY6        0.0000 
     38 CA        -16.3400  -23.8900    6.0100 C.3       6 GLY6        0.0000 
     39 CA        -17.5200  -23.6400    6.8900 C.3       6 GLY6        0.0000 
     40 CA        -17.2400  -24.9200    7.6300 C.3       6 GLY6        0.0000 
     41 CA        -21.0400  -18.3200    8.3100 C.3       6 GLY6        0.0000 
     42 CA        -22.2300  -18.0700    9.2000 C.3       6 GLY6        0.0000 
     43 CA        -23.4100  -17.8300   10.0900 C.3       6 GLY6        0.0000 
     44 CA        -20.7600  -19.6000    9.0500 C.3       6 GLY6        0.0000 
     45 CA        -18.9800  -17.8200    8.3900 C.3       6 GLY6        0.0000 
     46 CA        -22.5400  -17.0800   11.0500 C.3       6 GLY6        0.0000 
     47 CA        -19.8900  -18.8500   10.0100 C.3       6 GLY6        0.0000 
     48 CA        -21.0700  -18.6000   10.8900 C.3       6 GLY6        0.0000 
     49 CA        -22.2500  -18.3600   11.7800 C.3       6 GLY6        0.0000 
     50 CA        -18.4200  -20.3800    9.8600 C.3       6 GLY6        0.0000 
     51 CA        -20.7900  -19.8800   11.6300 C.3       6 GLY6        0.0000 
     52 CA        -19.3200  -21.4100   11.4800 C.3       6 GLY6        0.0000 
     53 CA        -20.5000  -21.1600   12.3600 C.3       6 GLY6        0.0000 
     54 CA        -21.6900  -20.9100   13.2500 C.3       6 GLY6        0.0000 
     55 CA        -19.0400  -22.6800   12.2100 C.3       6 GLY6        0.0000 
     56 CA        -17.5400  -19.6300   10.8200 C.3       6 GLY6        0.0000 
     57 CA        -17.2600  -20.9100   11.5500 C.3       6 GLY6        0.0000 
     58 CA        -18.4400  -20.6600   12.4400 C.3       6 GLY6        0.0000 
     59 CA        -15.7900  -22.4300   11.4000 C.3       6 GLY6        0.0000 
     60 CA        -16.9800  -22.1800   12.2900 C.3       6 GLY6        0.0000 
     61 CA        -16.6900  -23.4600   13.0200 C.3       6 GLY6        0.0000 
     62 CA        -17.8800  -23.2100   13.9100 C.3       6 GLY6        0.0000 
     63 DU        -21.6400  -20.3400    8.0800 H         7 CUB7        0.0000 
     64 DU        -18.9900  -22.1200    7.0500 H         7 CUB7        0.0000 
     65 DU        -20.1700  -21.8700    7.9300 H         7 CUB7        0.0000 
     66 DU        -18.7000  -23.3900    7.7800 H         7 CUB7        0.0000 
     67 DU        -21.9500  -19.3500    9.9300 H         7 CUB7        0.0000 
     68 DU        -19.2900  -21.1200    8.8900 H         7 CUB7        0.0000 
     69 DU        -21.6600  -20.6300   10.6700 H         7 CUB7        0.0000 
     70 DU        -17.8300  -22.6500    8.7400 H         7 CUB7        0.0000 
     71 DU        -19.0100  -22.4000    9.6300 H         7 CUB7        0.0000 
     72 DU        -20.2000  -22.1500   10.5100 H         7 CUB7        0.0000 
     73 DU        -16.3600  -24.1700    8.5900 H         7 CUB7        0.0000 
     74 DU        -19.6000  -20.1300   10.7400 H         7 CUB7        0.0000 
     75 DU        -18.1400  -21.6500   10.5900 H         7 CUB7        0.0000 
     76 DU        -16.6700  -23.1800   10.4400 H         7 CUB7        0.0000 
     77 DU        -17.8500  -22.9300   11.3200 H         7 CUB7        0.0000 
@<TRIPOS>BOND
@<TRIPOS>SUBSTRUCTURE
     1 SER1        1 GROUP   
     2 ALA2        7 GROUP   
     3 ASP3       19 GROUP   
     4 LYS4       27 GROUP   
     5 PHE5       31 GROUP   
     6 GLY6       35 GROUP   
     7 CUB7       63 GROUP   
@<TRIPOS>SET

