#    Name: 6fel_1_ARG_SER_LEU_ALA_PRO_SEP
#    Modification time : Fri May 22 19:25:09 2020

@<TRIPOS>MOLECULE
6fel_1_ARG_SER_LEU_ALA_PRO_SEP
   41    41     6     0     0
SMALL
NO_CHARGES


@<TRIPOS>ATOM
      1 N          -4.9790  -33.1150   11.2610 N.4       1 ARG508      0.0000 
      2 CA         -5.9550  -32.0820   10.9250 C.3       1 ARG508      0.0000 
      3 C          -6.2830  -31.2030   12.1320 C.2       1 ARG508      0.0000 
      4 O          -5.9090  -31.5150   13.2630 O.2       1 ARG508      0.0000 
      5 CB         -7.2380  -32.7160   10.3770 C.3       1 ARG508      0.0000 
      6 N          -6.9730  -30.0920   11.8760 N.am      2 SER509      0.0000 
      7 CA         -7.4920  -29.2030   12.9070 C.3       2 SER509      0.0000 
      8 C          -8.9890  -29.0270   12.6880 C.2       2 SER509      0.0000 
      9 O          -9.5600  -29.5370   11.7190 O.2       2 SER509      0.0000 
     10 CB         -6.7810  -27.8430   12.8890 C.3       2 SER509      0.0000 
     11 OG         -5.4810  -27.9290   13.4410 O.3       2 SER509      0.0000 
     12 N          -9.6260  -28.2900   13.5930 N.am      3 LEU510      0.0000 
     13 CA        -11.0570  -28.0160   13.4930 C.3       3 LEU510      0.0000 
     14 C         -11.3050  -26.6390   12.8940 C.2       3 LEU510      0.0000 
     15 O         -10.7980  -25.6350   13.3920 O.2       3 LEU510      0.0000 
     16 CB        -11.7190  -28.1210   14.8640 C.3       3 LEU510      0.0000 
     17 CG        -11.3650  -29.4060   15.6090 C.3       3 LEU510      0.0000 
     18 CD1       -11.2460  -29.1660   17.1090 C.3       3 LEU510      0.0000 
     19 CD2       -12.3840  -30.4930   15.3060 C.3       3 LEU510      0.0000 
     20 N         -14.3660  -23.9200   10.8410 N.am      4 ALA512      0.0000 
     21 CA        -15.7630  -23.5360   10.9830 C.3       4 ALA512      0.0000 
     22 C         -16.6360  -24.3560   10.0380 C.2       4 ALA512      0.0000 
     23 O         -16.2210  -24.6770    8.9180 O.2       4 ALA512      0.0000 
     24 CB        -15.9340  -22.0520   10.7220 C.3       4 ALA512      0.0000 
     25 N         -17.8450  -24.7120   10.4920 N.am      5 PRO513      0.0000 
     26 CA        -18.8130  -25.4220    9.6490 C.3       5 PRO513      0.0000 
     27 C         -19.1970  -24.6160    8.4130 C.2       5 PRO513      0.0000 
     28 O         -20.2260  -24.9130    7.8100 O.2       5 PRO513      0.0000 
     29 CB        -20.0180  -25.6040   10.5750 C.3       5 PRO513      0.0000 
     30 CG        -19.4540  -25.5290   11.9520 C.3       5 PRO513      0.0000 
     31 CD        -18.3340  -24.5400   11.8700 C.3       5 PRO513      0.0000 
     32 N         -12.0820  -26.5970   11.8180 N.am      6 SEP511      0.0000 
     33 CA        -12.4300  -25.3340   11.1870 C.3       6 SEP511      0.0000 
     34 CB        -12.1440  -25.3820    9.6910 C.3       6 SEP511      0.0000 
     35 OG        -12.9000  -26.4110    9.0900 O.3       6 SEP511      0.0000 
     36 C         -13.8970  -25.0110   11.4310 C.2       6 SEP511      0.0000 
     37 O         -14.5940  -25.7350   12.1450 O.2       6 SEP511      0.0000 
     38 P         -12.5990  -26.4920    7.5160 P.3       6 SEP511      0.0000 
     39 O1P       -13.1070  -25.1320    6.8250 O.co2     6 SEP511      0.0000 
     40 O2P       -11.0170  -26.6940    7.2940 O.co2     6 SEP511      0.0000 
     41 O3P       -13.4020  -27.7300    6.8760 O.co2     6 SEP511      0.0000 
@<TRIPOS>BOND
     1    1    2 1    
     2    2    3 1    
     3    2    5 1    
     4    3    4 2    
     5    3    6 am   
     6    6    7 1    
     7    7    8 1    
     8    7   10 1    
     9    8    9 2    
    10    8   12 am   
    11   10   11 1    
    12   12   13 1    
    13   13   14 1    
    14   13   16 1    
    15   14   15 2    
    16   14   32 du   
    17   16   17 1    
    18   17   18 1    
    19   17   19 1    
    20   20   21 1    
    21   20   36 am   
    22   21   22 1    
    23   21   24 1    
    24   22   23 2    
    25   22   25 am   
    26   25   26 1    
    27   25   31 1    
    28   26   27 1    
    29   26   29 1    
    30   27   28 2    
    31   29   30 1    
    32   30   31 1    
    33   32   33 1    
    34   33   34 1    
    35   33   36 1    
    36   34   35 1    
    37   35   38 1    
    38   36   37 2    
    39   38   39 ar   
    40   38   40 ar   
    41   38   41 ar   
@<TRIPOS>SUBSTRUCTURE
     1 ARG508      1 RESIDUE 
     2 SER509      6 RESIDUE 
     3 LEU510     12 RESIDUE 
     4 ALA512     20 RESIDUE 
     5 PRO513     25 RESIDUE 
     6 SEP511     32 RESIDUE 
@<TRIPOS>SET

