#    Name: 6fel_4_ARG_SER_LEU_ALA_PRO_SEP
#    Modification time : Fri May 22 19:25:22 2020

@<TRIPOS>MOLECULE
6fel_4_ARG_SER_LEU_ALA_PRO_SEP
   47    47     6     0     0
SMALL
NO_CHARGES


@<TRIPOS>ATOM
      1 N           1.2760  -21.3420   25.6700 N.4       1 ARG508      0.0000 
      2 CA          2.4730  -21.5180   26.4880 C.3       1 ARG508      0.0000 
      3 C           3.4780  -22.4320   25.7930 C.2       1 ARG508      0.0000 
      4 O           3.9870  -22.1020   24.7240 O.2       1 ARG508      0.0000 
      5 CB          2.1040  -22.0780   27.8640 C.3       1 ARG508      0.0000 
      6 CG          1.2680  -21.1310   28.7130 C.3       1 ARG508      0.0000 
      7 CD          1.7580  -19.6940   28.5890 C.3       1 ARG508      0.0000 
      8 NE          1.1860  -18.8250   29.6160 N.pl3     1 ARG508      0.0000 
      9 CZ          1.0190  -17.5120   29.4820 C.cat     1 ARG508      0.0000 
     10 NH1         1.3780  -16.9060   28.3580 N.pl3     1 ARG508      0.0000 
     11 NH2         0.4920  -16.8020   30.4710 N.pl3     1 ARG508      0.0000 
     12 N           3.7650  -23.5800   26.4000 N.am      2 SER509      0.0000 
     13 CA          4.7310  -24.5320   25.8630 C.3       2 SER509      0.0000 
     14 C           4.1510  -25.9390   25.9510 C.2       2 SER509      0.0000 
     15 O           3.0410  -26.1500   26.4490 O.2       2 SER509      0.0000 
     16 CB          6.0710  -24.4430   26.6030 C.3       2 SER509      0.0000 
     17 OG          6.8930  -23.4390   26.0350 O.3       2 SER509      0.0000 
     18 N           4.9210  -26.9100   25.4730 N.am      3 LEU510      0.0000 
     19 CA          4.4580  -28.2900   25.4220 C.3       3 LEU510      0.0000 
     20 C           5.1990  -29.1730   26.4180 C.2       3 LEU510      0.0000 
     21 O           6.4290  -29.1830   26.4400 O.2       3 LEU510      0.0000 
     22 CB          4.6340  -28.8510   24.0140 C.3       3 LEU510      0.0000 
     23 CG          3.9520  -28.0990   22.8760 C.3       3 LEU510      0.0000 
     24 CD1         4.8030  -28.2030   21.6280 C.3       3 LEU510      0.0000 
     25 CD2         2.5640  -28.6620   22.6310 C.3       3 LEU510      0.0000 
     26 N           5.3570  -33.2470   28.5470 N.am      4 ALA512      0.0000 
     27 CA          5.1890  -34.6730   28.2850 C.3       4 ALA512      0.0000 
     28 C           3.7090  -35.0480   28.2770 C.2       4 ALA512      0.0000 
     29 O           2.9640  -34.6830   29.1900 O.2       4 ALA512      0.0000 
     30 CB          5.9410  -35.4950   29.3170 C.3       4 ALA512      0.0000 
     31 N           3.2750  -35.7770   27.2420 N.am      5 PRO513      0.0000 
     32 CA          1.8690  -36.1750   27.0840 C.3       5 PRO513      0.0000 
     33 C           1.3590  -37.1510   28.1550 C.2       5 PRO513      0.0000 
     34 O           2.1420  -37.8660   28.7840 O.2       5 PRO513      0.0000 
     35 CB          1.8520  -36.8320   25.6980 C.3       5 PRO513      0.0000 
     36 CG          3.2450  -37.2770   25.4660 C.3       5 PRO513      0.0000 
     37 CD          4.1150  -36.2570   26.1320 C.3       5 PRO513      0.0000 
     38 N           4.4500  -29.9190   27.2290 N.am      6 SEP511      0.0000 
     39 CA          5.0400  -30.8620   28.1800 C.3       6 SEP511      0.0000 
     40 CB          4.4370  -30.6650   29.5670 C.3       6 SEP511      0.0000 
     41 OG          3.0370  -30.8430   29.5100 O.3       6 SEP511      0.0000 
     42 C           4.8520  -32.3190   27.7380 C.2       6 SEP511      0.0000 
     43 O           4.2710  -32.5960   26.6830 O.2       6 SEP511      0.0000 
     44 P           2.3010  -30.5080   30.9000 P.3       6 SEP511      0.0000 
     45 O1P         0.7320  -30.7910   30.6730 O.co2     6 SEP511      0.0000 
     46 O2P         2.5170  -28.9720   31.3350 O.co2     6 SEP511      0.0000 
     47 O3P         2.8630  -31.4600   32.0680 O.co2     6 SEP511      0.0000 
@<TRIPOS>BOND
     1    1    2 1    
     2    2    3 1    
     3    2    5 1    
     4    3    4 2    
     5    3   12 am   
     6    5    6 1    
     7    6    7 1    
     8    7    8 1    
     9    8    9 ar   
    10    9   10 ar   
    11    9   11 ar   
    12   12   13 1    
    13   13   14 1    
    14   13   16 1    
    15   14   15 2    
    16   14   18 am   
    17   16   17 1    
    18   18   19 1    
    19   19   20 1    
    20   19   22 1    
    21   20   21 2    
    22   20   38 du   
    23   22   23 1    
    24   23   24 1    
    25   23   25 1    
    26   26   27 1    
    27   26   42 am   
    28   27   28 1    
    29   27   30 1    
    30   28   29 2    
    31   28   31 am   
    32   31   32 1    
    33   31   37 1    
    34   32   33 1    
    35   32   35 1    
    36   33   34 2    
    37   35   36 1    
    38   36   37 1    
    39   38   39 1    
    40   39   40 1    
    41   39   42 1    
    42   40   41 1    
    43   41   44 1    
    44   42   43 2    
    45   44   45 ar   
    46   44   46 ar   
    47   44   47 ar   
@<TRIPOS>SUBSTRUCTURE
     1 ARG508      1 RESIDUE 
     2 SER509     12 RESIDUE 
     3 LEU510     18 RESIDUE 
     4 ALA512     26 RESIDUE 
     5 PRO513     31 RESIDUE 
     6 SEP511     38 RESIDUE 
@<TRIPOS>SET

