#    Name: 6fm0_1_ATP
#    Modification time : Fri May 22 19:32:06 2020

@<TRIPOS>MOLECULE
6fm0_1_ATP
   31    33     1     0     1
SMALL
NO_CHARGES


@<TRIPOS>ATOM
      1 PG         17.4830   27.4900    6.2180 P.3       1 ATP401      0.0000 
      2 O1G        17.3960   28.5530    5.1910 O.co2     1 ATP401      0.0000 
      3 O2G        16.6230   26.2950    6.0970 O.co2     1 ATP401      0.0000 
      4 O3G        17.3270   28.1340    7.5450 O.co2     1 ATP401      0.0000 
      5 PB         19.6420   25.6370    6.1020 P.3       1 ATP401      0.0000 
      6 O1B        19.7890   24.8830    4.9290 O.co2     1 ATP401      0.0000 
      7 O2B        19.0990   25.0090    7.2460 O.co2     1 ATP401      0.0000 
      8 O3B        18.9750   27.0170    5.8960 O.3       1 ATP401      0.0000 
      9 PA         21.7060   26.9090    7.3780 P.3       1 ATP401      0.0000 
     10 O1A        20.9720   28.1460    7.7240 O.co2     1 ATP401      0.0000 
     11 O2A        21.6950   25.8100    8.3600 O.co2     1 ATP401      0.0000 
     12 O3A        21.0870   26.0970    6.1840 O.3       1 ATP401      0.0000 
     13 O5'        23.2660   27.2090    6.9550 O.3       1 ATP401      0.0000 
     14 C5'        24.3400   26.4040    7.5340 C.3       1 ATP401      0.0000 
     15 C4'        25.6550   26.9170    8.2190 C.3       1 ATP401      0.0000 
     16 O4'        26.0900   26.1360    9.3710 O.3       1 ATP401      0.0000 
     17 C3'        26.8550   26.7240    7.2940 C.3       1 ATP401      0.0000 
     18 O3'        27.7860   27.7780    7.4660 O.3       1 ATP401      0.0000 
     19 C2'        27.4760   25.3920    7.6410 C.3       1 ATP401      0.0000 
     20 O2'        28.8420   25.3660    7.3380 O.3       1 ATP401      0.0000 
     21 C1'        27.2530   25.3280    9.1230 C.3       1 ATP401      0.0000 
     22 N9         27.0710   23.9550    9.6210 N.pl3     1 ATP401      0.0000 
     23 C8         26.1520   23.0990    9.2510 C.2       1 ATP401      0.0000 
     24 N7         26.2400   21.9630    9.9180 N.2       1 ATP401      0.0000 
     25 C5         27.2400   22.0770   10.7480 C.ar      1 ATP401      0.0000 
     26 C6         27.8750   21.2320   11.7330 C.ar      1 ATP401      0.0000 
     27 N6         27.4390   20.0070   11.9700 N.pl3     1 ATP401      0.0000 
     28 N1         28.9170   21.7120   12.3780 N.ar      1 ATP401      0.0000 
     29 C2         29.3650   22.9200   12.1460 C.ar      1 ATP401      0.0000 
     30 N3         28.8420   23.7350   11.2670 N.ar      1 ATP401      0.0000 
     31 C4         27.7930   23.3790   10.5440 C.ar      1 ATP401      0.0000 
@<TRIPOS>BOND
     1    1    2 ar   
     2    1    3 ar   
     3    1    4 ar   
     4    1    8 1    
     5    5    6 ar   
     6    5    7 ar   
     7    5    8 1    
     8    5   12 1    
     9    9   10 ar   
    10    9   11 ar   
    11    9   12 1    
    12    9   13 1    
    13   13   14 1    
    14   14   15 1    
    15   15   16 1    
    16   15   17 1    
    17   16   21 1    
    18   17   18 1    
    19   17   19 1    
    20   19   20 1    
    21   19   21 1    
    22   21   22 1    
    23   22   23 1    
    24   22   31 1    
    25   23   24 2    
    26   24   25 1    
    27   25   26 ar   
    28   25   31 ar   
    29   26   27 1    
    30   26   28 ar   
    31   28   29 ar   
    32   29   30 ar   
    33   30   31 ar   
@<TRIPOS>SUBSTRUCTURE
     1 ATP401      1 GROUP   
@<TRIPOS>SET
ATOM$ORANGE STATIC     ATOMS   COLORGROUP SYSTEM 
20 14 14 15 15 17 17 19 19 21 21 23 23 25 25 26 26 29 \
29 31 31 

