#    Name: 6fm0_2_ATP
#    Modification time : Fri May 22 19:32:09 2020

@<TRIPOS>MOLECULE
6fm0_2_ATP
   31    33     1     0     1
SMALL
NO_CHARGES


@<TRIPOS>ATOM
      1 PG         43.9360   28.7880   33.4640 P.3       1 ATP401      0.0000 
      2 O1G        44.7990   29.3460   32.3220 O.co2     1 ATP401      0.0000 
      3 O2G        44.6860   27.8460   34.3770 O.co2     1 ATP401      0.0000 
      4 O3G        43.2760   29.9560   34.2150 O.co2     1 ATP401      0.0000 
      5 PB         41.5250   27.2040   33.4270 P.3       1 ATP401      0.0000 
      6 O1B        41.4850   25.7880   33.0150 O.co2     1 ATP401      0.0000 
      7 O2B        41.5960   27.3890   34.9410 O.co2     1 ATP401      0.0000 
      8 O3B        42.7260   28.0170   32.7740 O.3       1 ATP401      0.0000 
      9 PA         38.8420   27.2960   32.6860 P.3       1 ATP401      0.0000 
     10 O1A        39.0070   26.4980   31.3940 O.co2     1 ATP401      0.0000 
     11 O2A        38.4680   26.4800   33.8660 O.co2     1 ATP401      0.0000 
     12 O3A        40.2450   28.0010   32.9250 O.3       1 ATP401      0.0000 
     13 O5'        37.7500   28.4350   32.3410 O.3       1 ATP401      0.0000 
     14 C5'        36.3340   28.1880   32.4770 C.3       1 ATP401      0.0000 
     15 C4'        35.6920   28.0020   31.1250 C.3       1 ATP401      0.0000 
     16 O4'        36.1040   26.7470   30.5590 O.3       1 ATP401      0.0000 
     17 C3'        34.1710   27.9390   31.1610 C.3       1 ATP401      0.0000 
     18 O3'        33.6300   29.2410   30.9680 O.3       1 ATP401      0.0000 
     19 C2'        33.8050   26.9820   30.0080 C.3       1 ATP401      0.0000 
     20 O2'        33.2080   27.6570   28.9040 O.3       1 ATP401      0.0000 
     21 C1'        35.1460   26.3590   29.5940 C.3       1 ATP401      0.0000 
     22 N9         35.1420   24.9050   29.5270 N.pl3     1 ATP401      0.0000 
     23 C8         35.7600   24.0500   30.3990 C.2       1 ATP401      0.0000 
     24 N7         35.6950   22.7830   30.0630 N.2       1 ATP401      0.0000 
     25 C5         34.9710   22.8090   28.8750 C.ar      1 ATP401      0.0000 
     26 C6         34.5890   21.7850   27.9810 C.ar      1 ATP401      0.0000 
     27 N6         34.8790   20.4920   28.1560 N.pl3     1 ATP401      0.0000 
     28 N1         33.8870   22.1460   26.8840 N.ar      1 ATP401      0.0000 
     29 C2         33.5910   23.4360   26.7040 C.ar      1 ATP401      0.0000 
     30 N3         33.9060   24.4830   27.4730 N.ar      1 ATP401      0.0000 
     31 C4         34.6100   24.0970   28.5430 C.ar      1 ATP401      0.0000 
@<TRIPOS>BOND
     1    1    2 ar   
     2    1    3 ar   
     3    1    4 ar   
     4    1    8 1    
     5    5    6 ar   
     6    5    7 ar   
     7    5    8 1    
     8    5   12 1    
     9    9   10 ar   
    10    9   11 ar   
    11    9   12 1    
    12    9   13 1    
    13   13   14 1    
    14   14   15 1    
    15   15   16 1    
    16   15   17 1    
    17   16   21 1    
    18   17   18 1    
    19   17   19 1    
    20   19   20 1    
    21   19   21 1    
    22   21   22 1    
    23   22   23 1    
    24   22   31 1    
    25   23   24 2    
    26   24   25 1    
    27   25   26 ar   
    28   25   31 ar   
    29   26   27 1    
    30   26   28 ar   
    31   28   29 ar   
    32   29   30 ar   
    33   30   31 ar   
@<TRIPOS>SUBSTRUCTURE
     1 ATP401      1 GROUP   
@<TRIPOS>SET
ATOM$ORANGE STATIC     ATOMS   COLORGROUP SYSTEM 
20 14 14 15 15 17 17 19 19 21 21 23 23 25 25 26 26 29 \
29 31 31 

