#    Name: 6gkm_1_ATP_CAVITY_N1_4
#    Modification time : Fri May 22 19:24:59 2020

@<TRIPOS>MOLECULE
6gkm_1_ATP_CAVITY_N1_4
   96     0     6     0     0
SMALL
NO_CHARGES


@<TRIPOS>ATOM
      1 OG         91.1000  136.1000  126.2800 O.3       1 SER1        0.0000 
      2 OG         91.4100  135.0200  127.2700 O.3       1 SER1        0.0000 
      3 OG         91.8300  135.3400  125.2200 O.3       1 SER1        0.0000 
      4 OG         92.1400  134.2500  126.2100 O.3       1 SER1        0.0000 
      5 OG         92.4600  133.1700  127.2000 O.3       1 SER1        0.0000 
      6 O          90.9700  134.9500  122.7900 O.2       2 ALA2        0.0000 
      7 N          90.4700  138.2600  124.3000 N.am      2 ALA2        0.0000 
      8 N          91.4300  140.0500  123.6800 N.am      2 ALA2        0.0000 
      9 O          94.2400  135.5900  122.4600 O.2       2 ALA2        0.0000 
     10 N          97.6000  132.6100  122.6800 N.am      2 ALA2        0.0000 
     11 N          98.5600  134.4000  122.0500 N.am      2 ALA2        0.0000 
     12 OD1        92.0100  133.1000  122.7200 O.co2     3 ASP3        0.0000 
     13 OD1        92.9700  134.8900  122.0900 O.co2     3 ASP3        0.0000 
     14 OD1        93.2800  133.8100  123.0900 O.co2     3 ASP3        0.0000 
     15 OD1        94.5600  134.5100  123.4500 O.co2     3 ASP3        0.0000 
     16 OD1        94.9700  134.8300  121.3900 O.co2     3 ASP3        0.0000 
     17 OD1        95.2900  133.7500  122.3900 O.co2     3 ASP3        0.0000 
     18 OD1        95.6000  132.6700  123.3800 O.co2     3 ASP3        0.0000 
     19 OD1        95.7000  134.0700  120.3300 O.co2     3 ASP3        0.0000 
     20 OD1        96.0200  132.9900  121.3200 O.co2     3 ASP3        0.0000 
     21 OD1        96.3300  131.9000  122.3100 O.co2     3 ASP3        0.0000 
     22 OD1        95.7400  138.8500  123.2700 O.co2     3 ASP3        0.0000 
     23 OD1        96.7900  137.0100  123.1900 O.co2     3 ASP3        0.0000 
     24 OD1        97.5200  136.2400  122.1300 O.co2     3 ASP3        0.0000 
     25 OD1        97.8300  135.1600  123.1200 O.co2     3 ASP3        0.0000 
     26 OD1        98.2500  135.4800  121.0600 O.co2     3 ASP3        0.0000 
     27 OD1        98.0600  137.7100  123.5600 O.co2     3 ASP3        0.0000 
     28 NZ         90.3700  136.8600  127.3500 N.4       4 LYS4        0.0000 
     29 NZ         91.7300  133.9400  128.2600 N.4       4 LYS4        0.0000 
     30 NZ         95.3700  130.1200  122.9300 N.4       4 LYS4        0.0000 
     31 NZ         91.5400  136.1700  130.7600 N.4       4 LYS4        0.0000 
     32 NZ         91.9600  136.4900  128.7000 N.4       4 LYS4        0.0000 
     33 NZ         92.2700  135.4000  129.6900 N.4       4 LYS4        0.0000 
     34 NZ         93.0000  134.6400  128.6300 N.4       4 LYS4        0.0000 
     35 NZ         93.7300  133.8800  127.5600 N.4       4 LYS4        0.0000 
     36 NZ         94.1400  134.2000  125.5100 N.4       4 LYS4        0.0000 
     37 NZ         94.4600  133.1100  126.5000 N.4       4 LYS4        0.0000 
     38 NZ         94.8700  133.4300  124.4400 N.4       4 LYS4        0.0000 
     39 NZ         95.1900  132.3500  125.4300 N.4       4 LYS4        0.0000 
     40 NZ         95.9200  131.5900  124.3700 N.4       4 LYS4        0.0000 
     41 NZ         96.6500  130.8200  123.3000 N.4       4 LYS4        0.0000 
     42 NZ         96.7400  132.2200  120.2500 N.4       4 LYS4        0.0000 
     43 NZ         97.0600  131.1400  121.2400 N.4       4 LYS4        0.0000 
     44 NZ         93.0100  139.6700  125.0300 N.4       4 LYS4        0.0000 
     45 NZ         93.3300  138.5900  126.0200 N.4       4 LYS4        0.0000 
     46 NZ         94.6900  135.6600  126.9400 N.4       4 LYS4        0.0000 
     47 NZ         95.1000  135.9800  124.8800 N.4       4 LYS4        0.0000 
     48 NZ         95.4200  134.9000  125.8700 N.4       4 LYS4        0.0000 
     49 NZ         95.8300  135.2200  123.8200 N.4       4 LYS4        0.0000 
     50 NZ         96.5600  134.4500  122.7500 N.4       4 LYS4        0.0000 
     51 NZ         96.8700  133.3700  123.7400 N.4       4 LYS4        0.0000 
     52 NZ         94.6000  139.3000  126.3900 N.4       4 LYS4        0.0000 
     53 NZ         95.0100  139.6100  124.3300 N.4       4 LYS4        0.0000 
     54 NZ         95.3300  138.5300  125.3200 N.4       4 LYS4        0.0000 
     55 NZ         96.3700  136.6900  125.2500 N.4       4 LYS4        0.0000 
     56 NZ         97.1000  135.9200  124.1800 N.4       4 LYS4        0.0000 
     57 CA         90.2400  135.7100  123.8600 C.3       5 GLY6        0.0000 
     58 CA         91.2800  133.8700  123.7900 C.3       5 GLY6        0.0000 
     59 CA         91.7000  134.1800  121.7300 C.3       5 GLY6        0.0000 
     60 CA         91.5100  136.4200  124.2300 C.3       5 GLY6        0.0000 
     61 CA         92.2400  135.6500  123.1600 C.3       5 GLY6        0.0000 
     62 CA         92.5600  134.5700  124.1500 C.3       5 GLY6        0.0000 
     63 CA         92.8700  133.4900  125.1400 C.3       5 GLY6        0.0000 
     64 CA         93.6000  132.7300  124.0800 C.3       5 GLY6        0.0000 
     65 CA         93.9100  131.6400  125.0700 C.3       5 GLY6        0.0000 
     66 CA         94.6400  130.8800  124.0000 C.3       5 GLY6        0.0000 
     67 CA         92.4700  138.2000  123.6000 C.3       5 GLY6        0.0000 
     68 CA         92.7800  137.1200  124.5900 C.3       5 GLY6        0.0000 
     69 CA         93.5100  136.3600  123.5300 C.3       5 GLY6        0.0000 
     70 CA         93.7400  138.9100  123.9700 C.3       5 GLY6        0.0000 
     71 CA         94.4700  138.1500  122.9000 C.3       5 GLY6        0.0000 
     72 CA         95.2000  137.3800  121.8400 C.3       5 GLY6        0.0000 
     73 CA         96.2400  135.5400  121.7600 C.3       5 GLY6        0.0000 
     74 CA         96.9700  134.7700  120.6900 C.3       5 GLY6        0.0000 
     75 CA         95.9600  136.3700  127.3000 C.3       5 GLY6        0.0000 
     76 CA         96.1600  139.1700  121.2100 C.3       5 GLY6        0.0000 
     77 CA         96.4700  138.0900  122.2000 C.3       5 GLY6        0.0000 
     78 CA         97.2000  137.3200  121.1400 C.3       5 GLY6        0.0000 
     79 CA         97.9300  136.5600  120.0700 C.3       5 GLY6        0.0000 
     80 DU         91.6400  137.5700  127.7100 H         6 CUB7        0.0000 
     81 DU         92.0600  137.8900  125.6600 H         6 CUB7        0.0000 
     82 DU         92.3700  136.8000  126.6500 H         6 CUB7        0.0000 
     83 DU         92.6800  135.7200  127.6400 H         6 CUB7        0.0000 
     84 DU         93.1000  136.0400  125.5800 H         6 CUB7        0.0000 
     85 DU         93.4100  134.9600  126.5700 H         6 CUB7        0.0000 
     86 DU         93.8300  135.2800  124.5200 H         6 CUB7        0.0000 
     87 DU         93.2300  137.1900  129.0700 H         6 CUB7        0.0000 
     88 DU         93.6400  137.5100  127.0100 H         6 CUB7        0.0000 
     89 DU         93.9600  136.4300  128.0000 H         6 CUB7        0.0000 
     90 DU         94.0600  137.8300  124.9600 H         6 CUB7        0.0000 
     91 DU         94.3700  136.7500  125.9500 H         6 CUB7        0.0000 
     92 DU         94.7900  137.0600  123.8900 H         6 CUB7        0.0000 
     93 DU         95.5100  136.3000  122.8300 H         6 CUB7        0.0000 
     94 DU         97.2900  133.6900  121.6800 H         6 CUB7        0.0000 
     95 DU         94.9100  138.2100  127.3800 H         6 CUB7        0.0000 
     96 DU         96.0600  137.7700  124.2600 H         6 CUB7        0.0000 
@<TRIPOS>BOND
@<TRIPOS>SUBSTRUCTURE
     1 SER1        1 GROUP   
     2 ALA2        6 GROUP   
     3 ASP3       12 GROUP   
     4 LYS4       28 GROUP   
     5 GLY6       57 GROUP   
     6 CUB7       80 GROUP   
@<TRIPOS>SET

