#    Name: 6gkm_1_ATP
#    Modification time : Fri May 22 19:24:57 2020

@<TRIPOS>MOLECULE
6gkm_1_ATP
   31    33     1     0     1
SMALL
NO_CHARGES


@<TRIPOS>ATOM
      1 PG         94.0190  134.8230  121.7120 P.3       1 ATP1102     0.0000 
      2 O1G        93.6480  134.9050  120.2530 O.co2     1 ATP1102     0.0000 
      3 O2G        95.1650  135.7050  122.1600 O.co2     1 ATP1102     0.0000 
      4 O3G        94.0970  133.3930  122.1820 O.co2     1 ATP1102     0.0000 
      5 PB         92.5880  135.2450  124.0770 P.3       1 ATP1102     0.0000 
      6 O1B        91.2590  134.5800  124.3330 O.co2     1 ATP1102     0.0000 
      7 O2B        93.8660  134.6430  124.6030 O.co2     1 ATP1102     0.0000 
      8 O3B        92.7590  135.4490  122.4890 O.3       1 ATP1102     0.0000 
      9 PA         91.1230  137.5630  124.4050 P.3       1 ATP1102     0.0000 
     10 O1A        90.3830  136.9040  123.2660 O.co2     1 ATP1102     0.0000 
     11 O2A        91.4930  139.0200  124.2950 O.co2     1 ATP1102     0.0000 
     12 O3A        92.4910  136.7520  124.6150 O.3       1 ATP1102     0.0000 
     13 O5'        90.3410  137.3310  125.7860 O.3       1 ATP1102     0.0000 
     14 C5'        90.9620  137.6580  127.0250 C.3       1 ATP1102     0.0000 
     15 C4'        90.1350  138.7900  127.6100 C.3       1 ATP1102     0.0000 
     16 O4'        89.0790  139.1000  126.7010 O.3       1 ATP1102     0.0000 
     17 C3'        89.5140  138.3930  128.9340 C.3       1 ATP1102     0.0000 
     18 O3'        90.0820  139.1760  129.9900 O.3       1 ATP1102     0.0000 
     19 C2'        88.0370  138.6870  128.8060 C.3       1 ATP1102     0.0000 
     20 O2'        87.6390  139.6570  129.7740 O.3       1 ATP1102     0.0000 
     21 C1'        87.8510  139.2540  127.4130 C.3       1 ATP1102     0.0000 
     22 N9         86.7380  138.5220  126.7640 N.pl3     1 ATP1102     0.0000 
     23 C8         86.8160  137.4300  125.9850 C.2       1 ATP1102     0.0000 
     24 N7         85.5800  137.0420  125.5770 N.2       1 ATP1102     0.0000 
     25 C5         84.6950  137.9040  126.1090 C.ar      1 ATP1102     0.0000 
     26 C6         83.2290  138.0750  126.0930 C.ar      1 ATP1102     0.0000 
     27 N6         82.4620  137.2070  125.3940 N.pl3     1 ATP1102     0.0000 
     28 N1         82.6920  139.1040  126.7820 N.ar      1 ATP1102     0.0000 
     29 C2         83.4600  139.9500  127.4940 C.ar      1 ATP1102     0.0000 
     30 N3         84.8030  139.8560  127.5490 N.ar      1 ATP1102     0.0000 
     31 C4         85.4620  138.8580  126.9090 C.ar      1 ATP1102     0.0000 
@<TRIPOS>BOND
     1    1    2 ar   
     2    1    3 ar   
     3    1    4 ar   
     4    1    8 1    
     5    5    6 ar   
     6    5    7 ar   
     7    5    8 1    
     8    5   12 1    
     9    9   10 ar   
    10    9   11 ar   
    11    9   12 1    
    12    9   13 1    
    13   13   14 1    
    14   14   15 1    
    15   15   16 1    
    16   15   17 1    
    17   16   21 1    
    18   17   18 1    
    19   17   19 1    
    20   19   20 1    
    21   19   21 1    
    22   21   22 1    
    23   22   23 1    
    24   22   31 1    
    25   23   24 2    
    26   24   25 1    
    27   25   26 ar   
    28   25   31 ar   
    29   26   27 1    
    30   26   28 ar   
    31   28   29 ar   
    32   29   30 ar   
    33   30   31 ar   
@<TRIPOS>SUBSTRUCTURE
     1 ATP1102     1 GROUP   
@<TRIPOS>SET
ATOM$ORANGE STATIC     ATOMS   COLORGROUP SYSTEM 
20 14 14 15 15 17 17 19 19 21 21 23 23 25 25 26 26 29 \
29 31 31 

