#    Name: 6aw9_2_SAH
#    Modification time : Fri May 22 19:25:15 2020

@<TRIPOS>MOLECULE
6aw9_2_SAH
   26    28     1     0     0
SMALL
NO_CHARGES


@<TRIPOS>ATOM
      1 N          14.7200  -19.7760   38.0350 N.4       1 SAH302      0.0000 
      2 CA         14.6020  -18.8930   39.1890 C.3       1 SAH302      0.0000 
      3 CB         14.0580  -17.5350   38.7650 C.3       1 SAH302      0.0000 
      4 CG         14.4670  -17.0750   37.3660 C.3       1 SAH302      0.0000 
      5 SD         14.0640  -15.3250   37.0860 S.3       1 SAH302      0.0000 
      6 C          13.7090  -19.4910   40.2700 C.2       1 SAH302      0.0000 
      7 O          12.6080  -19.9650   39.9990 O.co2     1 SAH302      0.0000 
      8 OXT        14.0740  -19.5130   41.4440 O.co2     1 SAH302      0.0000 
      9 C5'        14.9170  -15.3080   35.4880 C.3       1 SAH302      0.0000 
     10 C4'        16.3940  -14.9600   35.6110 C.3       1 SAH302      0.0000 
     11 O4'        17.0670  -15.2460   34.4010 O.3       1 SAH302      0.0000 
     12 C3'        16.6090  -13.4850   35.9000 C.3       1 SAH302      0.0000 
     13 O3'        17.2960  -13.3430   37.1140 O.3       1 SAH302      0.0000 
     14 C2'        17.4460  -12.9560   34.7570 C.3       1 SAH302      0.0000 
     15 O2'        18.4820  -12.1190   35.2200 O.3       1 SAH302      0.0000 
     16 C1'        17.9880  -14.2180   34.1010 C.3       1 SAH302      0.0000 
     17 N9         18.1530  -14.1100   32.6410 N.pl3     1 SAH302      0.0000 
     18 C8         17.3270  -13.5030   31.7290 C.2       1 SAH302      0.0000 
     19 N7         17.8680  -13.6540   30.4980 N.2       1 SAH302      0.0000 
     20 C5         19.0190  -14.3520   30.6140 C.ar      1 SAH302      0.0000 
     21 C6         19.9540  -14.7830   29.6880 C.ar      1 SAH302      0.0000 
     22 N6         19.7960  -14.5140   28.3960 N.pl3     1 SAH302      0.0000 
     23 N1         21.0520  -15.4910   30.1200 N.ar      1 SAH302      0.0000 
     24 C2         21.2240  -15.7690   31.4590 C.ar      1 SAH302      0.0000 
     25 N3         20.2910  -15.3370   32.3720 N.ar      1 SAH302      0.0000 
     26 C4         19.2080  -14.6440   31.9540 C.ar      1 SAH302      0.0000 
@<TRIPOS>BOND
     1    1    2 1    
     2    2    3 1    
     3    2    6 1    
     4    3    4 1    
     5    4    5 1    
     6    5    9 1    
     7    6    7 ar   
     8    6    8 ar   
     9    9   10 1    
    10   10   11 1    
    11   10   12 1    
    12   11   16 1    
    13   12   13 1    
    14   12   14 1    
    15   14   15 1    
    16   14   16 1    
    17   16   17 1    
    18   17   18 1    
    19   17   26 1    
    20   18   19 2    
    21   19   20 1    
    22   20   21 ar   
    23   20   26 ar   
    24   21   22 1    
    25   21   23 ar   
    26   23   24 ar   
    27   24   25 ar   
    28   25   26 ar   
@<TRIPOS>SUBSTRUCTURE
     1 SAH302      1 GROUP   
@<TRIPOS>SET

