#    Name: 6aw9_1_SAH
#    Modification time : Fri May 22 19:25:11 2020

@<TRIPOS>MOLECULE
6aw9_1_SAH
   26    28     1     0     0
SMALL
NO_CHARGES


@<TRIPOS>ATOM
      1 N         -14.1650  -10.0790   32.1370 N.4       1 SAH302      0.0000 
      2 CA        -14.3890  -10.9260   33.3020 C.3       1 SAH302      0.0000 
      3 CB        -13.2270  -11.8990   33.4970 C.3       1 SAH302      0.0000 
      4 CG        -12.5510  -12.3630   32.2110 C.3       1 SAH302      0.0000 
      5 SD        -11.5250  -13.8310   32.5030 S.3       1 SAH302      0.0000 
      6 C         -14.5820  -10.0950   34.5640 C.2       1 SAH302      0.0000 
      7 O         -13.6520   -9.4610   35.0590 O.co2     1 SAH302      0.0000 
      8 OXT       -15.6760  -10.0390   35.1210 O.co2     1 SAH302      0.0000 
      9 C5'       -11.0220  -13.9510   30.7660 C.3       1 SAH302      0.0000 
     10 C4'       -12.0580  -14.6160   29.8700 C.3       1 SAH302      0.0000 
     11 O4'       -11.7580  -14.3470   28.5160 O.3       1 SAH302      0.0000 
     12 C3'       -12.0940  -16.1270   30.0300 C.3       1 SAH302      0.0000 
     13 O3'       -13.3750  -16.5170   30.4530 O.3       1 SAH302      0.0000 
     14 C2'       -11.7920  -16.6910   28.6570 C.3       1 SAH302      0.0000 
     15 O2'       -12.6410  -17.7670   28.3300 O.3       1 SAH302      0.0000 
     16 C1'       -12.0140  -15.4970   27.7360 C.3       1 SAH302      0.0000 
     17 N9        -11.1600  -15.4910   26.5370 N.pl3     1 SAH302      0.0000 
     18 C8         -9.8440  -15.8530   26.4170 C.2       1 SAH302      0.0000 
     19 N7         -9.4700  -15.6760   25.1280 N.2       1 SAH302      0.0000 
     20 C5        -10.5270  -15.2020   24.4330 C.ar      1 SAH302      0.0000 
     21 C6        -10.6980  -14.8490   23.1040 C.ar      1 SAH302      0.0000 
     22 N6         -9.6890  -14.9590   22.2440 N.pl3     1 SAH302      0.0000 
     23 N1        -11.9270  -14.3850   22.6860 N.ar      1 SAH302      0.0000 
     24 C2        -12.9780  -14.2700   23.5710 C.ar      1 SAH302      0.0000 
     25 N3        -12.7980  -14.6220   24.8900 N.ar      1 SAH302      0.0000 
     26 C4        -11.5940  -15.0820   25.3080 C.ar      1 SAH302      0.0000 
@<TRIPOS>BOND
     1    1    2 1    
     2    2    3 1    
     3    2    6 1    
     4    3    4 1    
     5    4    5 1    
     6    5    9 1    
     7    6    7 ar   
     8    6    8 ar   
     9    9   10 1    
    10   10   11 1    
    11   10   12 1    
    12   11   16 1    
    13   12   13 1    
    14   12   14 1    
    15   14   15 1    
    16   14   16 1    
    17   16   17 1    
    18   17   18 1    
    19   17   26 1    
    20   18   19 2    
    21   19   20 1    
    22   20   21 ar   
    23   20   26 ar   
    24   21   22 1    
    25   21   23 ar   
    26   23   24 ar   
    27   24   25 ar   
    28   25   26 ar   
@<TRIPOS>SUBSTRUCTURE
     1 SAH302      1 GROUP   
@<TRIPOS>SET

