#    Name: 6ikz_1_UTP_CAVITY_N1_8
#    Modification time : Fri May 22 19:31:49 2020

@<TRIPOS>MOLECULE
6ikz_1_UTP_CAVITY_N1_8
   36     0     6     0     0
SMALL
NO_CHARGES


@<TRIPOS>ATOM
      1 OG          9.3200   23.6200  -32.4900 O.3       1 SER1        0.0000 
      2 O           8.6800   23.0200  -34.4100 O.2       2 ALA2        0.0000 
      3 N          12.4900   22.2400  -29.6000 N.am      2 ALA2        0.0000 
      4 OD1        13.6400   18.4500  -31.1200 O.co2     3 ASP3        0.0000 
      5 OD1        14.3700   19.6400  -30.5700 O.co2     3 ASP3        0.0000 
      6 OD1        16.5000   20.7100  -31.6100 O.co2     3 ASP3        0.0000 
      7 NZ         12.3400   19.1600  -30.9100 N.4       4 LYS4        0.0000 
      8 NZ         14.2800   19.0600  -29.1900 N.4       4 LYS4        0.0000 
      9 NZ         12.9700   19.7700  -28.9800 N.4       4 LYS4        0.0000 
     10 NZ         13.4300   22.6700  -35.8800 N.4       4 LYS4        0.0000 
     11 NZ         12.0300   22.8000  -34.2900 N.4       4 LYS4        0.0000 
     12 NZ         15.1000   20.8300  -30.0200 N.4       4 LYS4        0.0000 
     13 NZ         15.8300   22.0200  -29.4700 N.4       4 LYS4        0.0000 
     14 CA          9.1700   20.5400  -33.7900 C.3       5 GLY6        0.0000 
     15 CA          7.9500   21.8300  -34.9600 C.3       5 GLY6        0.0000 
     16 CA         11.0300   19.8600  -30.7000 C.3       5 GLY6        0.0000 
     17 CA         11.1200   20.4400  -32.0800 C.3       5 GLY6        0.0000 
     18 CA          9.8100   21.1500  -31.8700 C.3       5 GLY6        0.0000 
     19 CA          9.9000   21.7300  -33.2500 C.3       5 GLY6        0.0000 
     20 CA          8.5900   22.4300  -33.0300 C.3       5 GLY6        0.0000 
     21 CA         11.6700   20.4700  -28.7700 C.3       5 GLY6        0.0000 
     22 CA         11.7600   21.0500  -30.1500 C.3       5 GLY6        0.0000 
     23 CA         10.4500   21.7600  -29.9400 C.3       5 GLY6        0.0000 
     24 CA         10.5400   22.3400  -31.3200 C.3       5 GLY6        0.0000 
     25 CA          9.2300   23.0400  -31.1100 C.3       5 GLY6        0.0000 
     26 CA         13.7000   20.9600  -28.4300 C.3       5 GLY6        0.0000 
     27 DU         11.2100   21.0300  -33.4600 H         6 CUB7        0.0000 
     28 DU         11.3000   21.6100  -34.8400 H         6 CUB7        0.0000 
     29 DU          9.9900   22.3100  -34.6300 H         6 CUB7        0.0000 
     30 DU         14.4600   20.2300  -31.9500 H         6 CUB7        0.0000 
     31 DU         13.0600   20.3500  -30.3600 H         6 CUB7        0.0000 
     32 DU         13.3400   22.0900  -34.5000 H         6 CUB7        0.0000 
     33 DU         11.8500   21.6300  -31.5300 H         6 CUB7        0.0000 
     34 DU         10.6300   22.9200  -32.7000 H         6 CUB7        0.0000 
     35 DU         15.1900   21.4200  -31.4000 H         6 CUB7        0.0000 
     36 DU         13.7900   21.5400  -29.8100 H         6 CUB7        0.0000 
@<TRIPOS>BOND
@<TRIPOS>SUBSTRUCTURE
     1 SER1        1 GROUP   
     2 ALA2        2 GROUP   
     3 ASP3        4 GROUP   
     4 LYS4        7 GROUP   
     5 GLY6       14 GROUP   
     6 CUB7       27 GROUP   
@<TRIPOS>SET

