#    Name: 6ikz_1_UTP
#    Modification time : Fri May 22 19:31:48 2020

@<TRIPOS>MOLECULE
6ikz_1_UTP
   29    30     1     0     0
SMALL
NO_CHARGES


@<TRIPOS>ATOM
      1 PA         12.6940   13.3440  -34.1710 P.3       1 UTP301      0.0000 
      2 O1A        12.3440   13.9220  -35.5040 O.co2     1 UTP301      0.0000 
      3 O2A        12.9730   11.8820  -34.1370 O.co2     1 UTP301      0.0000 
      4 O3A        13.9620   14.1260  -33.5610 O.3       1 UTP301      0.0000 
      5 O5'        11.5530   13.7220  -33.0940 O.3       1 UTP301      0.0000 
      6 PB         15.5110   13.8330  -33.2560 P.3       1 UTP301      0.0000 
      7 O1B        15.9400   14.7000  -32.1210 O.co2     1 UTP301      0.0000 
      8 O2B        15.7530   12.3640  -33.1850 O.co2     1 UTP301      0.0000 
      9 O3B        16.1960   14.3820  -34.5960 O.3       1 UTP301      0.0000 
     10 PG         16.0670   13.9650  -36.1540 P.3       1 UTP301      0.0000 
     11 O1G        15.2850   12.6660  -36.1680 O.co2     1 UTP301      0.0000 
     12 O2G        15.3310   15.0910  -36.8340 O.co2     1 UTP301      0.0000 
     13 O3G        17.4860   13.8120  -36.6600 O.co2     1 UTP301      0.0000 
     14 C5'        10.5310   14.6950  -33.4710 C.3       1 UTP301      0.0000 
     15 C4'         9.8230   15.2670  -32.2590 C.3       1 UTP301      0.0000 
     16 O4'         8.5420   15.8430  -32.6390 O.3       1 UTP301      0.0000 
     17 C1'         7.5570   14.8280  -32.5960 C.3       1 UTP301      0.0000 
     18 C2'         8.1860   13.6340  -31.8550 C.3       1 UTP301      0.0000 
     19 O2'         7.3600   13.0210  -30.8880 O.3       1 UTP301      0.0000 
     20 C3'         9.4060   14.2700  -31.1760 C.3       1 UTP301      0.0000 
     21 O3'         9.0960   14.9150  -29.9450 O.3       1 UTP301      0.0000 
     22 N1          7.1730   14.4720  -33.9860 N.am      1 UTP301      0.0000 
     23 C6          7.7980   15.0300  -35.0830 C.2       1 UTP301      0.0000 
     24 C2          6.2090   13.4910  -34.1550 C.2       1 UTP301      0.0000 
     25 O2          5.6310   12.9420  -33.2270 O.2       1 UTP301      0.0000 
     26 N3          5.9350   13.1590  -35.4600 N.am      1 UTP301      0.0000 
     27 C4          6.5140   13.6780  -36.6020 C.2       1 UTP301      0.0000 
     28 O4          6.1560   13.2590  -37.7070 O.2       1 UTP301      0.0000 
     29 C5          7.5060   14.6840  -36.3500 C.2       1 UTP301      0.0000 
@<TRIPOS>BOND
     1    1    2 ar   
     2    1    3 ar   
     3    1    4 1    
     4    1    5 1    
     5    4    6 1    
     6    5   14 1    
     7    6    7 ar   
     8    6    8 ar   
     9    6    9 1    
    10    9   10 1    
    11   10   11 ar   
    12   10   12 ar   
    13   10   13 ar   
    14   14   15 1    
    15   15   16 1    
    16   15   20 1    
    17   16   17 1    
    18   17   18 1    
    19   17   22 1    
    20   18   19 1    
    21   18   20 1    
    22   20   21 1    
    23   22   23 1    
    24   22   24 1    
    25   23   29 2    
    26   24   25 2    
    27   24   26 1    
    28   26   27 1    
    29   27   28 2    
    30   27   29 1    
@<TRIPOS>SUBSTRUCTURE
     1 UTP301      1 GROUP   
@<TRIPOS>SET

