#    Name: 6ikz_1_UTP_CAVITY_N1_ALL
#    Modification time : Fri May 22 19:31:49 2020

@<TRIPOS>MOLECULE
6ikz_1_UTP_CAVITY_N1_ALL
   70     0     7     0     0
SMALL
NO_CHARGES


@<TRIPOS>ATOM
      1 OG          7.3800   23.7200  -34.2000 O.3       1 SER1        0.0000 
      2 OG          9.3200   23.6200  -32.4900 O.3       1 SER1        0.0000 
      3 OG          9.4100   24.2100  -33.8700 O.3       1 SER1        0.0000 
      4 OG          8.1100   24.9100  -33.6500 O.3       1 SER1        0.0000 
      5 O           8.6800   23.0200  -34.4100 O.2       2 ALA2        0.0000 
      6 O           8.7700   23.6000  -35.7900 O.2       2 ALA2        0.0000 
      7 O           8.8600   24.1800  -37.1700 O.2       2 ALA2        0.0000 
      8 O           7.4700   24.3000  -35.5800 O.2       2 ALA2        0.0000 
      9 N          14.0700   23.2800  -33.9500 N.am      2 ALA2        0.0000 
     10 N          12.4900   22.2400  -29.6000 N.am      2 ALA2        0.0000 
     11 N          11.1800   22.9500  -29.3900 N.am      2 ALA2        0.0000 
     12 N          11.2700   23.5300  -30.7700 N.am      2 ALA2        0.0000 
     13 N          11.3600   24.1100  -32.1500 N.am      2 ALA2        0.0000 
     14 N           9.9600   24.2300  -30.5600 N.am      2 ALA2        0.0000 
     15 N          10.0500   24.8100  -31.9400 N.am      2 ALA2        0.0000 
     16 N          16.0100   23.1900  -32.2300 N.am      2 ALA2        0.0000 
     17 N          14.8000   24.4700  -33.4000 N.am      2 ALA2        0.0000 
     18 N          13.2200   23.4300  -29.0500 N.am      2 ALA2        0.0000 
     19 N          13.4000   24.6000  -31.8100 N.am      2 ALA2        0.0000 
     20 O          13.4900   25.1800  -33.1900 O.2       2 ALA2        0.0000 
     21 O          12.1800   25.8800  -32.9800 O.2       2 ALA2        0.0000 
     22 OD1        13.6400   18.4500  -31.1200 O.co2     3 ASP3        0.0000 
     23 OD1        14.3700   19.6400  -30.5700 O.co2     3 ASP3        0.0000 
     24 OD1        16.5000   20.7100  -31.6100 O.co2     3 ASP3        0.0000 
     25 NZ         12.3400   19.1600  -30.9100 N.4       4 LYS4        0.0000 
     26 NZ         14.2800   19.0600  -29.1900 N.4       4 LYS4        0.0000 
     27 NZ         12.9700   19.7700  -28.9800 N.4       4 LYS4        0.0000 
     28 NZ         13.4300   22.6700  -35.8800 N.4       4 LYS4        0.0000 
     29 NZ         12.0300   22.8000  -34.2900 N.4       4 LYS4        0.0000 
     30 NZ         12.1200   23.3800  -35.6700 N.4       4 LYS4        0.0000 
     31 NZ         10.7200   23.5000  -34.0800 N.4       4 LYS4        0.0000 
     32 NZ          9.5000   24.7900  -35.2500 N.4       4 LYS4        0.0000 
     33 NZ         15.1000   20.8300  -30.0200 N.4       4 LYS4        0.0000 
     34 NZ         12.7600   23.9900  -33.7400 N.4       4 LYS4        0.0000 
     35 NZ         11.4500   24.6900  -33.5300 N.4       4 LYS4        0.0000 
     36 NZ         10.2300   25.9800  -34.7000 N.4       4 LYS4        0.0000 
     37 NZ         15.8300   22.0200  -29.4700 N.4       4 LYS4        0.0000 
     38 CZ         14.6200   23.3100  -30.6400 C.ar      5 PHE5        0.0000 
     39 CZ         14.7100   23.8900  -32.0200 C.ar      5 PHE5        0.0000 
     40 CA          9.1700   20.5400  -33.7900 C.3       6 GLY6        0.0000 
     41 CA          7.9500   21.8300  -34.9600 C.3       6 GLY6        0.0000 
     42 CA         11.0300   19.8600  -30.7000 C.3       6 GLY6        0.0000 
     43 CA         11.1200   20.4400  -32.0800 C.3       6 GLY6        0.0000 
     44 CA          9.8100   21.1500  -31.8700 C.3       6 GLY6        0.0000 
     45 CA          9.9000   21.7300  -33.2500 C.3       6 GLY6        0.0000 
     46 CA          8.5900   22.4300  -33.0300 C.3       6 GLY6        0.0000 
     47 CA         11.6700   20.4700  -28.7700 C.3       6 GLY6        0.0000 
     48 CA         11.7600   21.0500  -30.1500 C.3       6 GLY6        0.0000 
     49 CA         10.4500   21.7600  -29.9400 C.3       6 GLY6        0.0000 
     50 CA         10.5400   22.3400  -31.3200 C.3       6 GLY6        0.0000 
     51 CA          9.2300   23.0400  -31.1100 C.3       6 GLY6        0.0000 
     52 CA          8.2000   25.4900  -35.0300 C.3       6 GLY6        0.0000 
     53 CA         13.7000   20.9600  -28.4300 C.3       6 GLY6        0.0000 
     54 CA         10.1400   25.4000  -33.3200 C.3       6 GLY6        0.0000 
     55 CA          8.9300   26.6800  -34.4900 C.3       6 GLY6        0.0000 
     56 CA          9.0200   27.2600  -35.8700 C.3       6 GLY6        0.0000 
     57 DU         11.2100   21.0300  -33.4600 H         7 CUB7        0.0000 
     58 DU         11.3000   21.6100  -34.8400 H         7 CUB7        0.0000 
     59 DU          9.9900   22.3100  -34.6300 H         7 CUB7        0.0000 
     60 DU         14.4600   20.2300  -31.9500 H         7 CUB7        0.0000 
     61 DU         13.0600   20.3500  -30.3600 H         7 CUB7        0.0000 
     62 DU         13.3400   22.0900  -34.5000 H         7 CUB7        0.0000 
     63 DU         11.8500   21.6300  -31.5300 H         7 CUB7        0.0000 
     64 DU         10.6300   22.9200  -32.7000 H         7 CUB7        0.0000 
     65 DU         15.1900   21.4200  -31.4000 H         7 CUB7        0.0000 
     66 DU         13.7900   21.5400  -29.8100 H         7 CUB7        0.0000 
     67 DU         13.9800   22.7000  -32.5700 H         7 CUB7        0.0000 
     68 DU         12.5800   22.8200  -30.9800 H         7 CUB7        0.0000 
     69 DU         12.6700   23.4100  -32.3600 H         7 CUB7        0.0000 
     70 DU         14.5200   22.7300  -29.2600 H         7 CUB7        0.0000 
@<TRIPOS>BOND
@<TRIPOS>SUBSTRUCTURE
     1 SER1        1 GROUP   
     2 ALA2        5 GROUP   
     3 ASP3       22 GROUP   
     4 LYS4       25 GROUP   
     5 PHE5       38 GROUP   
     6 GLY6       40 GROUP   
     7 CUB7       57 GROUP   
@<TRIPOS>SET

