#    Name: 6g2y_1_ADP
#    Modification time : Fri May 22 19:32:32 2020

@<TRIPOS>MOLECULE
6g2y_1_ADP
   27    29     1     0     1
SMALL
NO_CHARGES


@<TRIPOS>ATOM
      1 PB         -1.6110  -36.3910    1.3000 P.3       1 ADP807      0.0000 
      2 O1B        -0.5650  -37.1550    0.5350 O.co2     1 ADP807      0.0000 
      3 O2B        -1.3590  -36.4180    2.8090 O.co2     1 ADP807      0.0000 
      4 O3B        -1.9720  -35.0870    0.6720 O.co2     1 ADP807      0.0000 
      5 PA         -3.6000  -38.0940    2.4440 P.3       1 ADP807      0.0000 
      6 O1A        -2.5650  -39.0570    2.9370 O.co2     1 ADP807      0.0000 
      7 O2A        -4.2540  -37.1580    3.4300 O.co2     1 ADP807      0.0000 
      8 O3A        -2.9620  -37.2960    1.1860 O.3       1 ADP807      0.0000 
      9 O5'        -4.7450  -38.9820    1.7110 O.3       1 ADP807      0.0000 
     10 C5'        -6.0400  -38.4610    1.4270 C.3       1 ADP807      0.0000 
     11 C4'        -7.0700  -39.5890    1.3720 C.3       1 ADP807      0.0000 
     12 O4'        -6.9350  -40.3070    0.1450 O.3       1 ADP807      0.0000 
     13 C3'        -6.9120  -40.6380    2.4550 C.3       1 ADP807      0.0000 
     14 O3'        -7.6150  -40.2860    3.6570 O.3       1 ADP807      0.0000 
     15 C2'        -7.4560  -41.8850    1.7990 C.3       1 ADP807      0.0000 
     16 O2'        -8.8890  -41.8990    1.7580 O.3       1 ADP807      0.0000 
     17 C1'        -7.0460  -41.7180    0.3600 C.3       1 ADP807      0.0000 
     18 N9         -5.7040  -42.3040    0.1250 N.pl3     1 ADP807      0.0000 
     19 C8         -4.6410  -41.5980   -0.3090 C.2       1 ADP807      0.0000 
     20 N7         -3.5660  -42.4140   -0.4610 N.2       1 ADP807      0.0000 
     21 C5         -3.9500  -43.6620   -0.1360 C.ar      1 ADP807      0.0000 
     22 C6         -3.2920  -44.9760   -0.0580 C.ar      1 ADP807      0.0000 
     23 N6         -1.9750  -45.1190   -0.4050 N.pl3     1 ADP807      0.0000 
     24 N1         -4.0410  -46.0230    0.3630 N.ar      1 ADP807      0.0000 
     25 C2         -5.3470  -45.8990    0.6990 C.ar      1 ADP807      0.0000 
     26 N3         -5.9970  -44.7200    0.6400 N.ar      1 ADP807      0.0000 
     27 C4         -5.3650  -43.5900    0.2410 C.ar      1 ADP807      0.0000 
@<TRIPOS>BOND
     1    1    2 ar   
     2    1    3 ar   
     3    1    4 ar   
     4    1    8 1    
     5    5    6 ar   
     6    5    7 ar   
     7    5    8 1    
     8    5    9 1    
     9    9   10 1    
    10   10   11 1    
    11   11   12 1    
    12   11   13 1    
    13   12   17 1    
    14   13   14 1    
    15   13   15 1    
    16   15   16 1    
    17   15   17 1    
    18   17   18 1    
    19   18   19 1    
    20   18   27 1    
    21   19   20 2    
    22   20   21 1    
    23   21   22 ar   
    24   21   27 ar   
    25   22   23 1    
    26   22   24 ar   
    27   24   25 ar   
    28   25   26 ar   
    29   26   27 ar   
@<TRIPOS>SUBSTRUCTURE
     1 ADP807      1 GROUP   
@<TRIPOS>SET
ATOM$ORANGE STATIC     ATOMS   COLORGROUP SYSTEM 
20 10 10 11 11 13 13 15 15 17 17 19 19 21 21 22 22 25 \
25 27 27 

