#    Name: 6djv_1_AGS
#    Modification time : Fri May 22 19:40:01 2020

@<TRIPOS>MOLECULE
6djv_1_AGS
   31    33     1     0     0
SMALL
NO_CHARGES


@<TRIPOS>ATOM
      1 PG        123.3760  147.3700  168.5120 P.3       1 AGS901      0.0000 
      2 S1G       124.0120  145.5520  168.7460 S.2       1 AGS901      0.0000 
      3 O2G       124.1110  148.0420  167.3260 O.3       1 AGS901      0.0000 
      4 O3G       123.6190  148.2020  169.7960 O.3       1 AGS901      0.0000 
      5 PB        121.4420  147.0440  166.7290 P.3       1 AGS901      0.0000 
      6 O1B       122.5300  147.3660  165.7940 O.co2     1 AGS901      0.0000 
      7 O2B       120.1430  147.8090  166.5000 O.co2     1 AGS901      0.0000 
      8 O3B       121.8650  147.3540  168.1980 O.3       1 AGS901      0.0000 
      9 PA        120.2960  145.1830  165.2790 P.3       1 AGS901      0.0000 
     10 O1A       121.2190  145.0900  164.1460 O.co2     1 AGS901      0.0000 
     11 O2A       119.2000  146.2390  165.1650 O.co2     1 AGS901      0.0000 
     12 O3A       121.0560  145.5430  166.5910 O.3       1 AGS901      0.0000 
     13 O5'       119.6590  143.7800  165.5010 O.3       1 AGS901      0.0000 
     14 C5'       118.2450  143.7210  165.6440 C.3       1 AGS901      0.0000 
     15 C4'       117.7790  142.3230  165.3490 C.3       1 AGS901      0.0000 
     16 O4'       116.5100  142.1050  165.9890 O.3       1 AGS901      0.0000 
     17 C3'       117.5030  142.0520  163.8800 C.3       1 AGS901      0.0000 
     18 O3'       117.5430  140.6560  163.6090 O.3       1 AGS901      0.0000 
     19 C2'       116.0990  142.6320  163.7040 C.3       1 AGS901      0.0000 
     20 O2'       115.3560  141.9390  162.7080 O.3       1 AGS901      0.0000 
     21 C1'       115.4640  142.3980  165.0810 C.3       1 AGS901      0.0000 
     22 N9        114.7230  143.5400  165.6030 N.pl3     1 AGS901      0.0000 
     23 C8        114.9920  144.2130  166.7630 C.2       1 AGS901      0.0000 
     24 N7        114.1690  145.2020  167.0090 N.2       1 AGS901      0.0000 
     25 C5        113.2960  145.1770  165.9360 C.ar      1 AGS901      0.0000 
     26 C6        112.1870  145.9730  165.5990 C.ar      1 AGS901      0.0000 
     27 N6        111.7530  146.9920  166.3450 N.pl3     1 AGS901      0.0000 
     28 N1        111.5280  145.6820  164.4570 N.ar      1 AGS901      0.0000 
     29 C2        111.9580  144.6640  163.7090 C.ar      1 AGS901      0.0000 
     30 N3        112.9870  143.8420  163.9260 N.ar      1 AGS901      0.0000 
     31 C4        113.6220  144.1550  165.0620 C.ar      1 AGS901      0.0000 
@<TRIPOS>BOND
     1    1    2 2    
     2    1    3 1    
     3    1    4 1    
     4    1    8 1    
     5    5    6 ar   
     6    5    7 ar   
     7    5    8 1    
     8    5   12 1    
     9    9   10 ar   
    10    9   11 ar   
    11    9   12 1    
    12    9   13 1    
    13   13   14 1    
    14   14   15 1    
    15   15   16 1    
    16   15   17 1    
    17   16   21 1    
    18   17   18 1    
    19   17   19 1    
    20   19   20 1    
    21   19   21 1    
    22   21   22 1    
    23   22   23 1    
    24   22   31 1    
    25   23   24 2    
    26   24   25 1    
    27   25   26 ar   
    28   25   31 ar   
    29   26   27 1    
    30   26   28 ar   
    31   28   29 ar   
    32   29   30 ar   
    33   30   31 ar   
@<TRIPOS>SUBSTRUCTURE
     1 AGS901      1 GROUP   
@<TRIPOS>SET

