#    Name: 6djv_12_ADP
#    Modification time : Fri May 22 19:41:32 2020

@<TRIPOS>MOLECULE
6djv_12_ADP
   27    29     1     0     1
SMALL
NO_CHARGES


@<TRIPOS>ATOM
      1 PB        154.6240  196.1230  177.3370 P.3       1 ADP902      0.0000 
      2 O1B       155.6050  195.1480  176.7320 O.co2     1 ADP902      0.0000 
      3 O2B       153.2150  195.5940  177.4610 O.co2     1 ADP902      0.0000 
      4 O3B       155.1320  196.8370  178.5660 O.co2     1 ADP902      0.0000 
      5 PA        155.5770  197.3930  175.0360 P.3       1 ADP902      0.0000 
      6 O1A       155.4550  196.1540  174.1820 O.co2     1 ADP902      0.0000 
      7 O2A       156.9130  197.7700  175.6310 O.co2     1 ADP902      0.0000 
      8 O3A       154.5050  197.2890  176.2320 O.3       1 ADP902      0.0000 
      9 O5'       155.0340  198.6480  174.1860 O.3       1 ADP902      0.0000 
     10 C5'       155.8070  199.1860  173.1150 C.3       1 ADP902      0.0000 
     11 C4'       154.9510  200.1530  172.3070 C.3       1 ADP902      0.0000 
     12 O4'       154.8060  201.3820  173.0220 O.3       1 ADP902      0.0000 
     13 C3'       155.5920  200.4640  170.9620 C.3       1 ADP902      0.0000 
     14 O3'       154.7440  199.9890  169.9050 O.3       1 ADP902      0.0000 
     15 C2'       155.8200  201.9730  170.9420 C.3       1 ADP902      0.0000 
     16 O2'       155.1550  202.6490  169.8650 O.3       1 ADP902      0.0000 
     17 C1'       155.2980  202.4960  172.2720 C.3       1 ADP902      0.0000 
     18 N9        156.4000  203.1540  173.0190 N.pl3     1 ADP902      0.0000 
     19 C8        156.3500  203.5560  174.3030 C.2       1 ADP902      0.0000 
     20 N7        157.5240  204.1210  174.6850 N.2       1 ADP902      0.0000 
     21 C5        158.3530  204.0860  173.6250 C.ar      1 ADP902      0.0000 
     22 C6        159.7430  204.5160  173.3420 C.ar      1 ADP902      0.0000 
     23 N6        160.5000  205.1120  174.2950 N.pl3     1 ADP902      0.0000 
     24 N1        160.2290  204.2930  172.1010 N.ar      1 ADP902      0.0000 
     25 C2        159.4870  203.7020  171.1460 C.ar      1 ADP902      0.0000 
     26 N3        158.2210  203.2870  171.3330 N.ar      1 ADP902      0.0000 
     27 C4        157.6070  203.4480  172.5300 C.ar      1 ADP902      0.0000 
@<TRIPOS>BOND
     1    1    2 ar   
     2    1    3 ar   
     3    1    4 ar   
     4    1    8 1    
     5    5    6 ar   
     6    5    7 ar   
     7    5    8 1    
     8    5    9 1    
     9    9   10 1    
    10   10   11 1    
    11   11   12 1    
    12   11   13 1    
    13   12   17 1    
    14   13   14 1    
    15   13   15 1    
    16   15   16 1    
    17   15   17 1    
    18   17   18 1    
    19   18   19 1    
    20   18   27 1    
    21   19   20 2    
    22   20   21 1    
    23   21   22 ar   
    24   21   27 ar   
    25   22   23 1    
    26   22   24 ar   
    27   24   25 ar   
    28   25   26 ar   
    29   26   27 ar   
@<TRIPOS>SUBSTRUCTURE
     1 ADP902      1 GROUP   
@<TRIPOS>SET
ATOM$ORANGE STATIC     ATOMS   COLORGROUP SYSTEM 
20 10 10 11 11 13 13 15 15 17 17 19 19 21 21 22 22 25 \
25 27 27 

