#    Name: 6djv_8_AGS
#    Modification time : Fri May 22 19:41:04 2020

@<TRIPOS>MOLECULE
6djv_8_AGS
   31    33     1     0     0
SMALL
NO_CHARGES


@<TRIPOS>ATOM
      1 PG        183.5710  139.7530  155.1450 P.3       1 AGS902      0.0000 
      2 S1G       183.9870  141.4950  155.9020 S.2       1 AGS902      0.0000 
      3 O2G       184.5460  139.4110  153.9840 O.3       1 AGS902      0.0000 
      4 O3G       182.1130  139.7470  154.6080 O.3       1 AGS902      0.0000 
      5 PB        184.6030  137.4330  155.7470 P.3       1 AGS902      0.0000 
      6 O1B       184.1920  137.0360  154.3890 O.co2     1 AGS902      0.0000 
      7 O2B       184.5310  136.3590  156.8320 O.co2     1 AGS902      0.0000 
      8 O3B       183.7220  138.6380  156.2060 O.3       1 AGS902      0.0000 
      9 PA        187.0090  137.1090  154.7000 P.3       1 AGS902      0.0000 
     10 O1A       186.8890  137.6770  153.3440 O.co2     1 AGS902      0.0000 
     11 O2A       186.6260  135.6340  154.8120 O.co2     1 AGS902      0.0000 
     12 O3A       186.0970  137.8690  155.7160 O.3       1 AGS902      0.0000 
     13 O5'       188.4450  137.3700  155.2580 O.3       1 AGS902      0.0000 
     14 C5'       188.6460  137.3930  156.6750 C.3       1 AGS902      0.0000 
     15 C4'       190.1190  137.5410  156.9420 C.3       1 AGS902      0.0000 
     16 O4'       190.5160  136.5960  157.9590 O.3       1 AGS902      0.0000 
     17 C3'       191.0240  137.2650  155.7460 C.3       1 AGS902      0.0000 
     18 O3'       192.2080  138.0500  155.8170 O.3       1 AGS902      0.0000 
     19 C2'       191.3340  135.7800  155.9040 C.3       1 AGS902      0.0000 
     20 O2'       192.5770  135.4280  155.3110 O.3       1 AGS902      0.0000 
     21 C1'       191.4290  135.6590  157.4220 C.3       1 AGS902      0.0000 
     22 N9        191.0840  134.3430  157.9350 N.pl3     1 AGS902      0.0000 
     23 C8        190.0050  134.0270  158.7150 C.2       1 AGS902      0.0000 
     24 N7        189.9320  132.7590  159.0370 N.2       1 AGS902      0.0000 
     25 C5        191.0420  132.2020  158.4250 C.ar      1 AGS902      0.0000 
     26 C6        191.5400  130.8880  158.3840 C.ar      1 AGS902      0.0000 
     27 N6        190.9580  129.8570  158.9990 N.pl3     1 AGS902      0.0000 
     28 N1        192.6750  130.6700  157.6880 N.ar      1 AGS902      0.0000 
     29 C2        193.2610  131.6990  157.0720 C.ar      1 AGS902      0.0000 
     30 N3        192.8860  132.9790  157.0410 N.ar      1 AGS902      0.0000 
     31 C4        191.7620  133.1660  157.7420 C.ar      1 AGS902      0.0000 
@<TRIPOS>BOND
     1    1    2 2    
     2    1    3 1    
     3    1    4 1    
     4    1    8 1    
     5    5    6 ar   
     6    5    7 ar   
     7    5    8 1    
     8    5   12 1    
     9    9   10 ar   
    10    9   11 ar   
    11    9   12 1    
    12    9   13 1    
    13   13   14 1    
    14   14   15 1    
    15   15   16 1    
    16   15   17 1    
    17   16   21 1    
    18   17   18 1    
    19   17   19 1    
    20   19   20 1    
    21   19   21 1    
    22   21   22 1    
    23   22   23 1    
    24   22   31 1    
    25   23   24 2    
    26   24   25 1    
    27   25   26 ar   
    28   25   31 ar   
    29   26   27 1    
    30   26   28 ar   
    31   28   29 ar   
    32   29   30 ar   
    33   30   31 ar   
@<TRIPOS>SUBSTRUCTURE
     1 AGS902      1 GROUP   
@<TRIPOS>SET

