#    Name: 6djv_6_AGS
#    Modification time : Fri May 22 19:40:50 2020

@<TRIPOS>MOLECULE
6djv_6_AGS
   31    33     1     0     0
SMALL
NO_CHARGES


@<TRIPOS>ATOM
      1 PG        158.0580  125.0580  144.2750 P.3       1 AGS902      0.0000 
      2 S1G       159.9520  125.0580  144.7290 S.2       1 AGS902      0.0000 
      3 O2G       157.8690  125.2410  142.7450 O.3       1 AGS902      0.0000 
      4 O3G       157.3290  126.1920  145.0410 O.3       1 AGS902      0.0000 
      5 PB        157.6850  122.5200  143.7030 P.3       1 AGS902      0.0000 
      6 O1B       157.8990  123.0090  142.3280 O.co2     1 AGS902      0.0000 
      7 O2B       156.4530  121.6370  143.8440 O.co2     1 AGS902      0.0000 
      8 O3B       157.4410  123.7050  144.6830 O.3       1 AGS902      0.0000 
      9 PA        158.8600  120.1240  143.7900 P.3       1 AGS902      0.0000 
     10 O1A       159.3370  119.9460  142.4150 O.co2     1 AGS902      0.0000 
     11 O2A       157.4350  119.6270  144.0130 O.co2     1 AGS902      0.0000 
     12 O3A       158.8780  121.6380  144.1890 O.3       1 AGS902      0.0000 
     13 O5'       159.8470  119.4060  144.7770 O.3       1 AGS902      0.0000 
     14 C5'       159.3670  118.3430  145.6130 C.3       1 AGS902      0.0000 
     15 C4'       160.2510  117.1420  145.4110 C.3       1 AGS902      0.0000 
     16 O4'       159.6130  115.9780  145.9710 O.3       1 AGS902      0.0000 
     17 C3'       160.5220  116.7790  143.9590 C.3       1 AGS902      0.0000 
     18 O3'       161.7410  116.0570  143.8370 O.3       1 AGS902      0.0000 
     19 C2'       159.3230  115.9000  143.6140 C.3       1 AGS902      0.0000 
     20 O2'       159.6490  114.9570  142.6010 O.3       1 AGS902      0.0000 
     21 C1'       159.0550  115.1850  144.9400 C.3       1 AGS902      0.0000 
     22 N9        157.6420  115.0140  145.2260 N.pl3     1 AGS902      0.0000 
     23 C8        156.8540  115.8370  145.9840 C.2       1 AGS902      0.0000 
     24 N7        155.6080  115.4460  146.0750 N.2       1 AGS902      0.0000 
     25 C5        155.5720  114.2860  145.3210 C.ar      1 AGS902      0.0000 
     26 C6        154.5370  113.3860  145.0190 C.ar      1 AGS902      0.0000 
     27 N6        153.2840  113.5250  145.4580 N.pl3     1 AGS902      0.0000 
     28 N1        154.8360  112.3250  144.2380 N.ar      1 AGS902      0.0000 
     29 C2        156.0890  112.1830  143.7980 C.ar      1 AGS902      0.0000 
     30 N3        157.1460  112.9660  144.0170 N.ar      1 AGS902      0.0000 
     31 C4        156.8200  114.0060  144.7940 C.ar      1 AGS902      0.0000 
@<TRIPOS>BOND
     1    1    2 2    
     2    1    3 1    
     3    1    4 1    
     4    1    8 1    
     5    5    6 ar   
     6    5    7 ar   
     7    5    8 1    
     8    5   12 1    
     9    9   10 ar   
    10    9   11 ar   
    11    9   12 1    
    12    9   13 1    
    13   13   14 1    
    14   14   15 1    
    15   15   16 1    
    16   15   17 1    
    17   16   21 1    
    18   17   18 1    
    19   17   19 1    
    20   19   20 1    
    21   19   21 1    
    22   21   22 1    
    23   22   23 1    
    24   22   31 1    
    25   23   24 2    
    26   24   25 1    
    27   25   26 ar   
    28   25   31 ar   
    29   26   27 1    
    30   26   28 ar   
    31   28   29 ar   
    32   29   30 ar   
    33   30   31 ar   
@<TRIPOS>SUBSTRUCTURE
     1 AGS902      1 GROUP   
@<TRIPOS>SET

