#    Name: 6djv_4_AGS
#    Modification time : Fri May 22 19:40:30 2020

@<TRIPOS>MOLECULE
6djv_4_AGS
   31    33     1     0     0
SMALL
NO_CHARGES


@<TRIPOS>ATOM
      1 PG        135.6850  140.8370  131.1030 P.3       1 AGS902      0.0000 
      2 S1G       136.0440  139.0200  131.6980 S.2       1 AGS902      0.0000 
      3 O2G       136.1720  140.9950  129.6340 O.3       1 AGS902      0.0000 
      4 O3G       136.4210  141.8520  132.0200 O.3       1 AGS902      0.0000 
      5 PB        133.3670  140.5630  129.9250 P.3       1 AGS902      0.0000 
      6 O1B       134.1030  140.8140  128.6700 O.co2     1 AGS902      0.0000 
      7 O2B       131.9530  141.1300  130.0140 O.co2     1 AGS902      0.0000 
      8 O3B       134.1670  141.1310  131.1360 O.3       1 AGS902      0.0000 
      9 PA        132.2140  138.3420  129.1190 P.3       1 AGS902      0.0000 
     10 O1A       132.9430  137.9500  127.9070 O.co2     1 AGS902      0.0000 
     11 O2A       131.0650  139.3320  128.9370 O.co2     1 AGS902      0.0000 
     12 O3A       133.1820  139.0340  130.1190 O.3       1 AGS902      0.0000 
     13 O5'       131.7500  137.0460  129.8620 O.3       1 AGS902      0.0000 
     14 C5'       130.6140  137.0670  130.7290 C.3       1 AGS902      0.0000 
     15 C4'       130.0150  135.6880  130.7180 C.3       1 AGS902      0.0000 
     16 O4'       128.6050  135.7800  131.0100 O.3       1 AGS902      0.0000 
     17 C3'       130.0980  134.9750  129.3750 C.3       1 AGS902      0.0000 
     18 O3'       130.0870  133.5660  129.5620 O.3       1 AGS902      0.0000 
     19 C2'       128.8250  135.4510  128.6840 C.3       1 AGS902      0.0000 
     20 O2'       128.3990  134.5340  127.6840 O.3       1 AGS902      0.0000 
     21 C1'       127.8490  135.4660  129.8570 C.3       1 AGS902      0.0000 
     22 N9        126.7790  136.4450  129.7340 N.pl3     1 AGS902      0.0000 
     23 C8        126.7250  137.6860  130.3080 C.2       1 AGS902      0.0000 
     24 N7        125.6340  138.3560  130.0300 N.2       1 AGS902      0.0000 
     25 C5        124.9210  137.4960  129.2130 C.ar      1 AGS902      0.0000 
     26 C6        123.6710  137.6100  128.5790 C.ar      1 AGS902      0.0000 
     27 N6        122.8910  138.6880  128.6710 N.pl3     1 AGS902      0.0000 
     28 N1        123.2490  136.5670  127.8320 N.ar      1 AGS902      0.0000 
     29 C2        124.0280  135.4880  127.7360 C.ar      1 AGS902      0.0000 
     30 N3        125.2220  135.2660  128.2910 N.ar      1 AGS902      0.0000 
     31 C4        125.6140  136.3150  129.0200 C.ar      1 AGS902      0.0000 
@<TRIPOS>BOND
     1    1    2 2    
     2    1    3 1    
     3    1    4 1    
     4    1    8 1    
     5    5    6 ar   
     6    5    7 ar   
     7    5    8 1    
     8    5   12 1    
     9    9   10 ar   
    10    9   11 ar   
    11    9   12 1    
    12    9   13 1    
    13   13   14 1    
    14   14   15 1    
    15   15   16 1    
    16   15   17 1    
    17   16   21 1    
    18   17   18 1    
    19   17   19 1    
    20   19   20 1    
    21   19   21 1    
    22   21   22 1    
    23   22   23 1    
    24   22   31 1    
    25   23   24 2    
    26   24   25 1    
    27   25   26 ar   
    28   25   31 ar   
    29   26   27 1    
    30   26   28 ar   
    31   28   29 ar   
    32   29   30 ar   
    33   30   31 ar   
@<TRIPOS>SUBSTRUCTURE
     1 AGS902      1 GROUP   
@<TRIPOS>SET

