#    Name: 6djv_3_AGS
#    Modification time : Fri May 22 19:40:20 2020

@<TRIPOS>MOLECULE
6djv_3_AGS
   31    33     1     0     0
SMALL
NO_CHARGES


@<TRIPOS>ATOM
      1 PG        143.7470  127.1400  181.0420 P.3       1 AGS901      0.0000 
      2 S1G       145.5480  127.0960  181.7730 S.2       1 AGS901      0.0000 
      3 O2G       143.8360  127.2660  179.4990 O.3       1 AGS901      0.0000 
      4 O3G       142.9670  128.3580  181.6040 O.3       1 AGS901      0.0000 
      5 PB        142.9500  124.6720  180.3690 P.3       1 AGS901      0.0000 
      6 O1B       142.9740  125.2200  179.0080 O.co2     1 AGS901      0.0000 
      7 O2B       141.7070  123.8320  180.6660 O.co2     1 AGS901      0.0000 
      8 O3B       142.9910  125.8400  181.4220 O.3       1 AGS901      0.0000 
      9 PA        144.1280  122.4780  179.5300 P.3       1 AGS901      0.0000 
     10 O1A       145.1070  122.6760  178.4520 O.co2     1 AGS901      0.0000 
     11 O2A       142.6750  122.4200  179.0680 O.co2     1 AGS901      0.0000 
     12 O3A       144.1430  123.6750  180.5400 O.3       1 AGS901      0.0000 
     13 O5'       144.5320  121.1920  180.3480 O.3       1 AGS901      0.0000 
     14 C5'       145.9090  120.8020  180.4600 C.3       1 AGS901      0.0000 
     15 C4'       146.0140  119.2980  180.4760 C.3       1 AGS901      0.0000 
     16 O4'       144.9760  118.7410  181.3100 O.3       1 AGS901      0.0000 
     17 C3'       145.8850  118.6200  179.1140 C.3       1 AGS901      0.0000 
     18 O3'       146.8160  117.5520  179.0040 O.3       1 AGS901      0.0000 
     19 C2'       144.4500  118.0960  179.1210 C.3       1 AGS901      0.0000 
     20 O2'       144.3280  116.9180  178.3360 O.3       1 AGS901      0.0000 
     21 C1'       144.2620  117.7570  180.5930 C.3       1 AGS901      0.0000 
     22 N9        142.8780  117.7960  181.0360 N.pl3     1 AGS901      0.0000 
     23 C8        142.3400  118.6810  181.9290 C.2       1 AGS901      0.0000 
     24 N7        141.0630  118.4990  182.1580 N.2       1 AGS901      0.0000 
     25 C5        140.7360  117.4200  181.3530 C.ar      1 AGS901      0.0000 
     26 C6        139.5280  116.7350  181.1340 C.ar      1 AGS901      0.0000 
     27 N6        138.3770  117.0480  181.7330 N.pl3     1 AGS901      0.0000 
     28 N1        139.5430  115.6990  180.2680 N.ar      1 AGS901      0.0000 
     29 C2        140.6920  115.3800  179.6660 C.ar      1 AGS901      0.0000 
     30 N3        141.8900  115.9540  179.7930 N.ar      1 AGS901      0.0000 
     31 C4        141.8440  116.9780  180.6540 C.ar      1 AGS901      0.0000 
@<TRIPOS>BOND
     1    1    2 2    
     2    1    3 1    
     3    1    4 1    
     4    1    8 1    
     5    5    6 ar   
     6    5    7 ar   
     7    5    8 1    
     8    5   12 1    
     9    9   10 ar   
    10    9   11 ar   
    11    9   12 1    
    12    9   13 1    
    13   13   14 1    
    14   14   15 1    
    15   15   16 1    
    16   15   17 1    
    17   16   21 1    
    18   17   18 1    
    19   17   19 1    
    20   19   20 1    
    21   19   21 1    
    22   21   22 1    
    23   22   23 1    
    24   22   31 1    
    25   23   24 2    
    26   24   25 1    
    27   25   26 ar   
    28   25   31 ar   
    29   26   27 1    
    30   26   28 ar   
    31   28   29 ar   
    32   29   30 ar   
    33   30   31 ar   
@<TRIPOS>SUBSTRUCTURE
     1 AGS901      1 GROUP   
@<TRIPOS>SET

