#    Name: 6djv_10_AGS
#    Modification time : Fri May 22 19:41:22 2020

@<TRIPOS>MOLECULE
6djv_10_AGS
   31    33     1     0     0
SMALL
NO_CHARGES


@<TRIPOS>ATOM
      1 PG        167.7790  182.5610  122.1580 P.3       1 AGS902      0.0000 
      2 S1G       166.1170  182.0920  121.2600 S.2       1 AGS902      0.0000 
      3 O2G       168.6050  183.5400  121.2770 O.3       1 AGS902      0.0000 
      4 O3G       168.6280  181.2840  122.4040 O.3       1 AGS902      0.0000 
      5 PB        168.6740  183.8560  124.2960 P.3       1 AGS902      0.0000 
      6 O1B       169.9120  183.5710  123.5450 O.co2     1 AGS902      0.0000 
      7 O2B       168.6370  183.2530  125.7000 O.co2     1 AGS902      0.0000 
      8 O3B       167.4660  183.2200  123.5270 O.3       1 AGS902      0.0000 
      9 PA        168.4650  186.2070  123.0890 P.3       1 AGS902      0.0000 
     10 O1A       167.2960  185.8490  122.2720 O.co2     1 AGS902      0.0000 
     11 O2A       169.8030  185.8590  122.4370 O.co2     1 AGS902      0.0000 
     12 O3A       168.4610  185.4110  124.4410 O.3       1 AGS902      0.0000 
     13 O5'       168.3670  187.7350  123.4390 O.3       1 AGS902      0.0000 
     14 C5'       168.4300  188.7010  122.3770 C.3       1 AGS902      0.0000 
     15 C4'       167.2360  189.6150  122.4750 C.3       1 AGS902      0.0000 
     16 O4'       167.4510  190.5720  123.5340 O.3       1 AGS902      0.0000 
     17 C3'       166.9500  190.4480  121.2310 C.3       1 AGS902      0.0000 
     18 O3'       165.5630  190.7460  121.1410 O.3       1 AGS902      0.0000 
     19 C2'       167.7710  191.7110  121.4850 C.3       1 AGS902      0.0000 
     20 O2'       167.2140  192.8380  120.8210 O.3       1 AGS902      0.0000 
     21 C1'       167.6230  191.8700  122.9980 C.3       1 AGS902      0.0000 
     22 N9        168.7730  192.4820  123.6540 N.pl3     1 AGS902      0.0000 
     23 C8        169.6430  191.8740  124.5190 C.2       1 AGS902      0.0000 
     24 N7        170.5890  192.6640  124.9700 N.2       1 AGS902      0.0000 
     25 C5        170.3180  193.8780  124.3590 C.ar      1 AGS902      0.0000 
     26 C6        170.9560  195.1330  124.4200 C.ar      1 AGS902      0.0000 
     27 N6        172.0400  195.3780  125.1590 N.pl3     1 AGS902      0.0000 
     28 N1        170.4330  196.1380  123.6850 N.ar      1 AGS902      0.0000 
     29 C2        169.3510  195.8960  122.9400 C.ar      1 AGS902      0.0000 
     30 N3        168.6630  194.7600  122.8070 N.ar      1 AGS902      0.0000 
     31 C4        169.2030  193.7840  123.5440 C.ar      1 AGS902      0.0000 
@<TRIPOS>BOND
     1    1    2 2    
     2    1    3 1    
     3    1    4 1    
     4    1    8 1    
     5    5    6 ar   
     6    5    7 ar   
     7    5    8 1    
     8    5   12 1    
     9    9   10 ar   
    10    9   11 ar   
    11    9   12 1    
    12    9   13 1    
    13   13   14 1    
    14   14   15 1    
    15   15   16 1    
    16   15   17 1    
    17   16   21 1    
    18   17   18 1    
    19   17   19 1    
    20   19   20 1    
    21   19   21 1    
    22   21   22 1    
    23   22   23 1    
    24   22   31 1    
    25   23   24 2    
    26   24   25 1    
    27   25   26 ar   
    28   25   31 ar   
    29   26   27 1    
    30   26   28 ar   
    31   28   29 ar   
    32   29   30 ar   
    33   30   31 ar   
@<TRIPOS>SUBSTRUCTURE
     1 AGS902      1 GROUP   
@<TRIPOS>SET

