#    Name: 6djv_2_AGS
#    Modification time : Fri May 22 19:40:10 2020

@<TRIPOS>MOLECULE
6djv_2_AGS
   31    33     1     0     0
SMALL
NO_CHARGES


@<TRIPOS>ATOM
      1 PG        140.1900  169.8710  123.3750 P.3       1 AGS902      0.0000 
      2 S1G       139.5090  168.2050  122.6400 S.2       1 AGS902      0.0000 
      3 O2G       141.0360  170.6270  122.3140 O.3       1 AGS902      0.0000 
      4 O3G       141.0760  169.5690  124.6110 O.3       1 AGS902      0.0000 
      5 PB        138.4440  171.8000  122.7700 P.3       1 AGS902      0.0000 
      6 O1B       139.2680  171.8340  121.5480 O.co2     1 AGS902      0.0000 
      7 O2B       138.3210  173.1490  123.4730 O.co2     1 AGS902      0.0000 
      8 O3B       139.0320  170.7950  123.8180 O.3       1 AGS902      0.0000 
      9 PA        136.3480  172.1610  121.2150 P.3       1 AGS902      0.0000 
     10 O1A       136.7690  171.5870  119.9330 O.co2     1 AGS902      0.0000 
     11 O2A       136.7640  173.6150  121.4150 O.co2     1 AGS902      0.0000 
     12 O3A       136.9800  171.3980  122.4180 O.3       1 AGS902      0.0000 
     13 O5'       134.8030  171.9780  121.3830 O.3       1 AGS902      0.0000 
     14 C5'       134.0920  172.8180  122.2960 C.3       1 AGS902      0.0000 
     15 C4'       132.6300  172.7700  121.9470 C.3       1 AGS902      0.0000 
     16 O4'       131.9810  173.9540  122.4580 O.3       1 AGS902      0.0000 
     17 C3'       132.3180  172.7310  120.4540 C.3       1 AGS902      0.0000 
     18 O3'       131.1440  171.9690  120.2090 O.3       1 AGS902      0.0000 
     19 C2'       132.0940  174.2030  120.1190 C.3       1 AGS902      0.0000 
     20 O2'       131.2060  174.3550  119.0200 O.3       1 AGS902      0.0000 
     21 C1'       131.4240  174.6990  121.3950 C.3       1 AGS902      0.0000 
     22 N9        131.6440  176.1090  121.6660 N.pl3     1 AGS902      0.0000 
     23 C8        132.5550  176.6560  122.5300 C.2       1 AGS902      0.0000 
     24 N7        132.5270  177.9650  122.5760 N.2       1 AGS902      0.0000 
     25 C5        131.5270  178.3040  121.6800 C.ar      1 AGS902      0.0000 
     26 C6        131.0010  179.5410  121.2710 C.ar      1 AGS902      0.0000 
     27 N6        131.4340  180.7180  121.7280 N.pl3     1 AGS902      0.0000 
     28 N1        130.0030  179.5280  120.3610 N.ar      1 AGS902      0.0000 
     29 C2        129.5680  178.3540  119.9000 C.ar      1 AGS902      0.0000 
     30 N3        129.9860  177.1260  120.2120 N.ar      1 AGS902      0.0000 
     31 C4        130.9730  177.1700  121.1150 C.ar      1 AGS902      0.0000 
@<TRIPOS>BOND
     1    1    2 2    
     2    1    3 1    
     3    1    4 1    
     4    1    8 1    
     5    5    6 ar   
     6    5    7 ar   
     7    5    8 1    
     8    5   12 1    
     9    9   10 ar   
    10    9   11 ar   
    11    9   12 1    
    12    9   13 1    
    13   13   14 1    
    14   14   15 1    
    15   15   16 1    
    16   15   17 1    
    17   16   21 1    
    18   17   18 1    
    19   17   19 1    
    20   19   20 1    
    21   19   21 1    
    22   21   22 1    
    23   22   23 1    
    24   22   31 1    
    25   23   24 2    
    26   24   25 1    
    27   25   26 ar   
    28   25   31 ar   
    29   26   27 1    
    30   26   28 ar   
    31   28   29 ar   
    32   29   30 ar   
    33   30   31 ar   
@<TRIPOS>SUBSTRUCTURE
     1 AGS902      1 GROUP   
@<TRIPOS>SET

