#    Name: 6djv_7_AGS
#    Modification time : Fri May 22 19:40:54 2020

@<TRIPOS>MOLECULE
6djv_7_AGS
   31    33     1     0     0
SMALL
NO_CHARGES


@<TRIPOS>ATOM
      1 PG        176.7690  168.0370  198.2100 P.3       1 AGS901      0.0000 
      2 S1G       175.5510  169.7140  198.1160 S.2       1 AGS901      0.0000 
      3 O2G       176.5780  167.1590  196.8740 O.3       1 AGS901      0.0000 
      4 O3G       176.4000  167.2250  199.3910 O.3       1 AGS901      0.0000 
      5 PB        179.2220  168.6560  197.0200 P.3       1 AGS901      0.0000 
      6 O1B       178.3850  169.2930  195.9370 O.co2     1 AGS901      0.0000 
      7 O2B       179.9120  167.3380  196.7610 O.co2     1 AGS901      0.0000 
      8 O3B       178.3070  168.4970  198.3350 O.3       1 AGS901      0.0000 
      9 PA        181.8480  169.6140  196.9560 P.3       1 AGS901      0.0000 
     10 O1A       181.8530  169.9430  195.4820 O.co2     1 AGS901      0.0000 
     11 O2A       182.4260  168.3050  197.4370 O.co2     1 AGS901      0.0000 
     12 O3A       180.3330  169.7220  197.4900 O.3       1 AGS901      0.0000 
     13 O5'       182.5850  170.8100  197.7410 O.3       1 AGS901      0.0000 
     14 C5'       181.9830  172.1000  197.8240 C.3       1 AGS901      0.0000 
     15 C4'       183.0460  173.1710  197.6100 C.3       1 AGS901      0.0000 
     16 O4'       183.8750  173.2670  198.7710 O.3       1 AGS901      0.0000 
     17 C3'       183.9360  172.8370  196.4230 C.3       1 AGS901      0.0000 
     18 O3'       183.7560  173.8220  195.3940 O.3       1 AGS901      0.0000 
     19 C2'       185.3600  172.7650  196.9690 C.3       1 AGS901      0.0000 
     20 O2'       186.2630  173.7030  196.3650 O.3       1 AGS901      0.0000 
     21 C1'       185.2540  173.0490  198.4600 C.3       1 AGS901      0.0000 
     22 N9        185.7630  171.8850  199.2290 N.pl3     1 AGS901      0.0000 
     23 C8        185.0150  171.0330  199.9550 C.2       1 AGS901      0.0000 
     24 N7        185.7840  170.0770  200.5350 N.2       1 AGS901      0.0000 
     25 C5        187.0600  170.3140  200.1780 C.ar      1 AGS901      0.0000 
     26 C6        188.3770  169.6860  200.4400 C.ar      1 AGS901      0.0000 
     27 N6        188.4840  168.5840  201.2220 N.pl3     1 AGS901      0.0000 
     28 N1        189.4660  170.2500  199.8730 N.ar      1 AGS901      0.0000 
     29 C2        189.3730  171.3440  199.0940 C.ar      1 AGS901      0.0000 
     30 N3        188.2120  171.9640  198.8140 N.ar      1 AGS901      0.0000 
     31 C4        187.0410  171.5060  199.3170 C.ar      1 AGS901      0.0000 
@<TRIPOS>BOND
     1    1    2 2    
     2    1    3 1    
     3    1    4 1    
     4    1    8 1    
     5    5    6 ar   
     6    5    7 ar   
     7    5    8 1    
     8    5   12 1    
     9    9   10 ar   
    10    9   11 ar   
    11    9   12 1    
    12    9   13 1    
    13   13   14 1    
    14   14   15 1    
    15   15   16 1    
    16   15   17 1    
    17   16   21 1    
    18   17   18 1    
    19   17   19 1    
    20   19   20 1    
    21   19   21 1    
    22   21   22 1    
    23   22   23 1    
    24   22   31 1    
    25   23   24 2    
    26   24   25 1    
    27   25   26 ar   
    28   25   31 ar   
    29   26   27 1    
    30   26   28 ar   
    31   28   29 ar   
    32   29   30 ar   
    33   30   31 ar   
@<TRIPOS>SUBSTRUCTURE
     1 AGS901      1 GROUP   
@<TRIPOS>SET

