#    Name: 6djv_11_ADP
#    Modification time : Fri May 22 19:41:28 2020

@<TRIPOS>MOLECULE
6djv_11_ADP
   27    29     1     0     1
SMALL
NO_CHARGES


@<TRIPOS>ATOM
      1 PB        188.6790  170.4300  148.0590 P.3       1 ADP901      0.0000 
      2 O1B       188.2890  171.3030  146.8900 O.co2     1 ADP901      0.0000 
      3 O2B       187.7280  170.4950  149.2300 O.co2     1 ADP901      0.0000 
      4 O3B       189.1050  169.0320  147.6780 O.co2     1 ADP901      0.0000 
      5 PA        191.4270  170.9000  147.8460 P.3       1 ADP901      0.0000 
      6 O1A       191.1310  170.6750  146.3830 O.co2     1 ADP901      0.0000 
      7 O2A       192.2440  169.8880  148.6140 O.co2     1 ADP901      0.0000 
      8 O3A       190.0290  171.1080  148.6170 O.3       1 ADP901      0.0000 
      9 O5'       192.1310  172.3390  148.0020 O.3       1 ADP901      0.0000 
     10 C5'       193.1900  172.7260  147.1280 C.3       1 ADP901      0.0000 
     11 C4'       193.3540  174.2400  147.1690 C.3       1 ADP901      0.0000 
     12 O4'       193.6690  174.6550  148.5010 O.3       1 ADP901      0.0000 
     13 C3'       194.4820  174.6970  146.2560 C.3       1 ADP901      0.0000 
     14 O3'       193.9470  175.5160  145.2050 O.3       1 ADP901      0.0000 
     15 C2'       195.4860  175.4170  147.1520 C.3       1 ADP901      0.0000 
     16 O2'       195.7150  176.7870  146.7880 O.3       1 ADP901      0.0000 
     17 C1'       194.9150  175.3540  148.5610 C.3       1 ADP901      0.0000 
     18 N9        195.8550  174.6250  149.4500 N.pl3     1 ADP901      0.0000 
     19 C8        195.5160  173.9220  150.5460 C.2       1 ADP901      0.0000 
     20 N7        196.6100  173.3760  151.1360 N.2       1 ADP901      0.0000 
     21 C5        197.6830  173.7340  150.4070 C.ar      1 ADP901      0.0000 
     22 C6        199.1450  173.5000  150.4710 C.ar      1 ADP901      0.0000 
     23 N6        199.6920  172.7530  151.4610 N.pl3     1 ADP901      0.0000 
     24 N1        199.9140  174.0560  149.5090 N.ar      1 ADP901      0.0000 
     25 C2        199.3830  174.7990  148.5210 C.ar      1 ADP901      0.0000 
     26 N3        198.0670  175.0530  148.4010 N.ar      1 ADP901      0.0000 
     27 C4        197.1800  174.5570  149.2960 C.ar      1 ADP901      0.0000 
@<TRIPOS>BOND
     1    1    2 ar   
     2    1    3 ar   
     3    1    4 ar   
     4    1    8 1    
     5    5    6 ar   
     6    5    7 ar   
     7    5    8 1    
     8    5    9 1    
     9    9   10 1    
    10   10   11 1    
    11   11   12 1    
    12   11   13 1    
    13   12   17 1    
    14   13   14 1    
    15   13   15 1    
    16   15   16 1    
    17   15   17 1    
    18   17   18 1    
    19   18   19 1    
    20   18   27 1    
    21   19   20 2    
    22   20   21 1    
    23   21   22 ar   
    24   21   27 ar   
    25   22   23 1    
    26   22   24 ar   
    27   24   25 ar   
    28   25   26 ar   
    29   26   27 ar   
@<TRIPOS>SUBSTRUCTURE
     1 ADP901      1 GROUP   
@<TRIPOS>SET
ATOM$ORANGE STATIC     ATOMS   COLORGROUP SYSTEM 
20 10 10 11 11 13 13 15 15 17 17 19 19 21 21 22 22 25 \
25 27 27 

