#    Name: 6djv_5_AGS
#    Modification time : Fri May 22 19:40:41 2020

@<TRIPOS>MOLECULE
6djv_5_AGS
   31    33     1     0     0
SMALL
NO_CHARGES


@<TRIPOS>ATOM
      1 PG        171.5070  137.7730  193.5160 P.3       1 AGS901      0.0000 
      2 S1G       172.8520  139.1780  193.4730 S.2       1 AGS901      0.0000 
      3 O2G       171.1240  137.3660  192.0690 O.3       1 AGS901      0.0000 
      4 O3G       170.2420  138.2960  194.2460 O.3       1 AGS901      0.0000 
      5 PB        172.7490  135.3980  193.4850 P.3       1 AGS901      0.0000 
      6 O1B       172.2060  135.3400  192.1210 O.co2     1 AGS901      0.0000 
      7 O2B       172.5540  134.1150  194.2900 O.co2     1 AGS901      0.0000 
      8 O3B       172.0470  136.5450  194.2920 O.3       1 AGS901      0.0000 
      9 PA        174.9790  134.6660  192.3480 P.3       1 AGS901      0.0000 
     10 O1A       175.3250  135.4330  191.1470 O.co2     1 AGS901      0.0000 
     11 O2A       173.9660  133.5430  192.1380 O.co2     1 AGS901      0.0000 
     12 O3A       174.3010  135.5680  193.4270 O.3       1 AGS901      0.0000 
     13 O5'       176.3020  134.1230  192.9710 O.3       1 AGS901      0.0000 
     14 C5'       176.6940  134.4320  194.3050 C.3       1 AGS901      0.0000 
     15 C4'       178.1580  134.7860  194.2950 C.3       1 AGS901      0.0000 
     16 O4'       178.8360  134.0830  195.3520 O.3       1 AGS901      0.0000 
     17 C3'       178.9140  134.4160  193.0270 C.3       1 AGS901      0.0000 
     18 O3'       180.0160  135.2860  192.8070 O.3       1 AGS901      0.0000 
     19 C2'       179.3720  132.9820  193.3070 C.3       1 AGS901      0.0000 
     20 O2'       180.6530  132.7300  192.7450 O.3       1 AGS901      0.0000 
     21 C1'       179.4650  132.9250  194.8370 C.3       1 AGS901      0.0000 
     22 N9        178.8050  131.7670  195.4280 N.pl3     1 AGS901      0.0000 
     23 C8        177.7790  131.7990  196.3280 C.2       1 AGS901      0.0000 
     24 N7        177.3610  130.6130  196.7010 N.2       1 AGS901      0.0000 
     25 C5        178.1670  129.7460  195.9910 C.ar      1 AGS901      0.0000 
     26 C6        178.2310  128.3390  195.9390 C.ar      1 AGS901      0.0000 
     27 N6        177.4280  127.5390  196.6450 N.pl3     1 AGS901      0.0000 
     28 N1        179.1520  127.7830  195.1300 N.ar      1 AGS901      0.0000 
     29 C2        179.9560  128.5810  194.4260 C.ar      1 AGS901      0.0000 
     30 N3        179.9930  129.9130  194.3930 N.ar      1 AGS901      0.0000 
     31 C4        179.0710  130.4350  195.1990 C.ar      1 AGS901      0.0000 
@<TRIPOS>BOND
     1    1    2 2    
     2    1    3 1    
     3    1    4 1    
     4    1    8 1    
     5    5    6 ar   
     6    5    7 ar   
     7    5    8 1    
     8    5   12 1    
     9    9   10 ar   
    10    9   11 ar   
    11    9   12 1    
    12    9   13 1    
    13   13   14 1    
    14   14   15 1    
    15   15   16 1    
    16   15   17 1    
    17   16   21 1    
    18   17   18 1    
    19   17   19 1    
    20   19   20 1    
    21   19   21 1    
    22   21   22 1    
    23   22   23 1    
    24   22   31 1    
    25   23   24 2    
    26   24   25 1    
    27   25   26 ar   
    28   25   31 ar   
    29   26   27 1    
    30   26   28 ar   
    31   28   29 ar   
    32   29   30 ar   
    33   30   31 ar   
@<TRIPOS>SUBSTRUCTURE
     1 AGS901      1 GROUP   
@<TRIPOS>SET

