#    Name: 6djv_9_AGS
#    Modification time : Fri May 22 19:41:13 2020

@<TRIPOS>MOLECULE
6djv_9_AGS
   31    33     1     0     0
SMALL
NO_CHARGES


@<TRIPOS>ATOM
      1 PG        131.7550  176.9900  162.0620 P.3       1 AGS901      0.0000 
      2 S1G       130.9820  175.2180  161.3070 S.2       1 AGS901      0.0000 
      3 O2G       132.9370  177.5120  161.1010 O.3       1 AGS901      0.0000 
      4 O3G       132.2920  176.7550  163.4210 O.3       1 AGS901      0.0000 
      5 PB        130.4830  179.2420  161.0020 P.3       1 AGS901      0.0000 
      6 O1B       131.7410  179.2000  160.1670 O.co2     1 AGS901      0.0000 
      7 O2B       130.0670  180.5300  161.6730 O.co2     1 AGS901      0.0000 
      8 O3B       130.5890  178.0980  162.1290 O.3       1 AGS901      0.0000 
      9 PA        129.2050  179.0740  158.5210 P.3       1 AGS901      0.0000 
     10 O1A       129.7610  177.8950  157.7600 O.co2     1 AGS901      0.0000 
     11 O2A       129.7960  180.4480  158.3190 O.co2     1 AGS901      0.0000 
     12 O3A       129.2570  178.7290  160.0930 O.3       1 AGS901      0.0000 
     13 O5'       127.6230  179.1590  158.2320 O.3       1 AGS901      0.0000 
     14 C5'       126.7480  179.7820  159.1690 C.3       1 AGS901      0.0000 
     15 C4'       125.3290  179.7840  158.6150 C.3       1 AGS901      0.0000 
     16 O4'       124.5050  180.6500  159.4000 O.3       1 AGS901      0.0000 
     17 C3'       125.2980  180.2810  157.1770 C.3       1 AGS901      0.0000 
     18 O3'       124.8710  179.2200  156.3100 O.3       1 AGS901      0.0000 
     19 C2'       124.3760  181.4970  157.1700 C.3       1 AGS901      0.0000 
     20 O2'       123.2270  181.3510  156.3230 O.3       1 AGS901      0.0000 
     21 C1'       123.9230  181.6910  158.6100 C.3       1 AGS901      0.0000 
     22 N9        124.3860  183.0120  159.1060 N.pl3     1 AGS901      0.0000 
     23 C8        125.1660  183.2190  160.1830 C.2       1 AGS901      0.0000 
     24 N7        125.4080  184.5420  160.3660 N.2       1 AGS901      0.0000 
     25 C5        124.7700  185.2090  159.3870 C.ar      1 AGS901      0.0000 
     26 C6        124.6080  186.6270  158.9910 C.ar      1 AGS901      0.0000 
     27 N6        125.1930  187.6240  159.6980 N.pl3     1 AGS901      0.0000 
     28 N1        123.8570  186.8940  157.8990 N.ar      1 AGS901      0.0000 
     29 C2        123.2700  185.9130  157.1880 C.ar      1 AGS901      0.0000 
     30 N3        123.3740  184.6070  157.4900 N.ar      1 AGS901      0.0000 
     31 C4        124.0970  184.1960  158.5590 C.ar      1 AGS901      0.0000 
@<TRIPOS>BOND
     1    1    2 2    
     2    1    3 1    
     3    1    4 1    
     4    1    8 1    
     5    5    6 ar   
     6    5    7 ar   
     7    5    8 1    
     8    5   12 1    
     9    9   10 ar   
    10    9   11 ar   
    11    9   12 1    
    12    9   13 1    
    13   13   14 1    
    14   14   15 1    
    15   15   16 1    
    16   15   17 1    
    17   16   21 1    
    18   17   18 1    
    19   17   19 1    
    20   19   20 1    
    21   19   21 1    
    22   21   22 1    
    23   22   23 1    
    24   22   31 1    
    25   23   24 2    
    26   24   25 1    
    27   25   26 ar   
    28   25   31 ar   
    29   26   27 1    
    30   26   28 ar   
    31   28   29 ar   
    32   29   30 ar   
    33   30   31 ar   
@<TRIPOS>SUBSTRUCTURE
     1 AGS901      1 GROUP   
@<TRIPOS>SET

