#    Name: 6fjm_5_ACP
#    Modification time : Fri May 22 19:25:56 2020

@<TRIPOS>MOLECULE
6fjm_5_ACP
   31    33     1     0     1
SMALL
NO_CHARGES


@<TRIPOS>ATOM
      1 PG          8.2740   49.2610   94.1740 P.3       1 ACP401      0.0000 
      2 O1G         9.2420   49.6020   93.1410 O.co2     1 ACP401      0.0000 
      3 O2G         8.2150   47.6700   94.3430 O.co2     1 ACP401      0.0000 
      4 O3G         6.8260   49.8410   93.8040 O.co2     1 ACP401      0.0000 
      5 PB         10.5070   49.7300   95.9430 P.3       1 ACP401      0.0000 
      6 O1B        11.2540   50.8830   95.1380 O.co2     1 ACP401      0.0000 
      7 O2B        10.8430   48.4090   95.3830 O.co2     1 ACP401      0.0000 
      8 C3B         8.7340   49.9820   95.7610 C.3       1 ACP401      0.0000 
      9 PA         10.5630   51.0310   98.3890 P.3       1 ACP401      0.0000 
     10 O1A         9.2800   51.6070   97.8960 O.co2     1 ACP401      0.0000 
     11 O2A        11.7510   51.9100   98.5950 O.co2     1 ACP401      0.0000 
     12 O3A        10.9100   49.7700   97.4870 O.3       1 ACP401      0.0000 
     13 O5'        10.2600   50.2540   99.7500 O.3       1 ACP401      0.0000 
     14 C5'         9.7760   48.9260   99.7160 C.3       1 ACP401      0.0000 
     15 C4'         8.7560   48.6860  100.8140 C.3       1 ACP401      0.0000 
     16 O4'         9.3080   49.1290  102.0400 O.3       1 ACP401      0.0000 
     17 C3'         7.5160   49.5050  100.6560 C.3       1 ACP401      0.0000 
     18 O3'         6.5390   48.8060   99.9070 O.3       1 ACP401      0.0000 
     19 C2'         7.0700   49.7560  102.0720 C.3       1 ACP401      0.0000 
     20 O2'         6.2710   48.6950  102.5560 O.3       1 ACP401      0.0000 
     21 C1'         8.3100   49.6800  102.8800 C.3       1 ACP401      0.0000 
     22 N9          8.7730   50.9980  103.2770 N.pl3     1 ACP401      0.0000 
     23 C8          9.5890   51.7270  102.5320 C.2       1 ACP401      0.0000 
     24 N7          9.8660   52.8880  103.1510 N.2       1 ACP401      0.0000 
     25 C5          9.2190   52.8830  104.3060 C.ar      1 ACP401      0.0000 
     26 C6          9.0930   53.8050  105.4180 C.ar      1 ACP401      0.0000 
     27 N6          9.7460   54.9650  105.3610 N.pl3     1 ACP401      0.0000 
     28 N1          8.3280   53.4580  106.4600 N.ar      1 ACP401      0.0000 
     29 C2          7.6900   52.2880  106.4770 C.ar      1 ACP401      0.0000 
     30 N3          7.7690   51.3990  105.4790 N.ar      1 ACP401      0.0000 
     31 C4          8.5030   51.6350  104.3920 C.ar      1 ACP401      0.0000 
@<TRIPOS>BOND
     1    1    2 ar   
     2    1    3 ar   
     3    1    4 ar   
     4    1    8 1    
     5    5    6 ar   
     6    5    7 ar   
     7    5    8 1    
     8    5   12 1    
     9    9   10 ar   
    10    9   11 ar   
    11    9   12 1    
    12    9   13 1    
    13   13   14 1    
    14   14   15 1    
    15   15   16 1    
    16   15   17 1    
    17   16   21 1    
    18   17   18 1    
    19   17   19 1    
    20   19   20 1    
    21   19   21 1    
    22   21   22 1    
    23   22   23 1    
    24   22   31 1    
    25   23   24 2    
    26   24   25 1    
    27   25   26 ar   
    28   25   31 ar   
    29   26   27 1    
    30   26   28 ar   
    31   28   29 ar   
    32   29   30 ar   
    33   30   31 ar   
@<TRIPOS>SUBSTRUCTURE
     1 ACP401      1 GROUP   
@<TRIPOS>SET
ATOM$ORANGE STATIC     ATOMS   COLORGROUP SYSTEM 
22 8 8 14 14 15 15 17 17 19 19 21 21 23 23 25 25 26 \
26 29 29 31 31 

