#    Name: 6gwc_1_GTP_CAVITY_N1_4
#    Modification time : Fri May 22 19:27:25 2020

@<TRIPOS>MOLECULE
6gwc_1_GTP_CAVITY_N1_4
   73     0     7     0     0
SMALL
NO_CHARGES


@<TRIPOS>ATOM
      1 OG         59.2600  -15.7700  -20.8500 O.3       1 SER1        0.0000 
      2 OG         58.6000  -16.6200  -19.8100 O.3       1 SER1        0.0000 
      3 OG         61.1200  -16.7000  -20.4500 O.3       1 SER1        0.0000 
      4 OG         60.4000  -15.5000  -19.9200 O.3       1 SER1        0.0000 
      5 OG         59.0200  -15.1600  -18.3400 O.3       1 SER1        0.0000 
      6 OG         58.3600  -16.0100  -17.3000 O.3       1 SER1        0.0000 
      7 OG         60.7500  -11.9700  -18.9500 O.3       1 SER1        0.0000 
      8 OG         61.5400  -15.2300  -18.9800 O.3       1 SER1        0.0000 
      9 OG         60.8800  -16.0900  -17.9400 O.3       1 SER1        0.0000 
     10 OG         59.5000  -15.7500  -16.3600 O.3       1 SER1        0.0000 
     11 O          60.6400  -16.1100  -22.4300 O.2       2 ALA2        0.0000 
     12 O          61.7800  -15.8400  -21.4900 O.2       2 ALA2        0.0000 
     13 O          59.6100  -12.2400  -19.8900 O.2       2 ALA2        0.0000 
     14 N          58.2300  -11.9000  -18.3100 N.am      2 ALA2        0.0000 
     15 N          65.0200  -17.1200  -22.6600 N.am      2 ALA2        0.0000 
     16 O          58.5800   -8.3700  -17.3400 O.2       2 ALA2        0.0000 
     17 N          59.3700  -11.6300  -17.3700 N.am      2 ALA2        0.0000 
     18 N          58.6500  -10.4300  -16.8400 N.am      2 ALA2        0.0000 
     19 O          60.1600  -14.8900  -17.4000 O.2       2 ALA2        0.0000 
     20 N          66.1600  -16.8500  -21.7300 N.am      2 ALA2        0.0000 
     21 O          62.5500  -10.8500  -19.0500 O.2       2 ALA2        0.0000 
     22 O          61.8200   -9.6500  -18.5200 O.2       2 ALA2        0.0000 
     23 O          62.6100  -12.9100  -18.5500 O.2       2 ALA2        0.0000 
     24 O          62.6800  -14.9600  -18.0400 O.2       2 ALA2        0.0000 
     25 O          61.9600  -13.7600  -17.5000 O.2       2 ALA2        0.0000 
     26 N          60.5800  -13.4200  -15.9300 N.am      2 ALA2        0.0000 
     27 O          60.6400  -15.4800  -15.4200 O.2       2 ALA2        0.0000 
     28 N          59.9200  -14.2800  -14.8900 N.am      2 ALA2        0.0000 
     29 OD1        58.7200  -12.4900  -16.3300 O.co2     3 ASP3        0.0000 
     30 OD1        58.0600  -13.3400  -15.2900 O.co2     3 ASP3        0.0000 
     31 OD1        61.1000   -8.4400  -17.9800 O.co2     3 ASP3        0.0000 
     32 OD1        60.4500   -9.3000  -16.9400 O.co2     3 ASP3        0.0000 
     33 OD1        59.7200   -8.1000  -16.4100 O.co2     3 ASP3        0.0000 
     34 OD1        59.2000  -13.0800  -14.3500 O.co2     3 ASP3        0.0000 
     35 NZ         59.9200  -14.9100  -21.9000 N.4       4 LYS4        0.0000 
     36 NZ         59.1900  -13.7100  -21.3600 N.4       4 LYS4        0.0000 
     37 NZ         58.5400  -14.5700  -20.3200 N.4       4 LYS4        0.0000 
     38 NZ         57.8800  -15.4200  -19.2800 N.4       4 LYS4        0.0000 
     39 NZ         58.9500  -13.1000  -18.8500 N.4       4 LYS4        0.0000 
     40 NZ         58.3000  -13.9500  -17.8100 N.4       4 LYS4        0.0000 
     41 CZ         63.6400  -16.7800  -21.0900 C.ar      5 PHE5        0.0000 
     42 CZ         62.2600  -16.4300  -19.5100 C.ar      5 PHE5        0.0000 
     43 CZ         65.5000  -17.7100  -20.6900 C.ar      5 PHE5        0.0000 
     44 CZ         64.7800  -16.5100  -20.1500 C.ar      5 PHE5        0.0000 
     45 CZ         63.4000  -16.1700  -18.5700 C.ar      5 PHE5        0.0000 
     46 CZ         61.3700  -16.6800  -15.9600 C.ar      5 PHE5        0.0000 
     47 CA         57.2300  -16.2800  -18.2400 C.3       6 GLY6        0.0000 
     48 CA         62.4300  -14.9800  -22.5300 C.3       6 GLY6        0.0000 
     49 CA         61.7100  -13.7800  -22.0000 C.3       6 GLY6        0.0000 
     50 CA         60.3300  -13.4400  -20.4200 C.3       6 GLY6        0.0000 
     51 CA         64.2900  -15.9200  -22.1300 C.3       6 GLY6        0.0000 
     52 CA         62.1300  -12.3100  -20.5200 C.3       6 GLY6        0.0000 
     53 CA         60.6800   -9.9100  -19.4500 C.3       6 GLY6        0.0000 
     54 CA         62.9200  -15.5700  -20.5500 C.3       6 GLY6        0.0000 
     55 CA         62.1900  -14.3700  -20.0200 C.3       6 GLY6        0.0000 
     56 CA         61.4700  -13.1700  -19.4800 C.3       6 GLY6        0.0000 
     57 CA         60.0300  -10.7700  -18.4100 C.3       6 GLY6        0.0000 
     58 CA         59.3100   -9.5700  -17.8800 C.3       6 GLY6        0.0000 
     59 CA         65.4300  -15.6500  -21.1900 C.3       6 GLY6        0.0000 
     60 CA         64.0600  -15.3100  -19.6200 C.3       6 GLY6        0.0000 
     61 CA         63.3300  -14.1100  -19.0800 C.3       6 GLY6        0.0000 
     62 CA         61.8900  -11.7000  -18.0100 C.3       6 GLY6        0.0000 
     63 CA         61.1700  -10.5000  -17.4800 C.3       6 GLY6        0.0000 
     64 CA         61.2300  -12.5600  -16.9700 C.3       6 GLY6        0.0000 
     65 CA         66.5700  -15.3800  -20.2500 C.3       6 GLY6        0.0000 
     66 CA         65.2000  -15.0400  -18.6800 C.3       6 GLY6        0.0000 
     67 DU         61.0600  -14.6400  -20.9600 H         7 CUB7        0.0000 
     68 DU         59.6800  -14.3000  -19.3800 H         7 CUB7        0.0000 
     69 DU         57.6400  -14.8100  -16.7600 H         7 CUB7        0.0000 
     70 DU         60.8200  -14.0300  -18.4400 H         7 CUB7        0.0000 
     71 DU         60.0900  -12.8300  -17.9100 H         7 CUB7        0.0000 
     72 DU         59.4400  -13.6900  -16.8700 H         7 CUB7        0.0000 
     73 DU         58.7800  -14.5500  -15.8300 H         7 CUB7        0.0000 
@<TRIPOS>BOND
@<TRIPOS>SUBSTRUCTURE
     1 SER1        1 GROUP   
     2 ALA2       11 GROUP   
     3 ASP3       29 GROUP   
     4 LYS4       35 GROUP   
     5 PHE5       41 GROUP   
     6 GLY6       47 GROUP   
     7 CUB7       67 GROUP   
@<TRIPOS>SET

