#    Name: 6gwc_1_GTP
#    Modification time : Fri May 22 19:27:22 2020

@<TRIPOS>MOLECULE
6gwc_1_GTP
   44    46     1     0     1
SMALL
NO_CHARGES


@<TRIPOS>ATOM
      1 PG         58.8830   -7.4870  -16.2050 P.3       1 GTP600      0.0000 
      2 O1G        57.4180   -7.4070  -16.6480 O.co2     1 GTP600      0.0000 
      3 O2G        59.3000   -6.1160  -15.6640 O.co2     1 GTP600      0.0000 
      4 O3G        59.1210   -8.6460  -15.2720 O.co2     1 GTP600      0.0000 
      5 O3B        59.7870   -7.6930  -17.5010 O.3       1 GTP600      0.0000 
      6 PB         61.0530   -8.6220  -17.7760 P.3       1 GTP600      0.0000 
      7 O1B        61.9400   -8.0420  -18.8270 O.co2     1 GTP600      0.0000 
      8 O2B        61.7700   -8.8410  -16.4750 O.co2     1 GTP600      0.0000 
      9 O3A        60.4270  -10.0120  -18.2380 O.3       1 GTP600      0.0000 
     10 PA         61.0420  -11.4070  -18.6930 P.3       1 GTP600      0.0000 
     11 O1A        62.3880  -11.1290  -19.2370 O.co2     1 GTP600      0.0000 
     12 O2A        61.1010  -12.3620  -17.5050 O.co2     1 GTP600      0.0000 
     13 O5'        59.9580  -11.9380  -19.7650 O.3       1 GTP600      0.0000 
     14 C5'        59.3210  -13.2280  -19.7860 C.3       1 GTP600      0.0000 
     15 C4'        59.6300  -13.8700  -21.1150 C.3       1 GTP600      0.0000 
     16 O4'        61.0610  -14.0290  -21.2550 O.3       1 GTP600      0.0000 
     17 C3'        59.0640  -15.2690  -21.3160 C.3       1 GTP600      0.0000 
     18 O3'        58.8840  -15.5270  -22.7070 O.3       1 GTP600      0.0000 
     19 C2'        60.1610  -16.1420  -20.7040 C.3       1 GTP600      0.0000 
     20 O2'        60.1020  -17.4730  -21.2060 O.3       1 GTP600      0.0000 
     21 C1'        61.4100  -15.4000  -21.1800 C.3       1 GTP600      0.0000 
     22 N9         62.5660  -15.5270  -20.2840 N.pl3     1 GTP600      0.0000 
     23 C8         62.6450  -15.1280  -18.9780 C.2       1 GTP600      0.0000 
     24 N7         63.8180  -15.3450  -18.4340 N.2       1 GTP600      0.0000 
     25 C5         64.5620  -15.9290  -19.4470 C.2       1 GTP600      0.0000 
     26 C6         65.9350  -16.4220  -19.4820 C.2       1 GTP600      0.0000 
     27 O6         66.7940  -16.3490  -18.5980 O.2       1 GTP600      0.0000 
     28 N1         66.2350  -17.0190  -20.6920 N.am      1 GTP600      0.0000 
     29 C2         65.3780  -17.1510  -21.7540 C.2       1 GTP600      0.0000 
     30 N2         65.8140  -17.8710  -22.7940 N.pl3     1 GTP600      0.0000 
     31 N3         64.1340  -16.6690  -21.7610 N.2       1 GTP600      0.0000 
     32 C4         63.7940  -16.0680  -20.5910 C.2       1 GTP600      0.0000 
     33 H5'        59.6150  -13.8420  -18.9360 H         1 GTP600      0.0000 
     34 H5''       58.2640  -12.9960  -19.6630 H         1 GTP600      0.0000 
     35 H4'        59.3790  -13.2090  -21.9430 H         1 GTP600      0.0000 
     36 H3'        58.0990  -15.3930  -20.8260 H         1 GTP600      0.0000 
     37 HO3'       58.1340  -16.1760  -22.7690 H         1 GTP600      0.0000 
     38 H2'        60.0780  -16.1130  -19.6190 H         1 GTP600      0.0000 
     39 HO2'       60.1700  -18.0570  -20.4060 H         1 GTP600      0.0000 
     40 H1'        61.7170  -15.7110  -22.1770 H         1 GTP600      0.0000 
     41 H8         61.8080  -14.6880  -18.4390 H         1 GTP600      0.0000 
     42 HN1        67.1780  -17.3810  -20.7770 H         1 GTP600      0.0000 
     43 HN21       65.2240  -17.9790  -23.6120 H         1 GTP600      0.0000 
     44 HN22       66.6960  -18.3710  -22.7850 H         1 GTP600      0.0000 
@<TRIPOS>BOND
     1    1    2 ar   
     2    1    3 ar   
     3    1    4 ar   
     4    1    5 1    
     5    5    6 1    
     6    6    7 ar   
     7    6    8 ar   
     8    6    9 1    
     9    9   10 1    
    10   10   11 ar   
    11   10   12 ar   
    12   10   13 1    
    13   13   14 1    
    14   14   15 1    
    15   14   33 1    
    16   14   34 1    
    17   15   16 1    
    18   15   17 1    
    19   15   35 1    
    20   16   21 1    
    21   17   18 1    
    22   17   19 1    
    23   17   36 1    
    24   18   37 1    
    25   19   20 1    
    26   19   21 1    
    27   19   38 1    
    28   20   39 1    
    29   21   22 1    
    30   21   40 1    
    31   22   23 1    
    32   22   32 1    
    33   23   24 2    
    34   23   41 1    
    35   24   25 1    
    36   25   26 1    
    37   25   32 2    
    38   26   27 2    
    39   26   28 am   
    40   28   29 1    
    41   28   42 1    
    42   29   30 1    
    43   29   31 2    
    44   30   43 1    
    45   30   44 1    
    46   31   32 1    
@<TRIPOS>SUBSTRUCTURE
     1 GTP600      1 GROUP   
@<TRIPOS>SET
ATOM$ORANGE STATIC     ATOMS   COLORGROUP SYSTEM 
20 14 14 15 15 17 17 19 19 21 21 23 23 25 25 26 26 29 \
29 32 32 

