#    Name: 6gwc_2_GTP_CAVITY_N1_8
#    Modification time : Fri May 22 19:27:31 2020

@<TRIPOS>MOLECULE
6gwc_2_GTP_CAVITY_N1_8
   76     0     7     0     0
SMALL
NO_CHARGES


@<TRIPOS>ATOM
      1 OG         23.5500  -12.2200    7.1100 O.3       1 SER1        0.0000 
      2 OG         22.8300  -11.0200    7.6500 O.3       1 SER1        0.0000 
      3 OG         26.1300  -14.3600    6.9800 O.3       1 SER1        0.0000 
      4 OG         25.4100  -13.1600    7.5200 O.3       1 SER1        0.0000 
      5 OG         24.6900  -11.9600    8.0500 O.3       1 SER1        0.0000 
      6 OG         23.9700  -10.7600    8.5900 O.3       1 SER1        0.0000 
      7 OG         24.0300  -12.8200    9.0900 O.3       1 SER1        0.0000 
      8 OG         23.3100  -11.6100    9.6300 O.3       1 SER1        0.0000 
      9 OG         27.1400   -9.9700    6.9100 O.3       1 SER1        0.0000 
     10 OG         26.5500  -12.8900    8.4500 O.3       1 SER1        0.0000 
     11 OG         28.2800   -9.7100    7.8500 O.3       1 SER1        0.0000 
     12 OG         27.5600   -8.5100    8.3800 O.3       1 SER1        0.0000 
     13 O          25.6500  -13.7700    5.0000 O.2       2 ALA2        0.0000 
     14 O          26.0000  -10.2400    5.9700 O.2       2 ALA2        0.0000 
     15 O          26.7900  -13.5000    5.9400 O.2       2 ALA2        0.0000 
     16 N          24.6200   -9.9000    7.5500 N.am      2 ALA2        0.0000 
     17 N          23.2400   -9.5600    9.1200 N.am      2 ALA2        0.0000 
     18 N          22.5900  -10.4100   10.1600 N.am      2 ALA2        0.0000 
     19 N          29.3700  -15.6400    5.8100 N.am      2 ALA2        0.0000 
     20 N          28.6500  -14.4400    6.3400 N.am      2 ALA2        0.0000 
     21 N          25.7600   -9.6300    8.4800 N.am      2 ALA2        0.0000 
     22 N          25.0400   -8.4300    9.0200 N.am      2 ALA2        0.0000 
     23 N          25.8300  -11.6900    8.9900 N.am      2 ALA2        0.0000 
     24 N          24.3800   -9.2900   10.0600 N.am      2 ALA2        0.0000 
     25 N          25.1700  -12.5500   10.0300 N.am      2 ALA2        0.0000 
     26 N          24.4500  -11.3500   10.5700 N.am      2 ALA2        0.0000 
     27 O          26.1100   -6.1000    9.4500 O.2       2 ALA2        0.0000 
     28 O          25.3900   -4.9000    9.9900 O.2       2 ALA2        0.0000 
     29 N          30.5100  -15.3700    6.7500 N.am      2 ALA2        0.0000 
     30 N          29.7900  -14.1700    7.2800 N.am      2 ALA2        0.0000 
     31 N          24.7300   -5.7600   11.0300 N.am      2 ALA2        0.0000 
     32 O          24.0100   -4.5600   11.5600 O.2       2 ALA2        0.0000 
     33 N          28.4100  -13.8300    8.8600 N.am      2 ALA2        0.0000 
     34 N          27.6900  -12.6200    9.3900 N.am      2 ALA2        0.0000 
     35 O          26.2400  -10.2200   10.4600 O.2       2 ALA2        0.0000 
     36 O          24.8700   -9.8800   12.0400 O.2       2 ALA2        0.0000 
     37 O          27.9100   -4.9800    9.3500 O.2       2 ALA2        0.0000 
     38 O          28.7000   -8.2400    9.3200 O.2       2 ALA2        0.0000 
     39 N          31.6500  -15.1000    7.6900 N.am      2 ALA2        0.0000 
     40 O          25.1500   -4.2900   12.5000 O.2       2 ALA2        0.0000 
     41 N          30.9900  -15.9600    8.7300 N.am      2 ALA2        0.0000 
     42 N          29.5500  -13.5600    9.8000 N.am      2 ALA2        0.0000 
     43 OD1        26.9000   -9.3600    9.4200 O.co2     3 ASP3        0.0000 
     44 OD1        26.1800   -8.1600    9.9600 O.co2     3 ASP3        0.0000 
     45 OD1        25.4600   -6.9600   10.4900 O.co2     3 ASP3        0.0000 
     46 OD1        25.5200   -9.0200   11.0000 O.co2     3 ASP3        0.0000 
     47 OD1        24.8000   -7.8200   11.5300 O.co2     3 ASP3        0.0000 
     48 OD1        24.0800   -6.6200   12.0700 O.co2     3 ASP3        0.0000 
     49 OD1        27.9700   -7.0400    9.8500 O.co2     3 ASP3        0.0000 
     50 OD1        27.2500   -5.8400   10.3900 O.co2     3 ASP3        0.0000 
     51 OD1        26.5300   -4.6400   10.9200 O.co2     3 ASP3        0.0000 
     52 OD1        24.5000   -5.1500   13.5400 O.co2     3 ASP3        0.0000 
     53 NZ         24.9300  -12.5700    5.5400 N.4       4 LYS4        0.0000 
     54 NZ         25.3400  -11.1000    7.0100 N.4       4 LYS4        0.0000 
     55 CZ         27.2700  -14.0900    7.9200 C.ar      5 PHE5        0.0000 
     56 CZ         29.8600  -16.2300    7.7900 C.ar      5 PHE5        0.0000 
     57 CZ         29.1300  -15.0300    8.3200 C.ar      5 PHE5        0.0000 
     58 CZ         29.6200  -15.6200   10.3000 C.ar      5 PHE5        0.0000 
     59 CA         24.2700  -13.4300    6.5800 C.3       6 GLY6        0.0000 
     60 CA         27.4400  -12.6400    4.9000 C.3       6 GLY6        0.0000 
     61 CA         26.7200  -11.4400    5.4300 C.3       6 GLY6        0.0000 
     62 CA         28.5800  -12.3800    5.8400 C.3       6 GLY6        0.0000 
     63 CA         27.8600  -11.1800    6.3700 C.3       6 GLY6        0.0000 
     64 CA         26.4200   -8.7700    7.4400 C.3       6 GLY6        0.0000 
     65 CA         27.9300  -13.2300    6.8800 C.3       6 GLY6        0.0000 
     66 CA         27.2100  -12.0300    7.4100 C.3       6 GLY6        0.0000 
     67 CA         27.4900   -6.4500    7.8700 C.3       6 GLY6        0.0000 
     68 CA         26.8300   -7.3100    8.9200 C.3       6 GLY6        0.0000 
     69 CA         28.3400  -11.7700    8.3500 C.3       6 GLY6        0.0000 
     70 CA         27.6200  -10.5700    8.8900 C.3       6 GLY6        0.0000 
     71 CA         23.3600   -5.4200   12.6000 C.3       6 GLY6        0.0000 
     72 CA         28.6300   -6.1800    8.8100 C.3       6 GLY6        0.0000 
     73 CA         30.2700  -14.7600    9.2600 C.3       6 GLY6        0.0000 
     74 DU         26.0700  -12.3000    6.4800 H         7 CUB7        0.0000 
     75 DU         26.4800  -10.8300    7.9500 H         7 CUB7        0.0000 
     76 DU         25.1100  -10.4900    9.5200 H         7 CUB7        0.0000 
@<TRIPOS>BOND
@<TRIPOS>SUBSTRUCTURE
     1 SER1        1 GROUP   
     2 ALA2       13 GROUP   
     3 ASP3       43 GROUP   
     4 LYS4       53 GROUP   
     5 PHE5       55 GROUP   
     6 GLY6       59 GROUP   
     7 CUB7       74 GROUP   
@<TRIPOS>SET

