#    Name: 6gwc_2_GTP
#    Modification time : Fri May 22 19:27:29 2020

@<TRIPOS>MOLECULE
6gwc_2_GTP
   44    46     1     0     1
SMALL
NO_CHARGES


@<TRIPOS>ATOM
      1 PG         26.3740   -4.5560   10.3090 P.3       1 GTP600      0.0000 
      2 O1G        25.2340   -3.8170    9.6160 O.co2     1 GTP600      0.0000 
      3 O2G        27.1500   -3.5830   11.2370 O.co2     1 GTP600      0.0000 
      4 O3G        25.9140   -5.8080   11.0590 O.co2     1 GTP600      0.0000 
      5 O3B        27.3560   -4.9870    9.1330 O.3       1 GTP600      0.0000 
      6 PB         28.2510   -6.2910    8.9600 P.3       1 GTP600      0.0000 
      7 O1B        29.2600   -6.0650    7.9040 O.co2     1 GTP600      0.0000 
      8 O2B        28.9380   -6.6040   10.2760 O.co2     1 GTP600      0.0000 
      9 O3A        27.3250   -7.5370    8.5900 O.3       1 GTP600      0.0000 
     10 PA         27.5230   -9.1180    8.4870 P.3       1 GTP600      0.0000 
     11 O1A        28.9620   -9.4490    8.3680 O.co2     1 GTP600      0.0000 
     12 O2A        26.9510   -9.7840    9.7450 O.co2     1 GTP600      0.0000 
     13 O5'        26.6640   -9.4110    7.1760 O.3       1 GTP600      0.0000 
     14 C5'        25.6090  -10.3840    7.0870 C.3       1 GTP600      0.0000 
     15 C4'        25.8560  -11.2500    5.8760 C.3       1 GTP600      0.0000 
     16 O4'        27.1510  -11.8940    5.9780 O.3       1 GTP600      0.0000 
     17 C3'        24.8660  -12.3950    5.7400 C.3       1 GTP600      0.0000 
     18 O3'        24.7780  -12.8170    4.3780 O.3       1 GTP600      0.0000 
     19 C2'        25.4980  -13.4610    6.6320 C.3       1 GTP600      0.0000 
     20 O2'        25.0200  -14.7680    6.3170 O.3       1 GTP600      0.0000 
     21 C1'        26.9770  -13.2730    6.2790 C.3       1 GTP600      0.0000 
     22 N9         27.9120  -13.6570    7.3640 N.pl3     1 GTP600      0.0000 
     23 C8         27.9920  -13.1450    8.6370 C.2       1 GTP600      0.0000 
     24 N7         28.9470  -13.6880    9.3610 N.2       1 GTP600      0.0000 
     25 C5         29.5300  -14.6200    8.5130 C.2       1 GTP600      0.0000 
     26 C6         30.6400  -15.5600    8.7080 C.2       1 GTP600      0.0000 
     27 O6         31.3210  -15.7160    9.7300 O.2       1 GTP600      0.0000 
     28 N1         30.8610  -16.3430    7.5860 N.am      1 GTP600      0.0000 
     29 C2         30.1220  -16.2990    6.4280 C.2       1 GTP600      0.0000 
     30 N2         30.3910  -17.2260    5.4980 N.pl3     1 GTP600      0.0000 
     31 N3         29.1250  -15.4330    6.2240 N.2       1 GTP600      0.0000 
     32 C4         28.8900  -14.6250    7.2860 C.2       1 GTP600      0.0000 
     33 H5'        25.5110  -10.9500    8.0120 H         1 GTP600      0.0000 
     34 H5''       24.7090   -9.7770    6.9910 H         1 GTP600      0.0000 
     35 H4'        25.9440  -10.6660    4.9610 H         1 GTP600      0.0000 
     36 H3'        23.8830  -12.1100    6.1070 H         1 GTP600      0.0000 
     37 HO3'       23.8090  -12.8900    4.1730 H         1 GTP600      0.0000 
     38 H2'        25.3130  -13.2170    7.6760 H         1 GTP600      0.0000 
     39 HO2'       24.7510  -14.7510    5.3610 H         1 GTP600      0.0000 
     40 H1'        27.2530  -13.8300    5.3860 H         1 GTP600      0.0000 
     41 H8         27.3300  -12.3650    9.0110 H         1 GTP600      0.0000 
     42 HN1        31.6410  -16.9880    7.6520 H         1 GTP600      0.0000 
     43 HN21       29.8640  -17.2240    4.6300 H         1 GTP600      0.0000 
     44 HN22       31.1000  -17.9430    5.6090 H         1 GTP600      0.0000 
@<TRIPOS>BOND
     1    1    2 ar   
     2    1    3 ar   
     3    1    4 ar   
     4    1    5 1    
     5    5    6 1    
     6    6    7 ar   
     7    6    8 ar   
     8    6    9 1    
     9    9   10 1    
    10   10   11 ar   
    11   10   12 ar   
    12   10   13 1    
    13   13   14 1    
    14   14   15 1    
    15   14   33 1    
    16   14   34 1    
    17   15   16 1    
    18   15   17 1    
    19   15   35 1    
    20   16   21 1    
    21   17   18 1    
    22   17   19 1    
    23   17   36 1    
    24   18   37 1    
    25   19   20 1    
    26   19   21 1    
    27   19   38 1    
    28   20   39 1    
    29   21   22 1    
    30   21   40 1    
    31   22   23 1    
    32   22   32 1    
    33   23   24 2    
    34   23   41 1    
    35   24   25 1    
    36   25   26 1    
    37   25   32 2    
    38   26   27 2    
    39   26   28 am   
    40   28   29 1    
    41   28   42 1    
    42   29   30 1    
    43   29   31 2    
    44   30   43 1    
    45   30   44 1    
    46   31   32 1    
@<TRIPOS>SUBSTRUCTURE
     1 GTP600      1 GROUP   
@<TRIPOS>SET
ATOM$ORANGE STATIC     ATOMS   COLORGROUP SYSTEM 
20 14 14 15 15 17 17 19 19 21 21 23 23 25 25 26 26 29 \
29 32 32 

