#    Name: 6ip2_6_ATP
#    Modification time : Fri May 22 19:29:15 2020

@<TRIPOS>MOLECULE
6ip2_6_ATP
   31    33     1     0     1
SMALL
NO_CHARGES


@<TRIPOS>ATOM
      1 PG        117.7870  131.9270   57.5480 P.3       1 ATP802      0.0000 
      2 O1G       116.9530  132.0470   56.3040 O.co2     1 ATP802      0.0000 
      3 O2G       117.0070  131.8110   58.8310 O.co2     1 ATP802      0.0000 
      4 O3G       118.9390  130.9650   57.4330 O.co2     1 ATP802      0.0000 
      5 PB        117.6240  134.6710   57.4650 P.3       1 ATP802      0.0000 
      6 O1B       117.4470  134.9130   55.9920 O.co2     1 ATP802      0.0000 
      7 O2B       116.4240  134.5460   58.3610 O.co2     1 ATP802      0.0000 
      8 O3B       118.5120  133.3500   57.6330 O.3       1 ATP802      0.0000 
      9 PA        118.1240  136.5440   59.3930 P.3       1 ATP802      0.0000 
     10 O1A       116.8470  137.2870   59.1310 O.co2     1 ATP802      0.0000 
     11 O2A       118.2090  135.5140   60.4830 O.co2     1 ATP802      0.0000 
     12 O3A       118.5690  135.8290   58.0340 O.3       1 ATP802      0.0000 
     13 O5'       119.2660  137.6380   59.6030 O.3       1 ATP802      0.0000 
     14 C5'       119.8150  138.2410   58.4440 C.3       1 ATP802      0.0000 
     15 C4'       120.7500  139.3690   58.8320 C.3       1 ATP802      0.0000 
     16 O4'       120.7900  140.3390   57.7920 O.3       1 ATP802      0.0000 
     17 C3'       120.2660  140.0830   60.0750 C.3       1 ATP802      0.0000 
     18 O3'       121.2750  139.9670   61.0730 O.3       1 ATP802      0.0000 
     19 C2'       120.1310  141.5320   59.6890 C.3       1 ATP802      0.0000 
     20 O2'       120.7790  142.3600   60.6520 O.3       1 ATP802      0.0000 
     21 C1'       120.8500  141.6340   58.3690 C.3       1 ATP802      0.0000 
     22 N9        120.1860  142.6030   57.4810 N.pl3     1 ATP802      0.0000 
     23 C8        120.7240  143.7590   57.0680 C.2       1 ATP802      0.0000 
     24 N7        119.8780  144.4340   56.2620 N.2       1 ATP802      0.0000 
     25 C5        118.7680  143.6960   56.1510 C.ar      1 ATP802      0.0000 
     26 C6        117.4820  143.8250   55.4430 C.ar      1 ATP802      0.0000 
     27 N6        117.2160  144.9080   54.6820 N.pl3     1 ATP802      0.0000 
     28 N1        116.5830  142.8330   55.5830 N.ar      1 ATP802      0.0000 
     29 C2        116.8430  141.7560   56.3370 C.ar      1 ATP802      0.0000 
     30 N3        117.9900  141.5710   57.0070 N.ar      1 ATP802      0.0000 
     31 C4        118.9740  142.4920   56.9560 C.ar      1 ATP802      0.0000 
@<TRIPOS>BOND
     1    1    2 ar   
     2    1    3 ar   
     3    1    4 ar   
     4    1    8 1    
     5    5    6 ar   
     6    5    7 ar   
     7    5    8 1    
     8    5   12 1    
     9    9   10 ar   
    10    9   11 ar   
    11    9   12 1    
    12    9   13 1    
    13   13   14 1    
    14   14   15 1    
    15   15   16 1    
    16   15   17 1    
    17   16   21 1    
    18   17   18 1    
    19   17   19 1    
    20   19   20 1    
    21   19   21 1    
    22   21   22 1    
    23   22   23 1    
    24   22   31 1    
    25   23   24 2    
    26   24   25 1    
    27   25   26 ar   
    28   25   31 ar   
    29   26   27 1    
    30   26   28 ar   
    31   28   29 ar   
    32   29   30 ar   
    33   30   31 ar   
@<TRIPOS>SUBSTRUCTURE
     1 ATP802      1 GROUP   
@<TRIPOS>SET
ATOM$ORANGE STATIC     ATOMS   COLORGROUP SYSTEM 
20 14 14 15 15 17 17 19 19 21 21 23 23 25 25 26 26 29 \
29 31 31 

