#    Name: 6ip2_5_ATP
#    Modification time : Fri May 22 19:28:59 2020

@<TRIPOS>MOLECULE
6ip2_5_ATP
   31    33     1     0     1
SMALL
NO_CHARGES


@<TRIPOS>ATOM
      1 PG        100.4810  132.4860   94.7510 P.3       1 ATP801      0.0000 
      2 O1G        99.5080  132.2130   93.6400 O.co2     1 ATP801      0.0000 
      3 O2G       101.6460  131.5390   94.7330 O.co2     1 ATP801      0.0000 
      4 O3G        99.8630  132.6850   96.1070 O.co2     1 ATP801      0.0000 
      5 PB        100.2170  135.0260   93.6790 P.3       1 ATP801      0.0000 
      6 O1B       100.4130  134.8950   92.1940 O.co2     1 ATP801      0.0000 
      7 O2B        98.8410  134.9340   94.2610 O.co2     1 ATP801      0.0000 
      8 O3B       101.1200  133.9170   94.3950 O.3       1 ATP801      0.0000 
      9 PA         99.8320  137.7010   94.0020 P.3       1 ATP801      0.0000 
     10 O1A        99.2620  137.6700   92.6090 O.co2     1 ATP801      0.0000 
     11 O2A        98.8880  137.6980   95.1670 O.co2     1 ATP801      0.0000 
     12 O3A       100.8090  136.4400   94.1350 O.3       1 ATP801      0.0000 
     13 O5'       100.7870  138.9810   94.1510 O.3       1 ATP801      0.0000 
     14 C5'       101.4380  139.2990   95.3780 C.3       1 ATP801      0.0000 
     15 C4'       102.0320  140.6860   95.2050 C.3       1 ATP801      0.0000 
     16 O4'       101.4460  141.2790   94.0500 O.3       1 ATP801      0.0000 
     17 C3'       101.7170  141.5900   96.3730 C.3       1 ATP801      0.0000 
     18 O3'       102.9040  142.2680   96.7830 O.3       1 ATP801      0.0000 
     19 C2'       100.7610  142.6130   95.8200 C.3       1 ATP801      0.0000 
     20 O2'       101.0900  143.9030   96.3330 O.3       1 ATP801      0.0000 
     21 C1'       101.0040  142.5980   94.3310 C.3       1 ATP801      0.0000 
     22 N9         99.7610  142.8630   93.5830 N.pl3     1 ATP801      0.0000 
     23 C8         99.2910  142.0630   92.6230 C.2       1 ATP801      0.0000 
     24 N7         98.1450  142.5460   92.0940 N.2       1 ATP801      0.0000 
     25 C5         97.8750  143.6910   92.7220 C.ar      1 ATP801      0.0000 
     26 C6         96.8000  144.6900   92.6400 C.ar      1 ATP801      0.0000 
     27 N6         95.7970  144.5450   91.7470 N.pl3     1 ATP801      0.0000 
     28 N1         96.8670  145.7520   93.4610 N.ar      1 ATP801      0.0000 
     29 C2         97.8710  145.8900   94.3400 C.ar      1 ATP801      0.0000 
     30 N3         98.8790  145.0140   94.4620 N.ar      1 ATP801      0.0000 
     31 C4         98.9420  143.9040   93.6990 C.ar      1 ATP801      0.0000 
@<TRIPOS>BOND
     1    1    2 ar   
     2    1    3 ar   
     3    1    4 ar   
     4    1    8 1    
     5    5    6 ar   
     6    5    7 ar   
     7    5    8 1    
     8    5   12 1    
     9    9   10 ar   
    10    9   11 ar   
    11    9   12 1    
    12    9   13 1    
    13   13   14 1    
    14   14   15 1    
    15   15   16 1    
    16   15   17 1    
    17   16   21 1    
    18   17   18 1    
    19   17   19 1    
    20   19   20 1    
    21   19   21 1    
    22   21   22 1    
    23   22   23 1    
    24   22   31 1    
    25   23   24 2    
    26   24   25 1    
    27   25   26 ar   
    28   25   31 ar   
    29   26   27 1    
    30   26   28 ar   
    31   28   29 ar   
    32   29   30 ar   
    33   30   31 ar   
@<TRIPOS>SUBSTRUCTURE
     1 ATP801      1 GROUP   
@<TRIPOS>SET
ATOM$ORANGE STATIC     ATOMS   COLORGROUP SYSTEM 
20 14 14 15 15 17 17 19 19 21 21 23 23 25 25 26 26 29 \
29 31 31 

