#    Name: 6ip2_7_ATP_CAVITY_N1_4
#    Modification time : Fri May 22 19:29:32 2020

@<TRIPOS>MOLECULE
6ip2_7_ATP_CAVITY_N1_4
  102     0     7     0     0
SMALL
NO_CHARGES


@<TRIPOS>ATOM
      1 OG         66.7700  121.4100   97.4200 O.3       1 SER1        0.0000 
      2 OG         68.3000  120.6700   96.1500 O.3       1 SER1        0.0000 
      3 OG         67.7500  122.3600   98.0400 O.3       1 SER1        0.0000 
      4 OG         67.2400  122.0000   99.4000 O.3       1 SER1        0.0000 
      5 OG         68.7700  121.2600   98.1300 O.3       1 SER1        0.0000 
      6 OG         75.9000  115.4000   95.9400 O.3       1 SER1        0.0000 
      7 OG         77.9300  113.2000   96.1200 O.3       1 SER1        0.0000 
      8 OG         76.8700  116.3500   96.5600 O.3       1 SER1        0.0000 
      9 OG         77.8900  115.2500   96.6500 O.3       1 SER1        0.0000 
     10 O          65.8800  118.1600   92.9300 O.2       2 ALA2        0.0000 
     11 O          66.9000  117.0700   93.0200 O.2       2 ALA2        0.0000 
     12 N          69.4000  117.2800   92.3600 N.am      2 ALA2        0.0000 
     13 N          66.2600  121.0500   98.7800 N.am      2 ALA2        0.0000 
     14 O          70.3400  120.2900   93.5100 O.2       2 ALA2        0.0000 
     15 O          71.3600  119.1900   93.6000 O.2       2 ALA2        0.0000 
     16 O          72.3800  118.1000   93.6900 O.2       2 ALA2        0.0000 
     17 O          73.3900  117.0000   93.7800 O.2       2 ALA2        0.0000 
     18 O          72.3700  116.2800   96.5100 O.2       2 ALA2        0.0000 
     19 O          74.4100  115.9000   93.8700 O.2       2 ALA2        0.0000 
     20 O          73.9000  115.5400   95.2300 O.2       2 ALA2        0.0000 
     21 O          74.9200  114.4400   95.3200 O.2       2 ALA2        0.0000 
     22 O          73.3500  117.2300   97.1300 O.2       2 ALA2        0.0000 
     23 O          72.8400  116.8700   98.4900 O.2       2 ALA2        0.0000 
     24 O          76.9200  116.1200   93.2200 O.2       2 ALA2        0.0000 
     25 N          79.9300  114.8800   94.0100 N.am      2 ALA2        0.0000 
     26 OD1        75.4300  114.8000   93.9600 O.co2     3 ASP3        0.0000 
     27 OD1        69.7900  120.1700   98.2200 O.co2     3 ASP3        0.0000 
     28 OD1        71.3100  119.4300   96.9500 O.co2     3 ASP3        0.0000 
     29 OD1        72.8400  118.6900   95.6700 O.co2     3 ASP3        0.0000 
     30 OD1        72.3300  118.3300   97.0400 O.co2     3 ASP3        0.0000 
     31 OD1        73.8600  117.5900   95.7600 O.co2     3 ASP3        0.0000 
     32 OD1        75.3900  116.8600   94.4900 O.co2     3 ASP3        0.0000 
     33 OD1        74.8800  116.4900   95.8500 O.co2     3 ASP3        0.0000 
     34 OD1        76.4100  115.7600   94.5800 O.co2     3 ASP3        0.0000 
     35 OD1        77.9300  115.0200   93.3100 O.co2     3 ASP3        0.0000 
     36 OD1        70.7600  121.1200   98.8400 O.co2     3 ASP3        0.0000 
     37 OD1        72.2900  120.3800   97.5600 O.co2     3 ASP3        0.0000 
     38 OD1        73.8200  119.6500   96.2900 O.co2     3 ASP3        0.0000 
     39 OD1        73.3100  119.2900   97.6500 O.co2     3 ASP3        0.0000 
     40 OD1        73.8200  117.8300   99.1100 O.co2     3 ASP3        0.0000 
     41 OD1        75.8500  117.4500   96.4700 O.co2     3 ASP3        0.0000 
     42 OD1        77.3800  116.7100   95.2000 O.co2     3 ASP3        0.0000 
     43 OD1        78.9100  115.9800   93.9200 O.co2     3 ASP3        0.0000 
     44 OD1        78.4000  115.6100   95.2900 O.co2     3 ASP3        0.0000 
     45 OD1        79.4200  114.5200   95.3800 O.co2     3 ASP3        0.0000 
     46 OD1        78.9100  114.1600   96.7400 O.co2     3 ASP3        0.0000 
     47 OD1        73.2700  121.3400   98.1800 O.co2     3 ASP3        0.0000 
     48 OD1        72.7600  120.9800   99.5500 O.co2     3 ASP3        0.0000 
     49 OD1        74.8000  120.6000   96.9100 O.co2     3 ASP3        0.0000 
     50 OD1        73.7700  119.8800   99.6400 O.co2     3 ASP3        0.0000 
     51 OD1        75.8100  119.5000   97.0000 O.co2     3 ASP3        0.0000 
     52 NZ         69.8300  119.9300   94.8700 N.4       4 LYS4        0.0000 
     53 NZ         69.2800  121.6300   96.7700 N.4       4 LYS4        0.0000 
     54 NZ         70.8100  120.8900   95.4900 N.4       4 LYS4        0.0000 
     55 NZ         70.3000  120.5300   96.8600 N.4       4 LYS4        0.0000 
     56 NZ         71.8200  119.7900   95.5800 N.4       4 LYS4        0.0000 
     57 NZ         68.7300  123.3200   98.6600 N.4       4 LYS4        0.0000 
     58 NZ         71.2700  121.4800   97.4700 N.4       4 LYS4        0.0000 
     59 NZ         72.8000  120.7500   96.2000 N.4       4 LYS4        0.0000 
     60 NZ         74.3300  118.1900   97.7400 N.4       4 LYS4        0.0000 
     61 NZ         72.2500  122.4400   98.0900 N.4       4 LYS4        0.0000 
     62 NZ         73.7800  121.7000   96.8200 N.4       4 LYS4        0.0000 
     63 NZ         74.2900  120.2400   98.2700 N.4       4 LYS4        0.0000 
     64 NZ         74.7900  118.7800   99.7300 N.4       4 LYS4        0.0000 
     65 NZ         73.7400  123.7600   97.3500 N.4       4 LYS4        0.0000 
     66 NZ         73.7300  121.9400  100.1600 N.4       4 LYS4        0.0000 
     67 NZ         75.7700  121.5600   97.5300 N.4       4 LYS4        0.0000 
     68 NZ         75.2600  121.2000   98.8900 N.4       4 LYS4        0.0000 
     69 CZ         67.8400  120.0700   94.1600 C.ar      5 PHE5        0.0000 
     70 CZ         68.8100  121.0300   94.7800 C.ar      5 PHE5        0.0000 
     71 CZ         67.7100  124.4200   98.5700 C.ar      5 PHE5        0.0000 
     72 CA         67.4100  117.4300   91.6500 C.3       6 GLY6        0.0000 
     73 CA         66.8600  119.1200   93.5500 C.3       6 GLY6        0.0000 
     74 CA         68.3900  118.3800   92.2700 C.3       6 GLY6        0.0000 
     75 CA         67.8800  118.0200   93.6400 C.3       6 GLY6        0.0000 
     76 CA         68.8900  116.9200   93.7300 C.3       6 GLY6        0.0000 
     77 CA         67.3300  119.7100   95.5300 C.3       6 GLY6        0.0000 
     78 CA         69.3600  119.3400   92.8900 C.3       6 GLY6        0.0000 
     79 CA         68.8500  118.9800   94.2500 C.3       6 GLY6        0.0000 
     80 CA         70.3800  118.2400   92.9800 C.3       6 GLY6        0.0000 
     81 CA         69.8700  117.8800   94.3400 C.3       6 GLY6        0.0000 
     82 CA         67.7900  120.3100   97.5100 C.3       6 GLY6        0.0000 
     83 CA         67.2800  119.9500   98.8700 C.3       6 GLY6        0.0000 
     84 CA         69.3200  119.5700   96.2400 C.3       6 GLY6        0.0000 
     85 CA         70.3400  118.4700   96.3300 C.3       6 GLY6        0.0000 
     86 CA         71.8700  117.7400   95.0500 C.3       6 GLY6        0.0000 
     87 CA         71.3600  117.3700   96.4200 C.3       6 GLY6        0.0000 
     88 CA         72.8800  116.6400   95.1400 C.3       6 GLY6        0.0000 
     89 CA         68.2600  120.9000   99.4900 C.3       6 GLY6        0.0000 
     90 CA         71.3200  121.2500   94.1300 C.3       6 GLY6        0.0000 
     91 CA         72.3400  120.1500   94.2200 C.3       6 GLY6        0.0000 
     92 CA         77.4200  114.6600   94.6700 C.3       6 GLY6        0.0000 
     93 CA         78.4400  113.5600   94.7600 C.3       6 GLY6        0.0000 
     94 CA         68.2200  122.9600  100.0200 C.3       6 GLY6        0.0000 
     95 CA         69.7500  122.2200   98.7500 C.3       6 GLY6        0.0000 
     96 CA         69.2300  121.8600  100.1100 C.3       6 GLY6        0.0000 
     97 CA         75.3400  117.0900   97.8300 C.3       6 GLY6        0.0000 
     98 CA         74.2900  122.0600   95.4600 C.3       6 GLY6        0.0000 
     99 CA         73.2300  123.3900   98.7100 C.3       6 GLY6        0.0000 
    100 CA         74.7500  122.6600   97.4400 C.3       6 GLY6        0.0000 
    101 DU         70.8500  118.8300   94.9600 H         7 CUB7        0.0000 
    102 DU         74.2400  122.3000   98.8000 H         7 CUB7        0.0000 
@<TRIPOS>BOND
@<TRIPOS>SUBSTRUCTURE
     1 SER1        1 GROUP   
     2 ALA2       10 GROUP   
     3 ASP3       26 GROUP   
     4 LYS4       52 GROUP   
     5 PHE5       69 GROUP   
     6 GLY6       72 GROUP   
     7 CUB7      101 GROUP   
@<TRIPOS>SET

