#    Name: 6ip2_3_ATP
#    Modification time : Fri May 22 19:28:23 2020

@<TRIPOS>MOLECULE
6ip2_3_ATP
   31    33     1     0     1
SMALL
NO_CHARGES


@<TRIPOS>ATOM
      1 PG        129.5420  124.8530   92.9360 P.3       1 ATP801      0.0000 
      2 O1G       130.0830  123.6090   92.2740 O.co2     1 ATP801      0.0000 
      3 O2G       128.3290  125.4400   92.2760 O.co2     1 ATP801      0.0000 
      4 O3G       129.4200  124.7570   94.4330 O.co2     1 ATP801      0.0000 
      5 PB        130.4220  127.4990   92.9350 P.3       1 ATP801      0.0000 
      6 O1B       130.3270  128.2060   91.6080 O.co2     1 ATP801      0.0000 
      7 O2B       129.3150  127.6430   93.9430 O.co2     1 ATP801      0.0000 
      8 O3B       130.6980  125.9400   92.6800 O.3       1 ATP801      0.0000 
      9 PA        131.9040  127.8550   95.2190 P.3       1 ATP801      0.0000 
     10 O1A       131.3830  126.5090   95.6370 O.co2     1 ATP801      0.0000 
     11 O2A       131.3290  129.1000   95.8390 O.co2     1 ATP801      0.0000 
     12 O3A       131.7840  127.9740   93.6260 O.3       1 ATP801      0.0000 
     13 O5'       133.4830  127.8560   95.4470 O.3       1 ATP801      0.0000 
     14 C5'       134.2150  126.6510   95.2940 C.3       1 ATP801      0.0000 
     15 C4'       135.6600  126.9960   95.5940 C.3       1 ATP801      0.0000 
     16 O4'       136.1150  127.9110   94.6050 O.3       1 ATP801      0.0000 
     17 C3'       135.7620  127.6880   96.9380 C.3       1 ATP801      0.0000 
     18 O3'       136.6890  126.9810   97.7660 O.3       1 ATP801      0.0000 
     19 C2'       136.2930  129.0720   96.6590 C.3       1 ATP801      0.0000 
     20 O2'       137.4400  129.3130   97.4720 O.3       1 ATP801      0.0000 
     21 C1'       136.6990  129.0650   95.1990 C.3       1 ATP801      0.0000 
     22 N9        136.1640  130.2550   94.5080 N.pl3     1 ATP801      0.0000 
     23 C8        135.2560  130.2410   93.5240 C.2       1 ATP801      0.0000 
     24 N7        134.9880  131.4960   93.0950 N.2       1 ATP801      0.0000 
     25 C5        135.7400  132.3340   93.8210 C.ar      1 ATP801      0.0000 
     26 C6        135.9430  133.7930   93.8800 C.ar      1 ATP801      0.0000 
     27 N6        135.2710  134.6240   93.0550 N.pl3     1 ATP801      0.0000 
     28 N1        136.8300  134.2660   94.7700 N.ar      1 ATP801      0.0000 
     29 C2        137.5050  133.4450   95.5880 C.ar      1 ATP801      0.0000 
     30 N3        137.3700  132.1130   95.5870 N.ar      1 ATP801      0.0000 
     31 C4        136.5210  131.5100   94.7380 C.ar      1 ATP801      0.0000 
@<TRIPOS>BOND
     1    1    2 ar   
     2    1    3 ar   
     3    1    4 ar   
     4    1    8 1    
     5    5    6 ar   
     6    5    7 ar   
     7    5    8 1    
     8    5   12 1    
     9    9   10 ar   
    10    9   11 ar   
    11    9   12 1    
    12    9   13 1    
    13   13   14 1    
    14   14   15 1    
    15   15   16 1    
    16   15   17 1    
    17   16   21 1    
    18   17   18 1    
    19   17   19 1    
    20   19   20 1    
    21   19   21 1    
    22   21   22 1    
    23   22   23 1    
    24   22   31 1    
    25   23   24 2    
    26   24   25 1    
    27   25   26 ar   
    28   25   31 ar   
    29   26   27 1    
    30   26   28 ar   
    31   28   29 ar   
    32   29   30 ar   
    33   30   31 ar   
@<TRIPOS>SUBSTRUCTURE
     1 ATP801      1 GROUP   
@<TRIPOS>SET
ATOM$ORANGE STATIC     ATOMS   COLORGROUP SYSTEM 
20 14 14 15 15 17 17 19 19 21 21 23 23 25 25 26 26 29 \
29 31 31 

