#    Name: 6ip2_1_ATP
#    Modification time : Fri May 22 19:27:48 2020

@<TRIPOS>MOLECULE
6ip2_1_ATP
   31    33     1     0     1
SMALL
NO_CHARGES


@<TRIPOS>ATOM
      1 PG        136.7080   95.5150   92.8520 P.3       1 ATP801      0.0000 
      2 O1G       135.7430   94.8030   91.9360 O.co2     1 ATP801      0.0000 
      3 O2G       137.1170   96.8840   92.3700 O.co2     1 ATP801      0.0000 
      4 O3G       136.3550   95.4340   94.3170 O.co2     1 ATP801      0.0000 
      5 PB        139.4370   95.2720   93.3000 P.3       1 ATP801      0.0000 
      6 O1B       140.3110   95.6360   92.1260 O.co2     1 ATP801      0.0000 
      7 O2B       139.1490   96.3040   94.3570 O.co2     1 ATP801      0.0000 
      8 O3B       138.0610   94.6580   92.7500 O.3       1 ATP801      0.0000 
      9 PA        139.9820   93.8850   95.6020 P.3       1 ATP801      0.0000 
     10 O1A       138.5190   93.9360   95.9670 O.co2     1 ATP801      0.0000 
     11 O2A       140.9360   94.8960   96.1880 O.co2     1 ATP801      0.0000 
     12 O3A       140.0990   93.9970   94.0080 O.3       1 ATP801      0.0000 
     13 O5'       140.5590   92.4250   95.9390 O.3       1 ATP801      0.0000 
     14 C5'       139.7380   91.2800   96.1450 C.3       1 ATP801      0.0000 
     15 C4'       140.5760   90.2780   96.9290 C.3       1 ATP801      0.0000 
     16 O4'       141.6560   89.8140   96.1190 O.3       1 ATP801      0.0000 
     17 C3'       141.1780   90.9400   98.1550 C.3       1 ATP801      0.0000 
     18 O3'       140.8250   90.1960   99.3210 O.3       1 ATP801      0.0000 
     19 C2'       142.6800   90.9130   97.9600 C.3       1 ATP801      0.0000 
     20 O2'       143.3000   90.2420   99.0570 O.3       1 ATP801      0.0000 
     21 C1'       142.9290   90.1360   96.6810 C.3       1 ATP801      0.0000 
     22 N9        143.6370   90.9760   95.6870 N.pl3     1 ATP801      0.0000 
     23 C8        143.1370   91.2910   94.4840 C.2       1 ATP801      0.0000 
     24 N7        143.9900   92.0670   93.7780 N.2       1 ATP801      0.0000 
     25 C5        145.0750   92.2570   94.5390 C.ar      1 ATP801      0.0000 
     26 C6        146.3560   92.9830   94.3920 C.ar      1 ATP801      0.0000 
     27 N6        146.6370   93.6710   93.2580 N.pl3     1 ATP801      0.0000 
     28 N1        147.2270   92.9340   95.4200 N.ar      1 ATP801      0.0000 
     29 C2        146.9420   92.2570   96.5460 C.ar      1 ATP801      0.0000 
     30 N3        145.8040   91.5700   96.7460 N.ar      1 ATP801      0.0000 
     31 C4        144.8440   91.5320   95.7960 C.ar      1 ATP801      0.0000 
@<TRIPOS>BOND
     1    1    2 ar   
     2    1    3 ar   
     3    1    4 ar   
     4    1    8 1    
     5    5    6 ar   
     6    5    7 ar   
     7    5    8 1    
     8    5   12 1    
     9    9   10 ar   
    10    9   11 ar   
    11    9   12 1    
    12    9   13 1    
    13   13   14 1    
    14   14   15 1    
    15   15   16 1    
    16   15   17 1    
    17   16   21 1    
    18   17   18 1    
    19   17   19 1    
    20   19   20 1    
    21   19   21 1    
    22   21   22 1    
    23   22   23 1    
    24   22   31 1    
    25   23   24 2    
    26   24   25 1    
    27   25   26 ar   
    28   25   31 ar   
    29   26   27 1    
    30   26   28 ar   
    31   28   29 ar   
    32   29   30 ar   
    33   30   31 ar   
@<TRIPOS>SUBSTRUCTURE
     1 ATP801      1 GROUP   
@<TRIPOS>SET
ATOM$ORANGE STATIC     ATOMS   COLORGROUP SYSTEM 
20 14 14 15 15 17 17 19 19 21 21 23 23 25 25 26 26 29 \
29 31 31 

