#    Name: 6ip2_4_ATP
#    Modification time : Fri May 22 19:28:43 2020

@<TRIPOS>MOLECULE
6ip2_4_ATP
   31    33     1     0     1
SMALL
NO_CHARGES


@<TRIPOS>ATOM
      1 PG        138.2970  109.6730   57.7860 P.3       1 ATP802      0.0000 
      2 O1G       138.1730  108.6460   56.6920 O.co2     1 ATP802      0.0000 
      3 O2G       137.8790  109.1750   59.1440 O.co2     1 ATP802      0.0000 
      4 O3G       137.7470  111.0330   57.4450 O.co2     1 ATP802      0.0000 
      5 PB        140.4190  111.0940   58.8530 P.3       1 ATP802      0.0000 
      6 O1B       140.1470  112.4100   58.1740 O.co2     1 ATP802      0.0000 
      7 O2B       139.8950  110.8680   60.2430 O.co2     1 ATP802      0.0000 
      8 O3B       139.8800  109.9150   57.9100 O.3       1 ATP802      0.0000 
      9 PA        142.7740  111.4600   60.1720 P.3       1 ATP802      0.0000 
     10 O1A       142.3240  112.8900   60.2780 O.co2     1 ATP802      0.0000 
     11 O2A       142.5610  110.5320   61.3360 O.co2     1 ATP802      0.0000 
     12 O3A       142.0080  110.8670   58.8940 O.3       1 ATP802      0.0000 
     13 O5'       144.3390  111.5040   59.8070 O.3       1 ATP802      0.0000 
     14 C5'       145.1010  110.3150   59.6520 C.3       1 ATP802      0.0000 
     15 C4'       146.5580  110.5760   60.0150 C.3       1 ATP802      0.0000 
     16 O4'       147.2450  111.3040   58.9980 O.3       1 ATP802      0.0000 
     17 C3'       146.6770  111.3890   61.2900 C.3       1 ATP802      0.0000 
     18 O3'       147.3070  110.6030   62.3010 O.3       1 ATP802      0.0000 
     19 C2'       147.6010  112.5310   60.9530 C.3       1 ATP802      0.0000 
     20 O2'       148.6050  112.6530   61.9600 O.3       1 ATP802      0.0000 
     21 C1'       148.2250  112.1090   59.6460 C.3       1 ATP802      0.0000 
     22 N9        148.6030  113.2830   58.8350 N.pl3     1 ATP802      0.0000 
     23 C8        149.8640  113.5860   58.5000 C.2       1 ATP802      0.0000 
     24 N7        149.9170  114.7170   57.7630 N.2       1 ATP802      0.0000 
     25 C5        148.6620  115.1470   57.6120 C.ar      1 ATP802      0.0000 
     26 C6        148.0310  116.2870   56.9340 C.ar      1 ATP802      0.0000 
     27 N6        148.7810  117.1860   56.2630 N.pl3     1 ATP802      0.0000 
     28 N1        146.6930  116.3940   57.0080 N.ar      1 ATP802      0.0000 
     29 C2        145.9580  115.4940   57.6750 C.ar      1 ATP802      0.0000 
     30 N3        146.4670  114.4280   58.3150 N.ar      1 ATP802      0.0000 
     31 C4        147.7950  114.2060   58.3240 C.ar      1 ATP802      0.0000 
@<TRIPOS>BOND
     1    1    2 ar   
     2    1    3 ar   
     3    1    4 ar   
     4    1    8 1    
     5    5    6 ar   
     6    5    7 ar   
     7    5    8 1    
     8    5   12 1    
     9    9   10 ar   
    10    9   11 ar   
    11    9   12 1    
    12    9   13 1    
    13   13   14 1    
    14   14   15 1    
    15   15   16 1    
    16   15   17 1    
    17   16   21 1    
    18   17   18 1    
    19   17   19 1    
    20   19   20 1    
    21   19   21 1    
    22   21   22 1    
    23   22   23 1    
    24   22   31 1    
    25   23   24 2    
    26   24   25 1    
    27   25   26 ar   
    28   25   31 ar   
    29   26   27 1    
    30   26   28 ar   
    31   28   29 ar   
    32   29   30 ar   
    33   30   31 ar   
@<TRIPOS>SUBSTRUCTURE
     1 ATP802      1 GROUP   
@<TRIPOS>SET
ATOM$ORANGE STATIC     ATOMS   COLORGROUP SYSTEM 
20 14 14 15 15 17 17 19 19 21 21 23 23 25 25 26 26 29 \
29 31 31 

