#    Name: 6ip2_11_ATP
#    Modification time : Fri May 22 19:30:30 2020

@<TRIPOS>MOLECULE
6ip2_11_ATP
   31    33     1     0     1
SMALL
NO_CHARGES


@<TRIPOS>ATOM
      1 PG        109.7050   67.1170  106.0500 P.3       1 ATP801      0.0000 
      2 O1G       110.4220   67.9800  105.0390 O.co2     1 ATP801      0.0000 
      3 O2G       110.0930   67.3830  107.4850 O.co2     1 ATP801      0.0000 
      4 O3G       108.2190   66.9800  105.8190 O.co2     1 ATP801      0.0000 
      5 PB        110.3820   65.0500  104.2840 P.3       1 ATP801      0.0000 
      6 O1B       109.3340   65.7210  103.4300 O.co2     1 ATP801      0.0000 
      7 O2B       111.8340   65.0850  103.8680 O.co2     1 ATP801      0.0000 
      8 O3B       110.2790   65.6410  105.7760 O.3       1 ATP801      0.0000 
      9 PA        109.6310   62.4690  103.3830 P.3       1 ATP801      0.0000 
     10 O1A       108.7350   63.1040  102.3470 O.co2     1 ATP801      0.0000 
     11 O2A       109.1690   61.2150  104.0840 O.co2     1 ATP801      0.0000 
     12 O3A       109.9610   63.5220  104.5520 O.3       1 ATP801      0.0000 
     13 O5'       111.0600   62.1450  102.7140 O.3       1 ATP801      0.0000 
     14 C5'       111.5370   62.7920  101.5340 C.3       1 ATP801      0.0000 
     15 C4'       112.9740   62.3240  101.3250 C.3       1 ATP801      0.0000 
     16 O4'       113.0900   61.4180  100.2200 O.3       1 ATP801      0.0000 
     17 C3'       113.9230   63.4740  101.0410 C.3       1 ATP801      0.0000 
     18 O3'       114.6050   63.9020  102.2240 O.3       1 ATP801      0.0000 
     19 C2'       114.9080   62.9150  100.0360 C.3       1 ATP801      0.0000 
     20 O2'       116.1950   62.7460  100.6340 O.3       1 ATP801      0.0000 
     21 C1'       114.3870   61.5450   99.6280 C.3       1 ATP801      0.0000 
     22 N9        114.2800   61.4140   98.1530 N.pl3     1 ATP801      0.0000 
     23 C8        113.1960   60.9120   97.5450 C.2       1 ATP801      0.0000 
     24 N7        113.3540   60.8870   96.2000 N.2       1 ATP801      0.0000 
     25 C5        114.5690   61.3810   95.9200 C.ar      1 ATP801      0.0000 
     26 C6        115.3480   61.6290   94.6850 C.ar      1 ATP801      0.0000 
     27 N6        114.8360   61.3370   93.4650 N.pl3     1 ATP801      0.0000 
     28 N1        116.5840   62.1540   94.8120 N.ar      1 ATP801      0.0000 
     29 C2        117.1010   62.4480   96.0160 C.ar      1 ATP801      0.0000 
     30 N3        116.4440   62.2490   97.1710 N.ar      1 ATP801      0.0000 
     31 C4        115.1910   61.7220   97.2080 C.ar      1 ATP801      0.0000 
@<TRIPOS>BOND
     1    1    2 ar   
     2    1    3 ar   
     3    1    4 ar   
     4    1    8 1    
     5    5    6 ar   
     6    5    7 ar   
     7    5    8 1    
     8    5   12 1    
     9    9   10 ar   
    10    9   11 ar   
    11    9   12 1    
    12    9   13 1    
    13   13   14 1    
    14   14   15 1    
    15   15   16 1    
    16   15   17 1    
    17   16   21 1    
    18   17   18 1    
    19   17   19 1    
    20   19   20 1    
    21   19   21 1    
    22   21   22 1    
    23   22   23 1    
    24   22   31 1    
    25   23   24 2    
    26   24   25 1    
    27   25   26 ar   
    28   25   31 ar   
    29   26   27 1    
    30   26   28 ar   
    31   28   29 ar   
    32   29   30 ar   
    33   30   31 ar   
@<TRIPOS>SUBSTRUCTURE
     1 ATP801      1 GROUP   
@<TRIPOS>SET
ATOM$ORANGE STATIC     ATOMS   COLORGROUP SYSTEM 
20 14 14 15 15 17 17 19 19 21 21 23 23 25 25 26 26 29 \
29 31 31 

