#    Name: 6ip2_2_ATP
#    Modification time : Fri May 22 19:28:04 2020

@<TRIPOS>MOLECULE
6ip2_2_ATP
   31    33     1     0     1
SMALL
NO_CHARGES


@<TRIPOS>ATOM
      1 PG        129.0270   80.4560   59.1240 P.3       1 ATP802      0.0000 
      2 O1G       129.5400   81.4440   58.1120 O.co2     1 ATP802      0.0000 
      3 O2G       129.2110   80.8820   60.5580 O.co2     1 ATP802      0.0000 
      4 O3G       127.6760   79.8620   58.8110 O.co2     1 ATP802      0.0000 
      5 PB        131.5950   79.4480   58.8570 P.3       1 ATP802      0.0000 
      6 O1B       131.9670   79.5960   57.4040 O.co2     1 ATP802      0.0000 
      7 O2B       131.9900   80.5140   59.8410 O.co2     1 ATP802      0.0000 
      8 O3B       130.0120   79.2070   58.9470 O.3       1 ATP802      0.0000 
      9 PA        132.6730   77.9540   60.8980 P.3       1 ATP802      0.0000 
     10 O1A       134.0090   78.6430   60.9550 O.co2     1 ATP802      0.0000 
     11 O2A       131.5310   78.4010   61.7780 O.co2     1 ATP802      0.0000 
     12 O3A       132.1490   78.0400   59.3840 O.3       1 ATP802      0.0000 
     13 O5'       132.9310   76.3870   61.1330 O.3       1 ATP802      0.0000 
     14 C5'       133.3310   75.5480   60.0550 C.3       1 ATP802      0.0000 
     15 C4'       133.8600   74.2410   60.6300 C.3       1 ATP802      0.0000 
     16 O4'       134.8080   73.6480   59.7430 O.3       1 ATP802      0.0000 
     17 C3'       134.5850   74.4830   61.9410 C.3       1 ATP802      0.0000 
     18 O3'       133.8280   73.9530   63.0270 O.3       1 ATP802      0.0000 
     19 C2'       135.9000   73.7480   61.8310 C.3       1 ATP802      0.0000 
     20 O2'       136.0000   72.7940   62.8880 O.3       1 ATP802      0.0000 
     21 C1'       135.8550   73.0350   60.4960 C.3       1 ATP802      0.0000 
     22 N9        137.1560   73.1710   59.8010 N.pl3     1 ATP802      0.0000 
     23 C8        138.0080   72.1600   59.5710 C.2       1 ATP802      0.0000 
     24 N7        139.1180   72.5910   58.9240 N.2       1 ATP802      0.0000 
     25 C5        138.9810   73.9080   58.7310 C.ar      1 ATP802      0.0000 
     26 C6        139.7920   74.9700   58.1050 C.ar      1 ATP802      0.0000 
     27 N6        140.9910   74.6910   57.5520 N.pl3     1 ATP802      0.0000 
     28 N1        139.3000   76.2220   58.1060 N.ar      1 ATP802      0.0000 
     29 C2        138.1080   76.4990   58.6600 C.ar      1 ATP802      0.0000 
     30 N3        137.3170   75.5830   59.2440 N.ar      1 ATP802      0.0000 
     31 C4        137.6910   74.2890   59.3140 C.ar      1 ATP802      0.0000 
@<TRIPOS>BOND
     1    1    2 ar   
     2    1    3 ar   
     3    1    4 ar   
     4    1    8 1    
     5    5    6 ar   
     6    5    7 ar   
     7    5    8 1    
     8    5   12 1    
     9    9   10 ar   
    10    9   11 ar   
    11    9   12 1    
    12    9   13 1    
    13   13   14 1    
    14   14   15 1    
    15   15   16 1    
    16   15   17 1    
    17   16   21 1    
    18   17   18 1    
    19   17   19 1    
    20   19   20 1    
    21   19   21 1    
    22   21   22 1    
    23   22   23 1    
    24   22   31 1    
    25   23   24 2    
    26   24   25 1    
    27   25   26 ar   
    28   25   31 ar   
    29   26   27 1    
    30   26   28 ar   
    31   28   29 ar   
    32   29   30 ar   
    33   30   31 ar   
@<TRIPOS>SUBSTRUCTURE
     1 ATP802      1 GROUP   
@<TRIPOS>SET
ATOM$ORANGE STATIC     ATOMS   COLORGROUP SYSTEM 
20 14 14 15 15 17 17 19 19 21 21 23 23 25 25 26 26 29 \
29 31 31 

