#    Name: 6ip2_12_ATP
#    Modification time : Fri May 22 19:30:44 2020

@<TRIPOS>MOLECULE
6ip2_12_ATP
   31    33     1     0     1
SMALL
NO_CHARGES


@<TRIPOS>ATOM
      1 PG         99.1380   74.0740   60.2060 P.3       1 ATP802      0.0000 
      2 O1G       100.1680   74.0200   59.1080 O.co2     1 ATP802      0.0000 
      3 O2G        99.6790   73.9290   61.6030 O.co2     1 ATP802      0.0000 
      4 O3G        98.1120   75.1630   60.0400 O.co2     1 ATP802      0.0000 
      5 PB         99.1180   71.3950   59.6160 P.3       1 ATP802      0.0000 
      6 O1B        99.2040   71.3040   58.1160 O.co2     1 ATP802      0.0000 
      7 O2B       100.4070   71.4000   60.3900 O.co2     1 ATP802      0.0000 
      8 O3B        98.3030   72.7240   59.9830 O.3       1 ATP802      0.0000 
      9 PA         98.3550   69.5260   61.5800 P.3       1 ATP802      0.0000 
     10 O1A        99.7330   68.9280   61.6740 O.co2     1 ATP802      0.0000 
     11 O2A        97.9080   70.5050   62.6370 O.co2     1 ATP802      0.0000 
     12 O3A        98.1500   70.2200   60.1410 O.3       1 ATP802      0.0000 
     13 O5'        97.3460   68.2770   61.5430 O.3       1 ATP802      0.0000 
     14 C5'        95.9440   68.4830   61.5300 C.3       1 ATP802      0.0000 
     15 C4'        95.2350   67.1580   61.7710 C.3       1 ATP802      0.0000 
     16 O4'        95.4480   66.2490   60.6910 O.3       1 ATP802      0.0000 
     17 C3'        95.7330   66.4590   63.0280 C.3       1 ATP802      0.0000 
     18 O3'        94.7120   66.4850   64.0280 O.3       1 ATP802      0.0000 
     19 C2'        95.9910   65.0270   62.6150 C.3       1 ATP802      0.0000 
     20 O2'        95.3290   64.1290   63.5040 O.3       1 ATP802      0.0000 
     21 C1'        95.3810   64.9300   61.2300 C.3       1 ATP802      0.0000 
     22 N9         96.0410   63.9400   60.3410 N.pl3     1 ATP802      0.0000 
     23 C8         95.3560   63.0210   59.6440 C.2       1 ATP802      0.0000 
     24 N7         96.1810   62.2340   58.9190 N.2       1 ATP802      0.0000 
     25 C5         97.4310   62.6470   59.1500 C.ar      1 ATP802      0.0000 
     26 C6         98.7700   62.2320   58.6900 C.ar      1 ATP802      0.0000 
     27 N6         98.9220   61.2060   57.8230 N.pl3     1 ATP802      0.0000 
     28 N1         99.8320   62.9090   59.1620 N.ar      1 ATP802      0.0000 
     29 C2         99.6770   63.9320   60.0200 C.ar      1 ATP802      0.0000 
     30 N3         98.4910   64.3580   60.4830 N.ar      1 ATP802      0.0000 
     31 C4         97.3400   63.7670   60.0950 C.ar      1 ATP802      0.0000 
@<TRIPOS>BOND
     1    1    2 ar   
     2    1    3 ar   
     3    1    4 ar   
     4    1    8 1    
     5    5    6 ar   
     6    5    7 ar   
     7    5    8 1    
     8    5   12 1    
     9    9   10 ar   
    10    9   11 ar   
    11    9   12 1    
    12    9   13 1    
    13   13   14 1    
    14   14   15 1    
    15   15   16 1    
    16   15   17 1    
    17   16   21 1    
    18   17   18 1    
    19   17   19 1    
    20   19   20 1    
    21   19   21 1    
    22   21   22 1    
    23   22   23 1    
    24   22   31 1    
    25   23   24 2    
    26   24   25 1    
    27   25   26 ar   
    28   25   31 ar   
    29   26   27 1    
    30   26   28 ar   
    31   28   29 ar   
    32   29   30 ar   
    33   30   31 ar   
@<TRIPOS>SUBSTRUCTURE
     1 ATP802      1 GROUP   
@<TRIPOS>SET
ATOM$ORANGE STATIC     ATOMS   COLORGROUP SYSTEM 
20 14 14 15 15 17 17 19 19 21 21 23 23 25 25 26 26 29 \
29 31 31 

