#    Name: 6ip2_8_ATP
#    Modification time : Fri May 22 19:29:46 2020

@<TRIPOS>MOLECULE
6ip2_8_ATP
   31    33     1     0     1
SMALL
NO_CHARGES


@<TRIPOS>ATOM
      1 PG         88.1970  125.5630   57.8660 P.3       1 ATP802      0.0000 
      2 O1G        87.5890  124.5200   56.9720 O.co2     1 ATP802      0.0000 
      3 O2G        87.8980  125.3890   59.3350 O.co2     1 ATP802      0.0000 
      4 O3G        89.6220  125.9220   57.5340 O.co2     1 ATP802      0.0000 
      5 PB         85.8150  126.7200   57.2330 P.3       1 ATP802      0.0000 
      6 O1B        85.5910  126.4340   55.7700 O.co2     1 ATP802      0.0000 
      7 O2B        85.2790  125.7710   58.2690 O.co2     1 ATP802      0.0000 
      8 O3B        87.3870  126.8800   57.4720 O.3       1 ATP802      0.0000 
      9 PA         84.7970  128.4710   59.0480 P.3       1 ATP802      0.0000 
     10 O1A        83.4620  127.8060   59.2440 O.co2     1 ATP802      0.0000 
     11 O2A        85.9710  128.0970   59.9090 O.co2     1 ATP802      0.0000 
     12 O3A        85.2640  128.1910   57.5480 O.3       1 ATP802      0.0000 
     13 O5'        84.5520  130.0520   59.1020 O.3       1 ATP802      0.0000 
     14 C5'        83.4620  130.5740   58.3590 C.3       1 ATP802      0.0000 
     15 C4'        83.1280  131.9970   58.7710 C.3       1 ATP802      0.0000 
     16 O4'        82.2730  132.5790   57.7920 O.3       1 ATP802      0.0000 
     17 C3'        82.3890  132.0540   60.0900 C.3       1 ATP802      0.0000 
     18 O3'        83.0930  132.9360   60.9580 O.3       1 ATP802      0.0000 
     19 C2'        81.0660  132.7060   59.7950 C.3       1 ATP802      0.0000 
     20 O2'        80.8480  133.7550   60.7340 O.3       1 ATP802      0.0000 
     21 C1'        81.2100  133.2920   58.4090 C.3       1 ATP802      0.0000 
     22 N9         79.9850  133.0690   57.6190 N.pl3     1 ATP802      0.0000 
     23 C8         79.1500  134.0160   57.1770 C.2       1 ATP802      0.0000 
     24 N7         78.1230  133.4680   56.4830 N.2       1 ATP802      0.0000 
     25 C5         78.3050  132.1440   56.4670 C.ar      1 ATP802      0.0000 
     26 C6         77.5880  130.9840   55.9120 C.ar      1 ATP802      0.0000 
     27 N6         76.4480  131.1320   55.2050 N.pl3     1 ATP802      0.0000 
     28 N1         78.1180  129.7710   56.1280 N.ar      1 ATP802      0.0000 
     29 C2         79.2500  129.6100   56.8260 C.ar      1 ATP802      0.0000 
     30 N3         79.9480  130.6190   57.3620 N.ar      1 ATP802      0.0000 
     31 C4         79.5320  131.8890   57.2230 C.ar      1 ATP802      0.0000 
@<TRIPOS>BOND
     1    1    2 ar   
     2    1    3 ar   
     3    1    4 ar   
     4    1    8 1    
     5    5    6 ar   
     6    5    7 ar   
     7    5    8 1    
     8    5   12 1    
     9    9   10 ar   
    10    9   11 ar   
    11    9   12 1    
    12    9   13 1    
    13   13   14 1    
    14   14   15 1    
    15   15   16 1    
    16   15   17 1    
    17   16   21 1    
    18   17   18 1    
    19   17   19 1    
    20   19   20 1    
    21   19   21 1    
    22   21   22 1    
    23   22   23 1    
    24   22   31 1    
    25   23   24 2    
    26   24   25 1    
    27   25   26 ar   
    28   25   31 ar   
    29   26   27 1    
    30   26   28 ar   
    31   28   29 ar   
    32   29   30 ar   
    33   30   31 ar   
@<TRIPOS>SUBSTRUCTURE
     1 ATP802      1 GROUP   
@<TRIPOS>SET
ATOM$ORANGE STATIC     ATOMS   COLORGROUP SYSTEM 
20 14 14 15 15 17 17 19 19 21 21 23 23 25 25 26 26 29 \
29 31 31 

