#    Name: 6ip2_10_ATP
#    Modification time : Fri May 22 19:30:15 2020

@<TRIPOS>MOLECULE
6ip2_10_ATP
   31    33     1     0     1
SMALL
NO_CHARGES


@<TRIPOS>ATOM
      1 PG         79.5280   97.5830   58.2250 P.3       1 ATP802      0.0000 
      2 O1G        79.6940   96.9890   56.8500 O.co2     1 ATP802      0.0000 
      3 O2G        80.2900   96.8730   59.3120 O.co2     1 ATP802      0.0000 
      4 O3G        79.6170   99.0850   58.2690 O.co2     1 ATP802      0.0000 
      5 PB         77.4940   95.7900   58.8020 P.3       1 ATP802      0.0000 
      6 O1B        77.7080   95.0260   57.5260 O.co2     1 ATP802      0.0000 
      7 O2B        78.0590   95.2690   60.0990 O.co2     1 ATP802      0.0000 
      8 O3B        77.9970   97.2950   58.5900 O.3       1 ATP802      0.0000 
      9 PA         75.2100   95.1430   60.1140 P.3       1 ATP802      0.0000 
     10 O1A        75.5580   93.7130   59.8150 O.co2     1 ATP802      0.0000 
     11 O2A        75.5590   95.7080   61.4640 O.co2     1 ATP802      0.0000 
     12 O3A        75.9190   96.0100   58.9780 O.3       1 ATP802      0.0000 
     13 O5'        73.6390   95.3590   59.9230 O.3       1 ATP802      0.0000 
     14 C5'        72.9120   95.5540   61.1270 C.3       1 ATP802      0.0000 
     15 C4'        71.4660   95.9570   60.8980 C.3       1 ATP802      0.0000 
     16 O4'        70.8170   95.2280   59.8580 O.3       1 ATP802      0.0000 
     17 C3'        70.6730   95.6790   62.1580 C.3       1 ATP802      0.0000 
     18 O3'        70.4290   96.9040   62.8480 O.3       1 ATP802      0.0000 
     19 C2'        69.3600   95.1160   61.6820 C.3       1 ATP802      0.0000 
     20 O2'        68.3260   95.9380   62.2010 O.3       1 ATP802      0.0000 
     21 C1'        69.4260   95.2350   60.1740 C.3       1 ATP802      0.0000 
     22 N9         68.6390   94.1590   59.5240 N.pl3     1 ATP802      0.0000 
     23 C8         67.2990   94.1630   59.4470 C.2       1 ATP802      0.0000 
     24 N7         66.8350   93.0690   58.8000 N.2       1 ATP802      0.0000 
     25 C5         67.9020   92.3460   58.4410 C.ar      1 ATP802      0.0000 
     26 C6         68.1160   91.0800   57.7220 C.ar      1 ATP802      0.0000 
     27 N6         67.0750   90.3560   57.2550 N.pl3     1 ATP802      0.0000 
     28 N1         69.3830   90.6620   57.5520 N.ar      1 ATP802      0.0000 
     29 C2         70.4220   91.3710   58.0170 C.ar      1 ATP802      0.0000 
     30 N3         70.3030   92.5320   58.6780 N.ar      1 ATP802      0.0000 
     31 C4         69.0890   93.0650   58.9150 C.ar      1 ATP802      0.0000 
@<TRIPOS>BOND
     1    1    2 ar   
     2    1    3 ar   
     3    1    4 ar   
     4    1    8 1    
     5    5    6 ar   
     6    5    7 ar   
     7    5    8 1    
     8    5   12 1    
     9    9   10 ar   
    10    9   11 ar   
    11    9   12 1    
    12    9   13 1    
    13   13   14 1    
    14   14   15 1    
    15   15   16 1    
    16   15   17 1    
    17   16   21 1    
    18   17   18 1    
    19   17   19 1    
    20   19   20 1    
    21   19   21 1    
    22   21   22 1    
    23   22   23 1    
    24   22   31 1    
    25   23   24 2    
    26   24   25 1    
    27   25   26 ar   
    28   25   31 ar   
    29   26   27 1    
    30   26   28 ar   
    31   28   29 ar   
    32   29   30 ar   
    33   30   31 ar   
@<TRIPOS>SUBSTRUCTURE
     1 ATP802      1 GROUP   
@<TRIPOS>SET
ATOM$ORANGE STATIC     ATOMS   COLORGROUP SYSTEM 
20 14 14 15 15 17 17 19 19 21 21 23 23 25 25 26 26 29 \
29 31 31 

