#    Name: 6ip2_7_ATP
#    Modification time : Fri May 22 19:29:31 2020

@<TRIPOS>MOLECULE
6ip2_7_ATP
   31    33     1     0     1
SMALL
NO_CHARGES


@<TRIPOS>ATOM
      1 PG         77.8700  114.8440   95.8540 P.3       1 ATP801      0.0000 
      2 O1G        78.4080  113.8350   94.8780 O.co2     1 ATP801      0.0000 
      3 O2G        77.9010  114.3890   97.2900 O.co2     1 ATP801      0.0000 
      4 O3G        78.3740  116.2420   95.6270 O.co2     1 ATP801      0.0000 
      5 PB         75.7640  115.3830   94.1020 P.3       1 ATP801      0.0000 
      6 O1B        76.9350  115.6960   93.2100 O.co2     1 ATP801      0.0000 
      7 O2B        74.7180  114.4050   93.6530 O.co2     1 ATP801      0.0000 
      8 O3B        76.3010  114.9610   95.5500 O.3       1 ATP801      0.0000 
      9 PA         74.1140  116.7810   95.7940 P.3       1 ATP801      0.0000 
     10 O1A        73.3360  115.5070   95.9160 O.co2     1 ATP801      0.0000 
     11 O2A        75.0220  117.1740   96.9210 O.co2     1 ATP801      0.0000 
     12 O3A        74.9660  116.7270   94.4420 O.3       1 ATP801      0.0000 
     13 O5'        73.0690  117.9720   95.5810 O.3       1 ATP801      0.0000 
     14 C5'        73.2050  119.1120   96.4150 C.3       1 ATP801      0.0000 
     15 C4'        72.2890  120.2180   95.9290 C.3       1 ATP801      0.0000 
     16 O4'        71.6440  119.8660   94.7130 O.3       1 ATP801      0.0000 
     17 C3'        71.2040  120.4320   96.9480 C.3       1 ATP801      0.0000 
     18 O3'        71.3090  121.7650   97.4370 O.3       1 ATP801      0.0000 
     19 C2'        69.9000  120.3130   96.2090 C.3       1 ATP801      0.0000 
     20 O2'        69.1430  121.4970   96.4640 O.3       1 ATP801      0.0000 
     21 C1'        70.2700  120.2530   94.7450 C.3       1 ATP801      0.0000 
     22 N9         69.4790  119.2470   93.9920 N.pl3     1 ATP801      0.0000 
     23 C8         70.0340  118.3520   93.1680 C.2       1 ATP801      0.0000 
     24 N7         69.1000  117.5610   92.5940 N.2       1 ATP801      0.0000 
     25 C5         67.9070  117.9620   93.0430 C.ar      1 ATP801      0.0000 
     26 C6         66.5080  117.5470   92.8300 C.ar      1 ATP801      0.0000 
     27 N6         66.1990  116.5320   91.9990 N.pl3     1 ATP801      0.0000 
     28 N1         65.5450  118.2180   93.4810 N.ar      1 ATP801      0.0000 
     29 C2         65.8410  119.2270   94.3120 C.ar      1 ATP801      0.0000 
     30 N3         67.0880  119.6630   94.5410 N.ar      1 ATP801      0.0000 
     31 C4         68.1550  119.0790   93.9570 C.ar      1 ATP801      0.0000 
@<TRIPOS>BOND
     1    1    2 ar   
     2    1    3 ar   
     3    1    4 ar   
     4    1    8 1    
     5    5    6 ar   
     6    5    7 ar   
     7    5    8 1    
     8    5   12 1    
     9    9   10 ar   
    10    9   11 ar   
    11    9   12 1    
    12    9   13 1    
    13   13   14 1    
    14   14   15 1    
    15   15   16 1    
    16   15   17 1    
    17   16   21 1    
    18   17   18 1    
    19   17   19 1    
    20   19   20 1    
    21   19   21 1    
    22   21   22 1    
    23   22   23 1    
    24   22   31 1    
    25   23   24 2    
    26   24   25 1    
    27   25   26 ar   
    28   25   31 ar   
    29   26   27 1    
    30   26   28 ar   
    31   28   29 ar   
    32   29   30 ar   
    33   30   31 ar   
@<TRIPOS>SUBSTRUCTURE
     1 ATP801      1 GROUP   
@<TRIPOS>SET
ATOM$ORANGE STATIC     ATOMS   COLORGROUP SYSTEM 
20 14 14 15 15 17 17 19 19 21 21 23 23 25 25 26 26 29 \
29 31 31 

