#    Name: 6ip2_9_ATP
#    Modification time : Fri May 22 19:30:01 2020

@<TRIPOS>MOLECULE
6ip2_9_ATP
   31    33     1     0     1
SMALL
NO_CHARGES


@<TRIPOS>ATOM
      1 PG         82.3850   86.6430   98.6920 P.3       1 ATP801      0.0000 
      2 O1G        82.4870   86.2220   97.2490 O.co2     1 ATP801      0.0000 
      3 O2G        82.8190   88.0590   98.9710 O.co2     1 ATP801      0.0000 
      4 O3G        82.9340   85.6440   99.6770 O.co2     1 ATP801      0.0000 
      5 PB         80.0930   85.2220   99.2570 P.3       1 ATP801      0.0000 
      6 O1B        80.4460   84.2900   98.1330 O.co2     1 ATP801      0.0000 
      7 O2B        80.3650   84.8560  100.6920 O.co2     1 ATP801      0.0000 
      8 O3B        80.8050   86.6310   98.9780 O.3       1 ATP801      0.0000 
      9 PA         77.5780   84.2210   99.0180 P.3       1 ATP801      0.0000 
     10 O1A        77.6100   83.7090   97.6050 O.co2     1 ATP801      0.0000 
     11 O2A        77.9690   83.2790  100.1220 O.co2     1 ATP801      0.0000 
     12 O3A        78.5270   85.5050   99.0910 O.3       1 ATP801      0.0000 
     13 O5'        76.1180   84.8210   99.2970 O.3       1 ATP801      0.0000 
     14 C5'        75.5750   84.9180  100.6080 C.3       1 ATP801      0.0000 
     15 C4'        74.1000   85.2400  100.4310 C.3       1 ATP801      0.0000 
     16 O4'        73.7490   85.0390   99.0650 O.3       1 ATP801      0.0000 
     17 C3'        73.2120   84.3410  101.2630 C.3       1 ATP801      0.0000 
     18 O3'        72.5410   85.1070  102.2670 O.3       1 ATP801      0.0000 
     19 C2'        72.1920   83.7710  100.3050 C.3       1 ATP801      0.0000 
     20 O2'        70.9140   84.3410  100.5910 O.3       1 ATP801      0.0000 
     21 C1'        72.6220   84.1810   98.9130 C.3       1 ATP801      0.0000 
     22 N9         73.1030   83.0030   98.1680 N.pl3     1 ATP801      0.0000 
     23 C8         74.3050   82.9580   97.5820 C.2       1 ATP801      0.0000 
     24 N7         74.5170   81.7770   96.9630 N.2       1 ATP801      0.0000 
     25 C5         73.4200   81.0380   97.1550 C.ar      1 ATP801      0.0000 
     26 C6         73.0150   79.6850   96.7620 C.ar      1 ATP801      0.0000 
     27 N6         73.8450   78.9040   96.0310 N.pl3     1 ATP801      0.0000 
     28 N1         71.7970   79.2670   97.1540 N.ar      1 ATP801      0.0000 
     29 C2         70.9730   80.0470   97.8670 C.ar      1 ATP801      0.0000 
     30 N3         71.2880   81.2890   98.2610 N.ar      1 ATP801      0.0000 
     31 C4         72.4810   81.8420   97.9450 C.ar      1 ATP801      0.0000 
@<TRIPOS>BOND
     1    1    2 ar   
     2    1    3 ar   
     3    1    4 ar   
     4    1    8 1    
     5    5    6 ar   
     6    5    7 ar   
     7    5    8 1    
     8    5   12 1    
     9    9   10 ar   
    10    9   11 ar   
    11    9   12 1    
    12    9   13 1    
    13   13   14 1    
    14   14   15 1    
    15   15   16 1    
    16   15   17 1    
    17   16   21 1    
    18   17   18 1    
    19   17   19 1    
    20   19   20 1    
    21   19   21 1    
    22   21   22 1    
    23   22   23 1    
    24   22   31 1    
    25   23   24 2    
    26   24   25 1    
    27   25   26 ar   
    28   25   31 ar   
    29   26   27 1    
    30   26   28 ar   
    31   28   29 ar   
    32   29   30 ar   
    33   30   31 ar   
@<TRIPOS>SUBSTRUCTURE
     1 ATP801      1 GROUP   
@<TRIPOS>SET
ATOM$ORANGE STATIC     ATOMS   COLORGROUP SYSTEM 
20 14 14 15 15 17 17 19 19 21 21 23 23 25 25 26 26 29 \
29 31 31 

