#    Name: 6bb1_4_NAD
#    Modification time : Fri May 22 19:25:25 2020

@<TRIPOS>MOLECULE
6bb1_4_NAD
   44    48     1     0     1
SMALL
NO_CHARGES


@<TRIPOS>ATOM
      1 PA         13.5990   11.6420  105.7830 P.3       1 NAD801      0.0000 
      2 O1A        13.1960   12.2310  104.4420 O.co2     1 NAD801      0.0000 
      3 O2A        14.7800   10.6710  105.7030 O.co2     1 NAD801      0.0000 
      4 O5B        12.3730   10.9250  106.4380 O.3       1 NAD801      0.0000 
      5 C5B        11.1390   11.5050  106.5030 C.3       1 NAD801      0.0000 
      6 C4B        10.0840   10.5410  106.6140 C.3       1 NAD801      0.0000 
      7 O4B         8.8570   11.2000  106.7460 O.3       1 NAD801      0.0000 
      8 C3B        10.0150    9.7090  105.3670 C.3       1 NAD801      0.0000 
      9 O3B        10.1550    8.3450  105.6770 O.3       1 NAD801      0.0000 
     10 C2B         8.7490   10.0220  104.8250 C.3       1 NAD801      0.0000 
     11 O2B         8.1050    8.9940  104.1530 O.3       1 NAD801      0.0000 
     12 C1B         7.9860   10.4020  106.0430 C.3       1 NAD801      0.0000 
     13 N9A         6.7410   11.0520  105.7750 N.pl3     1 NAD801      0.0000 
     14 C8A         6.4820   11.9520  104.8120 C.2       1 NAD801      0.0000 
     15 N7A         5.1610   12.2410  104.8400 N.2       1 NAD801      0.0000 
     16 C5A         4.5860   11.5190  105.8120 C.ar      1 NAD801      0.0000 
     17 C6A         3.2860   11.4010  106.3330 C.ar      1 NAD801      0.0000 
     18 N6A         2.2170   12.1890  105.7480 N.pl3     1 NAD801      0.0000 
     19 N1A         3.0360   10.5660  107.3650 N.ar      1 NAD801      0.0000 
     20 C2A         4.0470    9.8320  107.9060 C.ar      1 NAD801      0.0000 
     21 N3A         5.3030    9.9170  107.4420 N.ar      1 NAD801      0.0000 
     22 C4A         5.5930   10.7450  106.4090 C.ar      1 NAD801      0.0000 
     23 O3         13.9750   12.9240  106.6720 O.3       1 NAD801      0.0000 
     24 PN         14.8500   12.8290  108.0250 P.3       1 NAD801      0.0000 
     25 O1N        14.4650   11.5710  108.8370 O.co2     1 NAD801      0.0000 
     26 O2N        16.3240   12.8560  107.7480 O.co2     1 NAD801      0.0000 
     27 O5D        14.4410   14.0960  108.8590 O.3       1 NAD801      0.0000 
     28 C5D        13.1180   14.3150  109.2250 C.3       1 NAD801      0.0000 
     29 C4D        12.7810   15.6080  109.7500 C.3       1 NAD801      0.0000 
     30 O4D        13.5400   15.8430  110.9820 O.3       1 NAD801      0.0000 
     31 C3D        13.1180   16.7100  108.8240 C.3       1 NAD801      0.0000 
     32 O3D        12.0960   17.6460  108.8100 O.3       1 NAD801      0.0000 
     33 C2D        14.3850   17.2520  109.3660 C.3       1 NAD801      0.0000 
     34 O2D        14.6490   18.5200  108.9980 O.3       1 NAD801      0.0000 
     35 C1D        14.2070   17.0730  110.8420 C.3       1 NAD801      0.0000 
     36 N1N        15.4480   17.2090  111.6280 N.pl3     1 NAD801      0.0000 
     37 C2N        15.3340   17.9290  112.7780 C.ar      1 NAD801      0.0000 
     38 C3N        16.4310   18.0890  113.6340 C.ar      1 NAD801      0.0000 
     39 C7N        16.2690   18.9450  114.8630 C.2       1 NAD801      0.0000 
     40 O7N        17.2950   19.2880  115.4930 O.2       1 NAD801      0.0000 
     41 N7N        14.9740   19.3800  115.2910 N.am      1 NAD801      0.0000 
     42 C4N        17.6650   17.5010  113.2910 C.ar      1 NAD801      0.0000 
     43 C5N        17.7860   16.7220  112.1220 C.ar      1 NAD801      0.0000 
     44 C6N        16.6410   16.5900  111.3000 C.ar      1 NAD801      0.0000 
@<TRIPOS>BOND
     1    1    2 ar   
     2    1    3 ar   
     3    1    4 1    
     4    1   23 1    
     5    4    5 1    
     6    5    6 1    
     7    6    7 1    
     8    6    8 1    
     9    7   12 1    
    10    8    9 1    
    11    8   10 1    
    12   10   11 1    
    13   10   12 1    
    14   12   13 1    
    15   13   14 1    
    16   13   22 1    
    17   14   15 2    
    18   15   16 1    
    19   16   17 ar   
    20   16   22 ar   
    21   17   18 1    
    22   17   19 ar   
    23   19   20 ar   
    24   20   21 ar   
    25   21   22 ar   
    26   23   24 1    
    27   24   25 ar   
    28   24   26 ar   
    29   24   27 1    
    30   27   28 1    
    31   28   29 1    
    32   29   30 1    
    33   29   31 1    
    34   30   35 1    
    35   31   32 1    
    36   31   33 1    
    37   33   34 1    
    38   33   35 1    
    39   35   36 1    
    40   36   37 ar   
    41   36   44 ar   
    42   37   38 ar   
    43   38   39 1    
    44   38   42 ar   
    45   39   40 2    
    46   39   41 am   
    47   42   43 ar   
    48   43   44 ar   
@<TRIPOS>SUBSTRUCTURE
     1 NAD801      1 GROUP   
@<TRIPOS>SET
ATOM$ORANGE STATIC     ATOMS   COLORGROUP SYSTEM 
42 5 5 6 6 8 8 10 10 12 12 14 14 16 16 17 17 20 \
20 22 22 28 28 29 29 31 31 33 33 35 35 37 37 38 38 39 \
39 42 42 43 43 44 44 

