#    Name: 6k4r_1_AMP
#    Modification time : Fri May 22 19:28:11 2020

@<TRIPOS>MOLECULE
6k4r_1_AMP
   23    25     1     0     1
SMALL
NO_CHARGES


@<TRIPOS>ATOM
      1 P         -10.8380   -7.5640   20.6510 P.3       1 AMP901      0.0000 
      2 O1P       -11.1250   -6.6420   19.4870 O.co2     1 AMP901      0.0000 
      3 O2P       -10.8940   -9.0330   20.2950 O.co2     1 AMP901      0.0000 
      4 O3P        -9.6390   -7.1540   21.4770 O.co2     1 AMP901      0.0000 
      5 O5'       -12.0700   -7.3480   21.6400 O.3       1 AMP901      0.0000 
      6 C5'       -11.8790   -7.2930   23.0510 C.3       1 AMP901      0.0000 
      7 C4'       -12.6400   -8.3860   23.7560 C.3       1 AMP901      0.0000 
      8 O4'       -13.8200   -8.7140   22.9700 O.3       1 AMP901      0.0000 
      9 C3'       -11.8680   -9.6970   23.9320 C.3       1 AMP901      0.0000 
     10 O3'       -12.2380  -10.3110   25.1660 O.3       1 AMP901      0.0000 
     11 C2'       -12.3790  -10.5430   22.7730 C.3       1 AMP901      0.0000 
     12 O2'       -12.2520  -11.9360   22.9610 O.3       1 AMP901      0.0000 
     13 C1'       -13.8350  -10.0990   22.7030 C.3       1 AMP901      0.0000 
     14 N9        -14.4810  -10.3350   21.4080 N.pl3     1 AMP901      0.0000 
     15 C8        -13.8610  -10.6290   20.2480 C.2       1 AMP901      0.0000 
     16 N7        -14.7590  -10.8160   19.2440 N.2       1 AMP901      0.0000 
     17 C5        -15.9890  -10.6510   19.7660 C.ar      1 AMP901      0.0000 
     18 C6        -17.3850  -10.7110   19.2690 C.ar      1 AMP901      0.0000 
     19 N6        -17.6550  -10.9870   17.9730 N.pl3     1 AMP901      0.0000 
     20 N1        -18.3830  -10.4780   20.1470 N.ar      1 AMP901      0.0000 
     21 C2        -18.1290  -10.2000   21.4380 C.ar      1 AMP901      0.0000 
     22 N3        -16.8910  -10.1270   21.9580 N.ar      1 AMP901      0.0000 
     23 C4        -15.7980  -10.3390   21.1890 C.ar      1 AMP901      0.0000 
@<TRIPOS>BOND
     1    1    2 ar   
     2    1    3 ar   
     3    1    4 ar   
     4    1    5 1    
     5    5    6 1    
     6    6    7 1    
     7    7    8 1    
     8    7    9 1    
     9    8   13 1    
    10    9   10 1    
    11    9   11 1    
    12   11   12 1    
    13   11   13 1    
    14   13   14 1    
    15   14   15 1    
    16   14   23 1    
    17   15   16 2    
    18   16   17 1    
    19   17   18 ar   
    20   17   23 ar   
    21   18   19 1    
    22   18   20 ar   
    23   20   21 ar   
    24   21   22 ar   
    25   22   23 ar   
@<TRIPOS>SUBSTRUCTURE
     1 AMP901      1 GROUP   
@<TRIPOS>SET
ATOM$ORANGE STATIC     ATOMS   COLORGROUP SYSTEM 
20 6 6 7 7 9 9 11 11 13 13 15 15 17 17 18 18 21 \
21 23 23 

