#    Name: 6k4r_1_AMP_CAVITY_N1_6
#    Modification time : Fri May 22 19:28:12 2020

@<TRIPOS>MOLECULE
6k4r_1_AMP_CAVITY_N1_6
   90     0     7     0     0
SMALL
NO_CHARGES


@<TRIPOS>ATOM
      1 OG         -9.4700  -10.3700   22.3200 O.3       1 SER1        0.0000 
      2 OG         -7.9800   -8.3200   22.8700 O.3       1 SER1        0.0000 
      3 OG         -9.1000   -9.9200   23.7000 O.3       1 SER1        0.0000 
      4 OG         -9.4000   -8.5000   23.3100 O.3       1 SER1        0.0000 
      5 OG        -12.2500   -8.8600   24.1900 O.3       1 SER1        0.0000 
      6 OG         -5.3600   -4.6700   22.5900 O.3       1 SER1        0.0000 
      7 OG         -6.1800   -7.6900   23.8100 O.3       1 SER1        0.0000 
      8 OG         -7.6100   -7.8600   24.2500 O.3       1 SER1        0.0000 
      9 OG         -8.7300   -9.4600   25.0800 O.3       1 SER1        0.0000 
     10 OG        -10.1500   -9.6400   25.5200 O.3       1 SER1        0.0000 
     11 OG        -10.4500   -8.2200   25.1300 O.3       1 SER1        0.0000 
     12 OG        -11.5800   -9.8200   25.9600 O.3       1 SER1        0.0000 
     13 OG        -12.7000  -11.4200   26.7900 O.3       1 SER1        0.0000 
     14 OG         -9.7800   -9.1900   26.9000 O.3       1 SER1        0.0000 
     15 N         -10.8800  -10.3200   17.7900 N.am      2 ALA2        0.0000 
     16 N         -12.0000  -11.9200   18.6100 N.am      2 ALA2        0.0000 
     17 O         -13.7300  -10.6800   18.6700 O.2       2 ALA2        0.0000 
     18 N         -10.5100   -9.8600   19.1700 N.am      2 ALA2        0.0000 
     19 N         -11.9300  -10.0400   19.6100 N.am      2 ALA2        0.0000 
     20 N         -11.2600  -11.0100   21.3800 N.am      2 ALA2        0.0000 
     21 N         -12.6900  -11.1900   21.8200 N.am      2 ALA2        0.0000 
     22 O         -12.7700  -13.2900   25.7900 O.2       2 ALA2        0.0000 
     23 O          -6.4800   -6.2700   23.4200 O.2       2 ALA2        0.0000 
     24 O          -7.9100   -6.4500   23.8600 O.2       2 ALA2        0.0000 
     25 N          -9.0300   -8.0400   24.6900 N.am      2 ALA2        0.0000 
     26 N         -10.7500   -6.8100   24.7400 N.am      2 ALA2        0.0000 
     27 OD1       -15.0800   -8.9800   20.1000 O.co2     3 ASP3        0.0000 
     28 OD1       -13.2800   -8.3500   21.0400 O.co2     3 ASP3        0.0000 
     29 OD1       -13.5800   -6.9300   20.6600 O.co2     3 ASP3        0.0000 
     30 OD1       -14.4100   -9.9500   21.8700 O.co2     3 ASP3        0.0000 
     31 OD1       -10.8900  -10.5500   22.7600 O.co2     3 ASP3        0.0000 
     32 OD1       -11.7900   -6.3000   21.6000 O.co2     3 ASP3        0.0000 
     33 OD1       -12.0200  -12.1500   23.5800 O.co2     3 ASP3        0.0000 
     34 OD1       -12.3200  -10.7300   23.2000 O.co2     3 ASP3        0.0000 
     35 OD1       -12.9100   -7.9000   22.4200 O.co2     3 ASP3        0.0000 
     36 OD1       -13.7400  -10.9100   23.6400 O.co2     3 ASP3        0.0000 
     37 OD1       -14.0400   -9.4900   23.2500 O.co2     3 ASP3        0.0000 
     38 OD1       -10.5200  -10.1000   24.1400 O.co2     3 ASP3        0.0000 
     39 OD1       -11.6500  -11.6900   24.9600 O.co2     3 ASP3        0.0000 
     40 OD1       -11.9500  -10.2800   24.5800 O.co2     3 ASP3        0.0000 
     41 OD1       -12.5400   -7.4400   23.8000 O.co2     3 ASP3        0.0000 
     42 OD1       -13.0700  -11.8700   25.4000 O.co2     3 ASP3        0.0000 
     43 OD1       -13.3700  -10.4600   25.0200 O.co2     3 ASP3        0.0000 
     44 OD1        -9.8500  -11.0600   25.9000 O.co2     3 ASP3        0.0000 
     45 OD1       -11.2800  -11.2400   26.3400 O.co2     3 ASP3        0.0000 
     46 NZ        -12.6700  -10.9500   16.8500 N.4       4 LYS4        0.0000 
     47 NZ        -11.1800   -8.9000   17.4000 N.4       4 LYS4        0.0000 
     48 NZ        -13.3600  -10.2200   20.0500 N.4       4 LYS4        0.0000 
     49 NZ        -14.7800  -10.4000   20.4900 N.4       4 LYS4        0.0000 
     50 CZ         -9.3900   -8.2700   18.3400 C.ar      5 PHE5        0.0000 
     51 CZ         -9.0200   -7.8100   19.7200 C.ar      5 PHE5        0.0000 
     52 CZ         -7.5200   -5.7600   20.2700 C.ar      5 PHE5        0.0000 
     53 CZ         -8.6500   -7.3600   21.1000 C.ar      5 PHE5        0.0000 
     54 CZ         -8.9500   -5.9400   20.7100 C.ar      5 PHE5        0.0000 
     55 CZ         -6.8500   -6.7200   22.0400 C.ar      5 PHE5        0.0000 
     56 CZ         -4.7600   -7.5100   23.3700 C.ar      5 PHE5        0.0000 
     57 CZ         -5.0600   -6.0900   22.9800 C.ar      5 PHE5        0.0000 
     58 CA        -10.1400   -9.4100   20.5500 C.3       6 GLY6        0.0000 
     59 CA        -10.4400   -7.9900   20.1600 C.3       6 GLY6        0.0000 
     60 CA         -8.3500   -8.7700   21.4900 C.3       6 GLY6        0.0000 
     61 CA         -9.7700   -8.9500   21.9300 C.3       6 GLY6        0.0000 
     62 CA        -12.0900   -4.8800   21.2100 C.3       6 GLY6        0.0000 
     63 CA         -7.1500   -5.3000   21.6500 C.3       6 GLY6        0.0000 
     64 CA         -8.2800   -6.9000   22.4800 C.3       6 GLY6        0.0000 
     65 CA         -8.5800   -5.4800   22.0900 C.3       6 GLY6        0.0000 
     66 CA         -9.7000   -7.0800   22.9200 C.3       6 GLY6        0.0000 
     67 CA        -10.0000   -5.6600   22.5400 C.3       6 GLY6        0.0000 
     68 CA        -11.1200   -7.2600   23.3600 C.3       6 GLY6        0.0000 
     69 CA        -11.4200   -5.8400   22.9800 C.3       6 GLY6        0.0000 
     70 CA        -13.6700   -9.0400   24.6300 C.3       6 GLY6        0.0000 
     71 CA        -13.0000  -10.0000   26.4000 C.3       6 GLY6        0.0000 
     72 DU        -12.3000  -10.5000   18.2300 H         7 CUB7        0.0000 
     73 DU        -12.6000   -9.0800   17.8400 H         7 CUB7        0.0000 
     74 DU        -14.0200   -9.2600   18.2800 H         7 CUB7        0.0000 
     75 DU        -15.4500   -9.4400   18.7200 H         7 CUB7        0.0000 
     76 DU        -10.8100   -8.4500   18.7800 H         7 CUB7        0.0000 
     77 DU        -11.1100   -7.0300   18.3900 H         7 CUB7        0.0000 
     78 DU        -13.6500   -8.8000   19.6600 H         7 CUB7        0.0000 
     79 DU        -13.9500   -7.3900   19.2700 H         7 CUB7        0.0000 
     80 DU        -10.7400   -6.5700   19.7700 H         7 CUB7        0.0000 
     81 DU        -11.5600   -9.5900   20.9900 H         7 CUB7        0.0000 
     82 DU        -11.8600   -8.1700   20.6000 H         7 CUB7        0.0000 
     83 DU        -12.1600   -6.7500   20.2100 H         7 CUB7        0.0000 
     84 DU        -12.9900   -9.7700   21.4300 H         7 CUB7        0.0000 
     85 DU        -10.0700   -7.5400   21.5400 H         7 CUB7        0.0000 
     86 DU        -10.3700   -6.1200   21.1500 H         7 CUB7        0.0000 
     87 DU        -11.1900   -9.1300   22.3700 H         7 CUB7        0.0000 
     88 DU        -11.4900   -7.7200   21.9800 H         7 CUB7        0.0000 
     89 DU        -12.6200   -9.3100   22.8100 H         7 CUB7        0.0000 
     90 DU        -10.8200   -8.6800   23.7500 H         7 CUB7        0.0000 
@<TRIPOS>BOND
@<TRIPOS>SUBSTRUCTURE
     1 SER1        1 GROUP   
     2 ALA2       15 GROUP   
     3 ASP3       27 GROUP   
     4 LYS4       46 GROUP   
     5 PHE5       50 GROUP   
     6 GLY6       58 GROUP   
     7 CUB7       72 GROUP   
@<TRIPOS>SET

