#    Name: 6nfz_1_B49
#    Modification time : Fri May 22 19:28:48 2020

@<TRIPOS>MOLECULE
6nfz_1_B49
   56    58     1     0     0
SMALL
NO_CHARGES


@<TRIPOS>ATOM
      1 C4        184.2500  222.4120  154.8890 C.3       1 B49401      0.0000 
      2 C5        183.9310  231.9260  152.2090 C.ar      1 B49401      0.0000 
      3 C6        183.9800  230.7340  151.4460 C.ar      1 B49401      0.0000 
      4 C7        184.0260  230.6130  154.2660 C.ar      1 B49401      0.0000 
      5 C13       184.5620  225.6040  156.8590 C.2       1 B49401      0.0000 
      6 C15       183.9540  231.8630  153.6170 C.ar      1 B49401      0.0000 
      7 C17       184.0740  229.4130  153.5000 C.ar      1 B49401      0.0000 
      8 C20       184.1540  227.9750  153.9070 C.2       1 B49401      0.0000 
      9 C21       184.1750  227.1770  152.6950 C.2       1 B49401      0.0000 
     10 C22       184.8340  223.2350  158.0000 C.2       1 B49401      0.0000 
     11 C3        184.7830  226.4650  158.0890 C.3       1 B49401      0.0000 
     12 C12       184.1880  227.5530  155.1830 C.2       1 B49401      0.0000 
     13 C14       184.3300  223.8450  155.4640 C.2       1 B49401      0.0000 
     14 C16       184.0520  229.4750  152.1000 C.ar      1 B49401      0.0000 
     15 C18       184.3000  226.0650  155.5690 C.2       1 B49401      0.0000 
     16 C19       184.5860  224.1920  156.8060 C.2       1 B49401      0.0000 
     17 N23       184.1610  224.9760  154.7440 N.pl3     1 B49401      0.0000 
     18 N24       184.1140  228.0710  151.5730 N.am      1 B49401      0.0000 
     19 N25       185.1680  221.8430  157.7770 N.am      1 B49401      0.0000 
     20 O27       184.2350  225.9660  152.6210 O.2       1 B49401      0.0000 
     21 O28       184.7350  223.6610  159.1350 O.2       1 B49401      0.0000 
     22 F29       183.9080  232.9940  154.3360 F         1 B49401      0.0000 
     23 H4        183.4500  221.9590  155.2370 H         1 B49401      0.0000 
     24 H4A       184.1860  222.4660  153.9070 H         1 B49401      0.0000 
     25 H4B       185.0570  221.9140  155.1290 H         1 B49401      0.0000 
     26 H5        183.8820  232.8030  151.7550 H         1 B49401      0.0000 
     27 H6        183.9650  230.7780  150.4650 H         1 B49401      0.0000 
     28 H7        184.0410  230.5700  155.2400 H         1 B49401      0.0000 
     29 H3        184.3780  226.0280  158.8720 H         1 B49401      0.0000 
     30 H3A       184.3690  227.3390  157.9520 H         1 B49401      0.0000 
     31 H3B       185.7510  226.5800  158.2400 H         1 B49401      0.0000 
     32 H12       184.0460  228.2060  155.8900 H         1 B49401      0.0000 
     33 C37       185.3910  220.9410  158.9030 C.3       1 B49401      0.0000 
     34 HN23      183.9850  225.0020  153.8480 H         1 B49401      0.0000 
     35 C38       186.2550  221.5990  159.9970 C.3       1 B49401      0.0000 
     36 HN24      184.1150  227.8290  150.6980 H         1 B49401      0.0000 
     37 N4        187.3670  220.7080  160.3660 N.4       1 B49401      0.0000 
     38 HN25      185.2350  221.5230  156.9300 H         1 B49401      0.0000 
     39 C39       188.2560  220.5250  159.2240 C.3       1 B49401      0.0000 
     40 C40       188.1060  221.2810  161.4770 C.3       1 B49401      0.0000 
     41 C41       187.2060  221.4620  162.7110 C.3       1 B49401      0.0000 
     42 C42       189.0720  219.2270  159.3730 C.3       1 B49401      0.0000 
     43 H14       185.8380  220.1330  158.5830 H         1 B49401      0.0000 
     44 H15       184.5340  220.6990  159.2850 H         1 B49401      0.0000 
     45 H16       185.6800  221.7240  160.7820 H         1 B49401      0.0000 
     46 H17       186.6000  222.4640  159.6880 H         1 B49401      0.0000 
     47 H18       187.7260  220.4770  158.3970 H         1 B49401      0.0000 
     48 H19       188.8680  221.2810  159.1650 H         1 B49401      0.0000 
     49 H20       188.8380  220.6730  161.7130 H         1 B49401      0.0000 
     50 H21       188.4910  222.1490  161.2060 H         1 B49401      0.0000 
     51 H22       187.4890  222.2640  163.2110 H         1 B49401      0.0000 
     52 H23       186.2870  221.5650  162.4310 H         1 B49401      0.0000 
     53 H24       187.2830  220.6760  163.2860 H         1 B49401      0.0000 
     54 H25       189.2800  218.8650  158.4770 H         1 B49401      0.0000 
     55 H26       189.9140  219.4200  159.8540 H         1 B49401      0.0000 
     56 H27       188.5450  218.5620  159.8830 H         1 B49401      0.0000 
@<TRIPOS>BOND
     1    1   13 1    
     2    1   23 1    
     3    1   24 1    
     4    1   25 1    
     5    2    3 ar   
     6    2    6 ar   
     7    2   26 1    
     8    3   14 ar   
     9    3   27 1    
    10    4    6 ar   
    11    4    7 ar   
    12    4   28 1    
    13    5   11 1    
    14    5   15 2    
    15    5   16 1    
    16    6   22 1    
    17    7    8 1    
    18    7   14 ar   
    19    8    9 1    
    20    8   12 2    
    21    9   18 am   
    22    9   20 2    
    23   10   16 1    
    24   10   19 am   
    25   10   21 2    
    26   11   29 1    
    27   11   30 1    
    28   11   31 1    
    29   12   15 1    
    30   12   32 1    
    31   13   16 2    
    32   13   17 1    
    33   14   18 1    
    34   15   17 1    
    35   17   34 1    
    36   19   33 1    
    37   18   36 1    
    38   33   35 1    
    39   19   38 1    
    40   33   43 1    
    41   33   44 1    
    42   35   37 1    
    43   35   45 1    
    44   35   46 1    
    45   37   39 1    
    46   37   40 1    
    47   39   42 1    
    48   39   47 1    
    49   39   48 1    
    50   40   41 1    
    51   40   49 1    
    52   40   50 1    
    53   41   51 1    
    54   41   52 1    
    55   41   53 1    
    56   42   54 1    
    57   42   55 1    
    58   42   56 1    
@<TRIPOS>SUBSTRUCTURE
     1 B49401      1 GROUP   
@<TRIPOS>SET

