#    Name: 6nfz_2_B49
#    Modification time : Fri May 22 19:28:52 2020

@<TRIPOS>MOLECULE
6nfz_2_B49
   56    58     1     0     0
SMALL
NO_CHARGES


@<TRIPOS>ATOM
      1 C4        178.7880  226.3570  186.9950 C.3       1 B499001     0.0000 
      2 C5        185.7980  233.1140  188.7330 C.ar      1 B499001     0.0000 
      3 C6        184.9140  232.4410  189.6110 C.ar      1 B499001     0.0000 
      4 C7        184.7090  232.0580  186.8210 C.ar      1 B499001     0.0000 
      5 C13       180.7740  228.5950  184.7210 C.2       1 B499001     0.0000 
      6 C15       185.6940  232.9210  187.3410 C.ar      1 B499001     0.0000 
      7 C17       183.8200  231.3810  187.7030 C.ar      1 B499001     0.0000 
      8 C20       182.7010  230.4290  187.4410 C.2       1 B499001     0.0000 
      9 C21       182.1340  230.0490  188.7190 C.2       1 B499001     0.0000 
     10 C22       178.9970  226.8770  183.7990 C.2       1 B499001     0.0000 
     11 C3        181.2200  229.1770  183.3930 C.3       1 B499001     0.0000 
     12 C12       182.3340  230.0250  186.2160 C.2       1 B499001     0.0000 
     13 C14       179.7210  227.3730  186.2990 C.2       1 B499001     0.0000 
     14 C16       183.9210  231.5710  189.0870 C.ar      1 B499001     0.0000 
     15 C18       181.2500  228.9560  185.9790 C.2       1 B499001     0.0000 
     16 C19       179.7990  227.5930  184.9120 C.2       1 B499001     0.0000 
     17 N23       180.5970  228.1960  186.9200 N.pl3     1 B499001     0.0000 
     18 N24       182.8630  230.7370  189.7470 N.am      1 B499001     0.0000 
     19 N25       178.4730  227.6400  182.6880 N.am      1 B499001     0.0000 
     20 O27       181.2080  229.2890  188.9030 O.2       1 B499001     0.0000 
     21 O28       178.8250  225.6770  183.8640 O.2       1 B499001     0.0000 
     22 F29       186.5320  233.5570  186.5100 F         1 B499001     0.0000 
     23 H4        179.3150  225.7900  187.6010 H         1 B499001     0.0000 
     24 H4A       178.3520  225.7950  186.3140 H         1 B499001     0.0000 
     25 H4B       178.1060  226.8370  187.5060 H         1 B499001     0.0000 
     26 H5        186.4900  233.7190  189.0970 H         1 B499001     0.0000 
     27 H6        184.9880  232.5760  190.5820 H         1 B499001     0.0000 
     28 H7        184.6360  231.9240  185.8590 H         1 B499001     0.0000 
     29 H3        181.4030  230.1370  183.5010 H         1 B499001     0.0000 
     30 H3A       180.5130  229.0520  182.7300 H         1 B499001     0.0000 
     31 H3B       182.0390  228.7170  183.0910 H         1 B499001     0.0000 
     32 H12       182.8670  230.3170  185.4570 H         1 B499001     0.0000 
     33 C37       177.7300  226.9950  181.6100 C.3       1 B499001     0.0000 
     34 HN23      180.7260  228.2390  187.8240 H         1 B499001     0.0000 
     35 C38       176.7700  225.9070  182.1240 C.3       1 B499001     0.0000 
     36 HN24      182.7100  230.6770  190.6400 H         1 B499001     0.0000 
     37 N4        175.7380  225.6340  181.1090 N.4       1 B499001     0.0000 
     38 HN25      178.6230  228.5370  182.6520 H         1 B499001     0.0000 
     39 C39       174.9070  224.4780  181.4420 C.3       1 B499001     0.0000 
     40 C40       174.8900  226.8040  180.9650 C.3       1 B499001     0.0000 
     41 C41       174.2180  227.1740  182.2970 C.3       1 B499001     0.0000 
     42 C42       175.6980  223.2670  181.9830 C.3       1 B499001     0.0000 
     43 H14       177.2180  227.6700  181.1220 H         1 B499001     0.0000 
     44 H15       178.3610  226.5830  181.0010 H         1 B499001     0.0000 
     45 H16       177.2840  225.0880  182.2850 H         1 B499001     0.0000 
     46 H17       176.3510  226.2020  182.9600 H         1 B499001     0.0000 
     47 H18       174.4270  224.1970  180.6310 H         1 B499001     0.0000 
     48 H19       174.2540  224.7450  182.1130 H         1 B499001     0.0000 
     49 H20       174.1980  226.6190  180.2950 H         1 B499001     0.0000 
     50 H21       175.4410  227.5650  180.6600 H         1 B499001     0.0000 
     51 H22       174.7700  227.8410  182.7710 H         1 B499001     0.0000 
     52 H23       174.1310  226.3820  182.8430 H         1 B499001     0.0000 
     53 H24       173.3330  227.5470  182.1220 H         1 B499001     0.0000 
     54 H25       175.0740  222.6370  182.4170 H         1 B499001     0.0000 
     55 H26       176.3700  223.5640  182.6440 H         1 B499001     0.0000 
     56 H27       176.1550  222.8110  181.2320 H         1 B499001     0.0000 
@<TRIPOS>BOND
     1    1   13 1    
     2    1   23 1    
     3    1   24 1    
     4    1   25 1    
     5    2    3 ar   
     6    2    6 ar   
     7    2   26 1    
     8    3   14 ar   
     9    3   27 1    
    10    4    6 ar   
    11    4    7 ar   
    12    4   28 1    
    13    5   11 1    
    14    5   15 2    
    15    5   16 1    
    16    6   22 1    
    17    7    8 1    
    18    7   14 ar   
    19    8    9 1    
    20    8   12 2    
    21    9   18 am   
    22    9   20 2    
    23   10   16 1    
    24   10   19 am   
    25   10   21 2    
    26   11   29 1    
    27   11   30 1    
    28   11   31 1    
    29   12   15 1    
    30   12   32 1    
    31   13   16 2    
    32   13   17 1    
    33   14   18 1    
    34   15   17 1    
    35   17   34 1    
    36   19   33 1    
    37   18   36 1    
    38   33   35 1    
    39   19   38 1    
    40   33   43 1    
    41   33   44 1    
    42   35   37 1    
    43   35   45 1    
    44   35   46 1    
    45   37   39 1    
    46   37   40 1    
    47   39   42 1    
    48   39   47 1    
    49   39   48 1    
    50   40   41 1    
    51   40   49 1    
    52   40   50 1    
    53   41   51 1    
    54   41   52 1    
    55   41   53 1    
    56   42   54 1    
    57   42   55 1    
    58   42   56 1    
@<TRIPOS>SUBSTRUCTURE
     1 B499001     1 GROUP   
@<TRIPOS>SET

