#    Name: 5ouf_1_SFG
#    Modification time : Fri May 22 19:14:24 2020

@<TRIPOS>MOLECULE
5ouf_1_SFG
   27    29     1     0     0
SMALL
NO_CHARGES


@<TRIPOS>ATOM
      1 N         172.4730  193.6640  215.5120 N.4       1 SFG501      0.0000 
      2 CA        173.8690  193.2600  215.7050 C.3       1 SFG501      0.0000 
      3 C         173.9570  191.7530  215.7980 C.2       1 SFG501      0.0000 
      4 O         174.9520  191.1830  216.3250 O.co2     1 SFG501      0.0000 
      5 OXT       173.0280  191.0780  215.3250 O.co2     1 SFG501      0.0000 
      6 CB        174.4520  193.8740  216.9840 C.3       1 SFG501      0.0000 
      7 CG        174.3640  195.3970  217.0770 C.3       1 SFG501      0.0000 
      8 CD        174.9720  195.9520  218.3740 C.3       1 SFG501      0.0000 
      9 NE        174.3110  197.2290  218.6560 N.4       1 SFG501      0.0000 
     10 C5'       176.4870  196.1920  218.3070 C.3       1 SFG501      0.0000 
     11 C4'       177.2770  195.1760  219.1170 C.3       1 SFG501      0.0000 
     12 O4'       177.2380  193.9020  218.4720 O.3       1 SFG501      0.0000 
     13 C3'       178.7520  195.4640  219.2640 C.3       1 SFG501      0.0000 
     14 O3'       179.0370  196.4180  220.2800 O.3       1 SFG501      0.0000 
     15 C2'       179.2940  194.0820  219.5670 C.3       1 SFG501      0.0000 
     16 O2'       179.0600  193.7090  220.9320 O.3       1 SFG501      0.0000 
     17 C1'       178.4610  193.1970  218.6500 C.3       1 SFG501      0.0000 
     18 N9        179.1630  193.0720  217.3530 N.pl3     1 SFG501      0.0000 
     19 C8        178.9450  193.7880  216.2270 C.2       1 SFG501      0.0000 
     20 N7        179.7860  193.4070  215.2390 N.2       1 SFG501      0.0000 
     21 C5        180.5580  192.4220  215.7390 C.ar      1 SFG501      0.0000 
     22 C6        181.6630  191.5910  215.2450 C.ar      1 SFG501      0.0000 
     23 N6        182.1040  191.7410  213.9820 N.pl3     1 SFG501      0.0000 
     24 N1        182.1770  190.6760  216.0960 N.ar      1 SFG501      0.0000 
     25 C2        181.7440  190.5340  217.3650 C.ar      1 SFG501      0.0000 
     26 N3        180.7570  191.2770  217.8870 N.ar      1 SFG501      0.0000 
     27 C4        180.1410  192.2060  217.1270 C.ar      1 SFG501      0.0000 
@<TRIPOS>BOND
     1    1    2 1    
     2    2    3 1    
     3    2    6 1    
     4    3    4 ar   
     5    3    5 ar   
     6    6    7 1    
     7    7    8 1    
     8    8    9 1    
     9    8   10 1    
    10   10   11 1    
    11   11   12 1    
    12   11   13 1    
    13   12   17 1    
    14   13   14 1    
    15   13   15 1    
    16   15   16 1    
    17   15   17 1    
    18   17   18 1    
    19   18   19 1    
    20   18   27 1    
    21   19   20 2    
    22   20   21 1    
    23   21   22 ar   
    24   21   27 ar   
    25   22   23 1    
    26   22   24 ar   
    27   24   25 ar   
    28   25   26 ar   
    29   26   27 ar   
@<TRIPOS>SUBSTRUCTURE
     1 SFG501      1 GROUP   
@<TRIPOS>SET

