#    Name: 5ouf_1_SFG_CAVITY_N1_6
#    Modification time : Fri May 22 19:14:26 2020

@<TRIPOS>MOLECULE
5ouf_1_SFG_CAVITY_N1_6
  107     0     6     0     0
SMALL
NO_CHARGES


@<TRIPOS>ATOM
      1 OG        173.9700  196.2000  216.0200 O.3       1 SER1        0.0000 
      2 OG        175.1700  195.3300  216.1600 O.3       1 SER1        0.0000 
      3 OG        176.3800  194.4500  216.3000 O.3       1 SER1        0.0000 
      4 OG        177.5900  193.5700  216.4400 O.3       1 SER1        0.0000 
      5 OG        171.5900  200.4700  215.1000 O.3       1 SER1        0.0000 
      6 OG        172.8000  199.6000  215.2400 O.3       1 SER1        0.0000 
      7 OG        174.6600  197.2800  216.7900 O.3       1 SER1        0.0000 
      8 OG        175.3200  195.8500  218.2100 O.3       1 SER1        0.0000 
      9 OG        176.5200  194.9700  218.3500 O.3       1 SER1        0.0000 
     10 OG        178.8400  195.2100  215.9300 O.3       1 SER1        0.0000 
     11 OG        178.2900  194.6500  217.2100 O.3       1 SER1        0.0000 
     12 OG        178.9400  193.2100  218.6300 O.3       1 SER1        0.0000 
     13 OG        171.1800  200.4400  218.4200 O.3       1 SER1        0.0000 
     14 OG        173.4900  200.6800  216.0100 O.3       1 SER1        0.0000 
     15 OG        172.9400  200.1200  217.2900 O.3       1 SER1        0.0000 
     16 OG        175.2500  200.3600  214.8700 O.3       1 SER1        0.0000 
     17 OG        174.7000  199.8000  216.1500 O.3       1 SER1        0.0000 
     18 OG        176.4600  199.4800  215.0100 O.3       1 SER1        0.0000 
     19 OG        175.9100  198.9200  216.2900 O.3       1 SER1        0.0000 
     20 OG        175.3600  198.3600  217.5700 O.3       1 SER1        0.0000 
     21 OG        176.5600  197.4900  217.7100 O.3       1 SER1        0.0000 
     22 OG        177.7700  196.6100  217.8500 O.3       1 SER1        0.0000 
     23 OG        173.6300  201.2000  218.0600 O.3       1 SER1        0.0000 
     24 OG        173.0800  200.6400  219.3400 O.3       1 SER1        0.0000 
     25 OG        175.9500  201.4400  215.6500 O.3       1 SER1        0.0000 
     26 OG        175.4000  200.8800  216.9200 O.3       1 SER1        0.0000 
     27 OG        177.1600  200.5600  215.7900 O.3       1 SER1        0.0000 
     28 OG        176.6000  200.0000  217.0600 O.3       1 SER1        0.0000 
     29 OG        178.3700  199.6900  215.9300 O.3       1 SER1        0.0000 
     30 OG        177.8100  199.1300  217.2000 O.3       1 SER1        0.0000 
     31 OG        174.8800  202.8400  217.5600 O.3       1 SER1        0.0000 
     32 OG        173.2200  201.1600  221.3900 O.3       1 SER1        0.0000 
     33 OG        176.0900  201.9600  217.7000 O.3       1 SER1        0.0000 
     34 N         173.9300  193.6900  216.6600 N.am      2 ALA2        0.0000 
     35 N         172.6600  199.0800  213.1800 N.am      2 ALA2        0.0000 
     36 N         173.4100  195.6400  217.2900 N.am      2 ALA2        0.0000 
     37 N         174.6200  194.7700  217.4300 N.am      2 ALA2        0.0000 
     38 N         173.3500  200.1600  213.9600 N.am      2 ALA2        0.0000 
     39 N         172.2400  199.0400  216.5100 N.am      2 ALA2        0.0000 
     40 N         173.4500  198.1600  216.6500 N.am      2 ALA2        0.0000 
     41 N         174.1100  196.7200  218.0700 N.am      2 ALA2        0.0000 
     42 N         172.3800  199.5600  218.5600 N.am      2 ALA2        0.0000 
     43 N         174.1500  199.2400  217.4300 N.am      2 ALA2        0.0000 
     44 N         173.5900  198.6800  218.7000 N.am      2 ALA2        0.0000 
     45 N         176.0100  196.9300  218.9800 N.am      2 ALA2        0.0000 
     46 N         178.9800  195.7300  217.9900 N.am      2 ALA2        0.0000 
     47 N         178.4300  195.1700  219.2600 N.am      2 ALA2        0.0000 
     48 O         177.8700  194.6100  220.5400 O.2       2 ALA2        0.0000 
     49 N         179.6400  194.3000  219.4000 N.am      2 ALA2        0.0000 
     50 N         172.5200  200.0800  220.6200 N.am      2 ALA2        0.0000 
     51 N         174.8400  200.3200  218.2000 N.am      2 ALA2        0.0000 
     52 N         174.2900  199.7600  219.4800 N.am      2 ALA2        0.0000 
     53 N         176.0500  199.4400  218.3400 N.am      2 ALA2        0.0000 
     54 N         177.2600  198.5700  218.4800 N.am      2 ALA2        0.0000 
     55 N         179.5700  198.8100  216.0700 N.am      2 ALA2        0.0000 
     56 N         179.1200  196.2500  220.0400 N.am      2 ALA2        0.0000 
     57 N         174.9800  200.8400  220.2500 N.am      2 ALA2        0.0000 
     58 N         176.7400  200.5200  219.1200 N.am      2 ALA2        0.0000 
     59 N         176.1900  199.9700  220.3900 N.am      2 ALA2        0.0000 
     60 N         178.5100  200.2100  217.9800 N.am      2 ALA2        0.0000 
     61 N         177.9500  199.6500  219.2600 N.am      2 ALA2        0.0000 
     62 N         180.2700  199.8900  216.8400 N.am      2 ALA2        0.0000 
     63 N         176.8900  201.0500  221.1700 N.am      2 ALA2        0.0000 
     64 N         178.6500  200.7300  220.0300 N.am      2 ALA2        0.0000 
     65 N         179.8600  199.8500  220.1700 N.am      2 ALA2        0.0000 
     66 OD1       175.5400  201.4000  218.9800 O.co2     3 ASP3        0.0000 
     67 OD1       176.2300  202.4800  219.7500 O.co2     3 ASP3        0.0000 
     68 OD1       175.6800  201.9200  221.0300 O.co2     3 ASP3        0.0000 
     69 CZ        174.4800  194.2500  215.3800 C.ar      4 PHE5        0.0000 
     70 CZ        175.6900  193.3700  215.5200 C.ar      4 PHE5        0.0000 
     71 CZ        175.1400  192.8100  216.8000 C.ar      4 PHE5        0.0000 
     72 CZ        170.8900  199.3900  214.3200 C.ar      4 PHE5        0.0000 
     73 CZ        175.8300  193.8900  217.5700 C.ar      4 PHE5        0.0000 
     74 CZ        177.0400  193.0100  217.7100 C.ar      4 PHE5        0.0000 
     75 CZ        179.3500  193.2500  215.3000 C.ar      4 PHE5        0.0000 
     76 CZ        174.5600  199.2800  214.1000 C.ar      4 PHE5        0.0000 
     77 CZ        174.0100  198.7200  215.3700 C.ar      4 PHE5        0.0000 
     78 CZ        175.9700  194.4100  219.6200 C.ar      4 PHE5        0.0000 
     79 CZ        177.7300  194.0900  218.4900 C.ar      4 PHE5        0.0000 
     80 CZ        171.7300  201.0000  217.1500 C.ar      4 PHE5        0.0000 
     81 CZ        177.0200  200.0400  213.7400 C.ar      4 PHE5        0.0000 
     82 CZ        177.4400  201.6100  219.8900 C.ar      4 PHE5        0.0000 
     83 CZ        179.2000  201.2900  218.7500 C.ar      4 PHE5        0.0000 
     84 CA        176.9000  192.4900  215.6600 C.3       5 GLY6        0.0000 
     85 CA        176.3400  191.9300  216.9400 C.3       5 GLY6        0.0000 
     86 CA        172.1000  198.5200  214.4600 C.3       5 GLY6        0.0000 
     87 CA        171.5500  197.9600  215.7400 C.3       5 GLY6        0.0000 
     88 CA        174.0700  194.2100  218.7100 C.3       5 GLY6        0.0000 
     89 CA        178.8000  192.6900  216.5800 C.3       5 GLY6        0.0000 
     90 CA        178.2500  192.1300  217.8500 C.3       5 GLY6        0.0000 
     91 CA        171.0300  199.9200  216.3700 C.3       5 GLY6        0.0000 
     92 CA        170.4800  199.3600  217.6500 C.3       5 GLY6        0.0000 
     93 CA        174.7600  195.2900  219.4800 C.3       5 GLY6        0.0000 
     94 CA        180.0500  194.3300  216.0700 C.3       5 GLY6        0.0000 
     95 CA        179.5000  193.7700  217.3500 C.3       5 GLY6        0.0000 
     96 CA        178.2300  199.1700  213.8800 C.3       5 GLY6        0.0000 
     97 CA        177.2200  196.0500  219.1200 C.3       5 GLY6        0.0000 
     98 CA        176.6600  195.4900  220.4000 C.3       5 GLY6        0.0000 
     99 CA        180.1900  194.8500  218.1300 C.3       5 GLY6        0.0000 
    100 CA        178.9200  200.2500  214.6500 C.3       5 GLY6        0.0000 
    101 CA        180.1300  199.3700  214.7900 C.3       5 GLY6        0.0000 
    102 CA        177.4000  199.0900  220.5300 C.3       5 GLY6        0.0000 
    103 CA        180.9600  200.9700  217.6200 C.3       5 GLY6        0.0000 
    104 CA        180.4100  200.4100  218.8900 C.3       5 GLY6        0.0000 
    105 DU        177.8500  201.6400  216.5600 H         6 CUB7        0.0000 
    106 DU        177.3000  201.0800  217.8400 H         6 CUB7        0.0000 
    107 DU        179.0600  200.7700  216.7000 H         6 CUB7        0.0000 
@<TRIPOS>BOND
@<TRIPOS>SUBSTRUCTURE
     1 SER1        1 GROUP   
     2 ALA2       34 GROUP   
     3 ASP3       66 GROUP   
     4 PHE5       69 GROUP   
     5 GLY6       84 GROUP   
     6 CUB7      105 GROUP   
@<TRIPOS>SET

