#    Name: 5ouf_1_SFG_CAVITY_N1_4
#    Modification time : Fri May 22 19:14:26 2020

@<TRIPOS>MOLECULE
5ouf_1_SFG_CAVITY_N1_4
   63     0     4     0     0
SMALL
NO_CHARGES


@<TRIPOS>ATOM
      1 OG        173.9700  196.2000  216.0200 O.3       1 SER1        0.0000 
      2 OG        175.1700  195.3300  216.1600 O.3       1 SER1        0.0000 
      3 OG        176.3800  194.4500  216.3000 O.3       1 SER1        0.0000 
      4 OG        177.5900  193.5700  216.4400 O.3       1 SER1        0.0000 
      5 OG        174.6600  197.2800  216.7900 O.3       1 SER1        0.0000 
      6 OG        175.3200  195.8500  218.2100 O.3       1 SER1        0.0000 
      7 OG        176.5200  194.9700  218.3500 O.3       1 SER1        0.0000 
      8 OG        178.8400  195.2100  215.9300 O.3       1 SER1        0.0000 
      9 OG        178.2900  194.6500  217.2100 O.3       1 SER1        0.0000 
     10 OG        178.9400  193.2100  218.6300 O.3       1 SER1        0.0000 
     11 OG        172.9400  200.1200  217.2900 O.3       1 SER1        0.0000 
     12 OG        174.7000  199.8000  216.1500 O.3       1 SER1        0.0000 
     13 OG        175.9100  198.9200  216.2900 O.3       1 SER1        0.0000 
     14 OG        175.3600  198.3600  217.5700 O.3       1 SER1        0.0000 
     15 OG        176.5600  197.4900  217.7100 O.3       1 SER1        0.0000 
     16 OG        177.7700  196.6100  217.8500 O.3       1 SER1        0.0000 
     17 OG        173.0800  200.6400  219.3400 O.3       1 SER1        0.0000 
     18 OG        176.6000  200.0000  217.0600 O.3       1 SER1        0.0000 
     19 OG        177.8100  199.1300  217.2000 O.3       1 SER1        0.0000 
     20 N         173.9300  193.6900  216.6600 N.am      2 ALA2        0.0000 
     21 N         173.4100  195.6400  217.2900 N.am      2 ALA2        0.0000 
     22 N         174.6200  194.7700  217.4300 N.am      2 ALA2        0.0000 
     23 N         172.2400  199.0400  216.5100 N.am      2 ALA2        0.0000 
     24 N         173.4500  198.1600  216.6500 N.am      2 ALA2        0.0000 
     25 N         174.1100  196.7200  218.0700 N.am      2 ALA2        0.0000 
     26 N         172.3800  199.5600  218.5600 N.am      2 ALA2        0.0000 
     27 N         174.1500  199.2400  217.4300 N.am      2 ALA2        0.0000 
     28 N         173.5900  198.6800  218.7000 N.am      2 ALA2        0.0000 
     29 N         176.0100  196.9300  218.9800 N.am      2 ALA2        0.0000 
     30 N         178.9800  195.7300  217.9900 N.am      2 ALA2        0.0000 
     31 N         178.4300  195.1700  219.2600 N.am      2 ALA2        0.0000 
     32 O         177.8700  194.6100  220.5400 O.2       2 ALA2        0.0000 
     33 N         179.6400  194.3000  219.4000 N.am      2 ALA2        0.0000 
     34 N         172.5200  200.0800  220.6200 N.am      2 ALA2        0.0000 
     35 N         174.8400  200.3200  218.2000 N.am      2 ALA2        0.0000 
     36 N         174.2900  199.7600  219.4800 N.am      2 ALA2        0.0000 
     37 N         176.0500  199.4400  218.3400 N.am      2 ALA2        0.0000 
     38 N         177.2600  198.5700  218.4800 N.am      2 ALA2        0.0000 
     39 N         179.1200  196.2500  220.0400 N.am      2 ALA2        0.0000 
     40 N         176.1900  199.9700  220.3900 N.am      2 ALA2        0.0000 
     41 N         177.9500  199.6500  219.2600 N.am      2 ALA2        0.0000 
     42 N         179.8600  199.8500  220.1700 N.am      2 ALA2        0.0000 
     43 CZ        174.4800  194.2500  215.3800 C.ar      3 PHE5        0.0000 
     44 CZ        175.6900  193.3700  215.5200 C.ar      3 PHE5        0.0000 
     45 CZ        175.1400  192.8100  216.8000 C.ar      3 PHE5        0.0000 
     46 CZ        175.8300  193.8900  217.5700 C.ar      3 PHE5        0.0000 
     47 CZ        177.0400  193.0100  217.7100 C.ar      3 PHE5        0.0000 
     48 CZ        179.3500  193.2500  215.3000 C.ar      3 PHE5        0.0000 
     49 CZ        174.0100  198.7200  215.3700 C.ar      3 PHE5        0.0000 
     50 CZ        175.9700  194.4100  219.6200 C.ar      3 PHE5        0.0000 
     51 CZ        177.7300  194.0900  218.4900 C.ar      3 PHE5        0.0000 
     52 CA        176.9000  192.4900  215.6600 C.3       4 GLY6        0.0000 
     53 CA        176.3400  191.9300  216.9400 C.3       4 GLY6        0.0000 
     54 CA        174.0700  194.2100  218.7100 C.3       4 GLY6        0.0000 
     55 CA        178.8000  192.6900  216.5800 C.3       4 GLY6        0.0000 
     56 CA        178.2500  192.1300  217.8500 C.3       4 GLY6        0.0000 
     57 CA        174.7600  195.2900  219.4800 C.3       4 GLY6        0.0000 
     58 CA        180.0500  194.3300  216.0700 C.3       4 GLY6        0.0000 
     59 CA        179.5000  193.7700  217.3500 C.3       4 GLY6        0.0000 
     60 CA        177.2200  196.0500  219.1200 C.3       4 GLY6        0.0000 
     61 CA        176.6600  195.4900  220.4000 C.3       4 GLY6        0.0000 
     62 CA        180.1900  194.8500  218.1300 C.3       4 GLY6        0.0000 
     63 CA        177.4000  199.0900  220.5300 C.3       4 GLY6        0.0000 
@<TRIPOS>BOND
@<TRIPOS>SUBSTRUCTURE
     1 SER1        1 GROUP   
     2 ALA2       20 GROUP   
     3 PHE5       43 GROUP   
     4 GLY6       52 GROUP   
@<TRIPOS>SET

