#    Name: 5o9t_1_MYA
#    Modification time : Fri May 22 19:19:17 2020

@<TRIPOS>MOLECULE
5o9t_1_MYA
   63    65     1     0     0
SMALL
NO_CHARGES


@<TRIPOS>ATOM
      1 S1        -16.9510  -20.4830    9.6180 S.3       1 MYA501      0.0000 
      2 C2        -17.1960  -22.0930    8.7880 C.3       1 MYA501      0.0000 
      3 C3        -18.5790  -22.2920    8.1780 C.3       1 MYA501      0.0000 
      4 N4        -18.6700  -23.7200    7.8640 N.am      1 MYA501      0.0000 
      5 C5        -18.6820  -24.1620    6.6040 C.2       1 MYA501      0.0000 
      6 O5        -18.6370  -23.4210    5.6200 O.2       1 MYA501      0.0000 
      7 C6        -18.7390  -25.6850    6.4610 C.3       1 MYA501      0.0000 
      8 C7        -19.3000  -26.0460    5.0900 C.3       1 MYA501      0.0000 
      9 N8        -20.6330  -25.4440    4.9980 N.am      1 MYA501      0.0000 
     10 C9        -21.6550  -25.9330    5.7120 C.2       1 MYA501      0.0000 
     11 O9        -21.5700  -26.9320    6.4300 O.2       1 MYA501      0.0000 
     12 C10       -23.0010  -25.2410    5.4870 C.3       1 MYA501      0.0000 
     13 O10       -23.0180  -24.4820    4.2570 O.3       1 MYA501      0.0000 
     14 C11       -23.4290  -24.3460    6.6600 C.3       1 MYA501      0.0000 
     15 C12       -24.9350  -24.2850    6.5770 C.3       1 MYA501      0.0000 
     16 C13       -22.8300  -22.9390    6.5330 C.3       1 MYA501      0.0000 
     17 C14       -23.0420  -24.9530    7.9990 C.3       1 MYA501      0.0000 
     18 N1A       -21.3540  -18.5280    9.2050 N.ar      1 MYA501      0.0000 
     19 O1A       -28.7860  -23.9080    6.8690 O.co2     1 MYA501      0.0000 
     20 P1A       -28.9020  -22.8270    5.8520 P.3       1 MYA501      0.0000 
     21 C1X       -26.0810  -18.2070    6.9920 C.3       1 MYA501      0.0000 
     22 C2A       -22.4770  -17.9020    9.7320 C.ar      1 MYA501      0.0000 
     23 O2A       -29.9970  -22.8960    4.8500 O.co2     1 MYA501      0.0000 
     24 P2A       -26.5660  -23.8700    4.5600 P.3       1 MYA501      0.0000 
     25 C2M       -17.3620  -20.9350   11.3130 C.2       1 MYA501      0.0000 
     26 O2M       -17.3390  -22.0900   11.7350 O.2       1 MYA501      0.0000 
     27 C2X       -26.5990  -17.7120    5.6660 C.3       1 MYA501      0.0000 
     28 O2X       -26.1100  -16.3750    5.3640 O.3       1 MYA501      0.0000 
     29 N3A       -23.6710  -17.9160    8.9860 N.ar      1 MYA501      0.0000 
     30 O3A       -27.4790  -22.6400    5.0980 O.3       1 MYA501      0.0000 
     31 C3M       -17.8580  -19.7840   12.1980 C.3       1 MYA501      0.0000 
     32 C3X       -28.0980  -17.7090    5.9190 C.3       1 MYA501      0.0000 
     33 O3X       -28.4880  -16.5550    6.7100 O.3       1 MYA501      0.0000 
     34 P3X       -29.2170  -15.3240    5.9520 P.3       1 MYA501      0.0000 
     35 C4A       -23.6930  -18.5310    7.7850 C.ar      1 MYA501      0.0000 
     36 O4A       -27.1250  -25.1800    4.9830 O.co2     1 MYA501      0.0000 
     37 C4M       -19.4030  -19.8500   12.2050 C.3       1 MYA501      0.0000 
     38 C4X       -28.2390  -19.0330    6.7080 C.3       1 MYA501      0.0000 
     39 O4X       -26.8800  -19.3920    7.1430 O.3       1 MYA501      0.0000 
     40 C5A       -22.5850  -19.1240    7.2990 C.ar      1 MYA501      0.0000 
     41 O5A       -26.2530  -23.6250    3.1310 O.co2     1 MYA501      0.0000 
     42 C5M       -20.0550  -18.5940   12.8210 C.3       1 MYA501      0.0000 
     43 C5X       -28.7030  -20.1740    5.7880 C.3       1 MYA501      0.0000 
     44 O5X       -28.9700  -21.3620    6.5570 O.3       1 MYA501      0.0000 
     45 C6A       -21.4440  -19.1200    8.0070 C.ar      1 MYA501      0.0000 
     46 N6A       -20.3850  -19.7310    7.4740 N.pl3     1 MYA501      0.0000 
     47 O6A       -25.2360  -23.5650    5.3970 O.3       1 MYA501      0.0000 
     48 C6M       -21.5800  -18.7880   12.8820 C.3       1 MYA501      0.0000 
     49 N7A       -22.9040  -19.6470    6.1090 N.2       1 MYA501      0.0000 
     50 O7A       -30.6130  -15.8320    5.8260 O.co2     1 MYA501      0.0000 
     51 C7M       -22.2310  -17.6260   13.6470 C.3       1 MYA501      0.0000 
     52 C8A       -24.1880  -19.3770    5.8570 C.2       1 MYA501      0.0000 
     53 O8A       -29.0750  -14.1480    6.8200 O.co2     1 MYA501      0.0000 
     54 C8M       -21.8630  -17.6620   15.1520 C.3       1 MYA501      0.0000 
     55 N9A       -24.6740  -18.6800    6.8890 N.pl3     1 MYA501      0.0000 
     56 O9A       -28.4720  -15.2710    4.6830 O.co2     1 MYA501      0.0000 
     57 C9M       -22.4450  -16.4050   15.8190 C.3       1 MYA501      0.0000 
     58 CAM       -22.0780  -16.2890   17.2970 C.3       1 MYA501      0.0000 
     59 CBM       -22.9650  -17.2340   18.1020 C.3       1 MYA501      0.0000 
     60 CCM       -22.4500  -17.3340   19.5280 C.3       1 MYA501      0.0000 
     61 CDM       -22.9740  -16.1820   20.3810 C.3       1 MYA501      0.0000 
     62 CEM       -22.6680  -16.4490   21.8550 C.3       1 MYA501      0.0000 
     63 CFM       -23.0830  -15.2420   22.7100 C.3       1 MYA501      0.0000 
@<TRIPOS>BOND
     1    1    2 1    
     2    1   25 1    
     3    2    3 1    
     4    3    4 1    
     5    4    5 am   
     6    5    6 2    
     7    5    7 1    
     8    7    8 1    
     9    8    9 1    
    10    9   10 am   
    11   10   11 2    
    12   10   12 1    
    13   12   13 1    
    14   12   14 1    
    15   14   15 1    
    16   14   16 1    
    17   14   17 1    
    18   15   47 1    
    19   18   22 ar   
    20   18   45 ar   
    21   19   20 ar   
    22   20   23 ar   
    23   20   30 1    
    24   20   44 1    
    25   21   27 1    
    26   21   39 1    
    27   21   55 1    
    28   22   29 ar   
    29   24   30 1    
    30   24   36 ar   
    31   24   41 ar   
    32   24   47 1    
    33   25   26 2    
    34   25   31 1    
    35   27   28 1    
    36   27   32 1    
    37   29   35 ar   
    38   31   37 1    
    39   32   33 1    
    40   32   38 1    
    41   33   34 1    
    42   34   50 ar   
    43   34   53 ar   
    44   34   56 ar   
    45   35   40 ar   
    46   35   55 1    
    47   37   42 1    
    48   38   39 1    
    49   38   43 1    
    50   40   45 ar   
    51   40   49 1    
    52   42   48 1    
    53   43   44 1    
    54   45   46 1    
    55   48   51 1    
    56   49   52 2    
    57   51   54 1    
    58   52   55 1    
    59   54   57 1    
    60   57   58 1    
    61   58   59 1    
    62   59   60 1    
    63   60   61 1    
    64   61   62 1    
    65   62   63 1    
@<TRIPOS>SUBSTRUCTURE
     1 MYA501      1 GROUP   
@<TRIPOS>SET

