#    Name: 5o9t_4_CYS_PHE_SER_LYS_PRO_ARG_1IP
#    Modification time : Fri May 22 19:19:31 2020

@<TRIPOS>MOLECULE
5o9t_4_CYS_PHE_SER_LYS_PRO_ARG_1IP
   62    63     7     0     0
SMALL
NO_CHARGES


@<TRIPOS>ATOM
      1 N         -16.9970  -18.3320   59.9900 N.am      1 CYS2        0.0000 
      2 CA        -16.6260  -17.9200   61.3450 C.3       1 CYS2        0.0000 
      3 C         -17.7330  -18.4200   62.2630 C.2       1 CYS2        0.0000 
      4 O         -18.9210  -18.1780   61.9980 O.2       1 CYS2        0.0000 
      5 CB        -16.4340  -16.4000   61.4590 C.3       1 CYS2        0.0000 
      6 SG        -17.1730  -15.5890   62.9140 S.3       1 CYS2        0.0000 
      7 N         -17.3640  -19.1520   63.3170 N.am      2 PHE3        0.0000 
      8 CA        -18.3580  -19.7180   64.2160 C.3       2 PHE3        0.0000 
      9 C         -18.7240  -18.7020   65.2920 C.2       2 PHE3        0.0000 
     10 O         -17.8890  -18.3370   66.1320 O.2       2 PHE3        0.0000 
     11 CB        -17.8830  -21.0200   64.8540 C.3       2 PHE3        0.0000 
     12 CG        -19.0180  -21.8600   65.3590 C.ar      2 PHE3        0.0000 
     13 CD1       -20.0010  -21.3100   66.1790 C.ar      2 PHE3        0.0000 
     14 CD2       -19.1480  -23.1630   64.9640 C.ar      2 PHE3        0.0000 
     15 CE1       -21.0690  -22.0550   66.6160 C.ar      2 PHE3        0.0000 
     16 CE2       -20.1910  -23.9000   65.4020 C.ar      2 PHE3        0.0000 
     17 CZ        -21.1730  -23.3530   66.2160 C.ar      2 PHE3        0.0000 
     18 N         -19.9850  -18.2780   65.2810 N.am      3 SER4        0.0000 
     19 CA        -20.5300  -17.3730   66.2790 C.3       3 SER4        0.0000 
     20 C         -21.5960  -18.0750   67.1160 C.2       3 SER4        0.0000 
     21 O         -22.2300  -19.0420   66.6720 O.2       3 SER4        0.0000 
     22 CB        -21.1300  -16.1360   65.6160 C.3       3 SER4        0.0000 
     23 OG        -21.6610  -15.2600   66.5870 O.3       3 SER4        0.0000 
     24 N         -21.7780  -17.5760   68.3360 N.am      4 LYS5        0.0000 
     25 CA        -22.8300  -18.0240   69.2410 C.3       4 LYS5        0.0000 
     26 C         -23.2770  -16.8260   70.0670 C.2       4 LYS5        0.0000 
     27 O         -22.5360  -15.8410   70.1820 O.2       4 LYS5        0.0000 
     28 CB        -22.3530  -19.1750   70.1410 C.3       4 LYS5        0.0000 
     29 CG        -21.0290  -18.9380   70.8210 C.3       4 LYS5        0.0000 
     30 CD        -20.6970  -20.0730   71.7650 C.3       4 LYS5        0.0000 
     31 CE        -19.6240  -19.6230   72.7340 C.3       4 LYS5        0.0000 
     32 NZ        -18.5230  -18.9240   72.0100 N.4       4 LYS5        0.0000 
     33 N         -24.4940  -16.8610   70.6240 N.am      5 PRO6        0.0000 
     34 CA        -25.0590  -15.6510   71.2500 C.3       5 PRO6        0.0000 
     35 C         -24.1640  -15.0940   72.3460 C.2       5 PRO6        0.0000 
     36 O         -23.7780  -15.8000   73.2860 O.2       5 PRO6        0.0000 
     37 CB        -26.4050  -16.1370   71.8070 C.3       5 PRO6        0.0000 
     38 CG        -26.7870  -17.2470   70.9130 C.3       5 PRO6        0.0000 
     39 CD        -25.4860  -17.9490   70.5890 C.3       5 PRO6        0.0000 
     40 N         -23.8220  -13.8170   72.2020 N.am      6 ARG7        0.0000 
     41 CA        -23.0860  -13.1100   73.2360 C.3       6 ARG7        0.0000 
     42 C         -23.9690  -12.9610   74.4590 C.2       6 ARG7        0.0000 
     43 O         -23.5830  -13.3290   75.5660 O.2       6 ARG7        0.0000 
     44 CB        -22.6530  -11.7360   72.7600 C.3       6 ARG7        0.0000 
     45 CG        -21.8340  -10.8700   73.7570 C.3       6 ARG7        0.0000 
     46 CD        -21.7430   -9.4710   73.1260 C.3       6 ARG7        0.0000 
     47 NE        -21.9860   -9.5870   71.7080 N.pl3     6 ARG7        0.0000 
     48 CZ        -21.7940   -8.6440   70.8160 C.cat     6 ARG7        0.0000 
     49 NH1       -21.3450   -7.4430   71.1070 N.pl3     6 ARG7        0.0000 
     50 NH2       -22.1360   -8.8590   69.5690 N.pl3     6 ARG7        0.0000 
     51 OXT       -25.0960  -12.4630   74.3670 O.2       6 ARG7        0.0000 
     52 CAJ       -20.3660  -19.8110   57.3460 C.3       7 1IP1        0.0000 
     53 CAM       -19.0810  -19.0800   57.7830 C.2       7 1IP1        0.0000 
     54 OAC       -19.1310  -17.9640   58.2990 O.2       7 1IP1        0.0000 
     55 N         -17.9630  -19.8090   57.5870 N.am      7 1IP1        0.0000 
     56 CA        -16.5030  -19.4990   57.8340 C.3       7 1IP1        0.0000 
     57 C         -16.0660  -18.6660   59.1070 C.2       7 1IP1        0.0000 
     58 O1        -14.8790  -18.3450   59.2590 O.co2     7 1IP1        0.0000 
     59 CB        -15.9650  -19.0200   56.4700 C.3       7 1IP1        0.0000 
     60 CG        -14.6040  -18.3300   56.3000 C.2       7 1IP1        0.0000 
     61 OD1       -13.9960  -18.4470   55.2300 O.2       7 1IP1        0.0000 
     62 ND2       -14.2220  -17.5120   57.2770 N.am      7 1IP1        0.0000 
@<TRIPOS>BOND
     1    1    2 1    
     2    1   57 du   
     3    2    3 1    
     4    2    5 1    
     5    3    4 2    
     6    3    7 am   
     7    5    6 1    
     8    7    8 1    
     9    8    9 1    
    10    8   11 1    
    11    9   10 2    
    12    9   18 am   
    13   11   12 1    
    14   12   13 ar   
    15   12   14 ar   
    16   13   15 ar   
    17   14   16 ar   
    18   15   17 ar   
    19   16   17 ar   
    20   18   19 1    
    21   19   20 1    
    22   19   22 1    
    23   20   21 2    
    24   20   24 am   
    25   22   23 1    
    26   24   25 1    
    27   25   26 1    
    28   25   28 1    
    29   26   27 2    
    30   26   33 am   
    31   28   29 1    
    32   29   30 1    
    33   30   31 1    
    34   31   32 1    
    35   33   34 1    
    36   33   39 1    
    37   34   35 1    
    38   34   37 1    
    39   35   36 2    
    40   35   40 am   
    41   37   38 1    
    42   38   39 1    
    43   40   41 1    
    44   41   42 1    
    45   41   44 1    
    46   42   43 2    
    47   42   51 2    
    48   44   45 1    
    49   45   46 1    
    50   46   47 1    
    51   47   48 ar   
    52   48   49 ar   
    53   48   50 ar   
    54   52   53 1    
    55   53   54 2    
    56   53   55 am   
    57   55   56 1    
    58   56   57 1    
    59   56   59 1    
    60   57   58 ar   
    61   59   60 1    
    62   60   61 2    
    63   60   62 am   
@<TRIPOS>SUBSTRUCTURE
     1 CYS2        1 RESIDUE 
     2 PHE3        7 RESIDUE 
     3 SER4       18 RESIDUE 
     4 LYS5       24 RESIDUE 
     5 PRO6       33 RESIDUE 
     6 ARG7       40 RESIDUE 
     7 1IP1       52 GROUP   
@<TRIPOS>SET

