#    Name: 5o9t_3_CYS_PHE_SER_LYS_PRO_ARG_1IP
#    Modification time : Fri May 22 19:19:27 2020

@<TRIPOS>MOLECULE
5o9t_3_CYS_PHE_SER_LYS_PRO_ARG_1IP
   62    63     7     0     0
SMALL
NO_CHARGES


@<TRIPOS>ATOM
      1 N         -11.3460  -20.7370    6.1020 N.am      1 CYS2        0.0000 
      2 CA        -11.7810  -20.5090    4.7140 C.3       1 CYS2        0.0000 
      3 C         -10.6620  -20.9800    3.8070 C.2       1 CYS2        0.0000 
      4 O          -9.4920  -20.6680    4.0610 O.2       1 CYS2        0.0000 
      5 CB        -12.1360  -19.0350    4.4730 C.3       1 CYS2        0.0000 
      6 SG        -11.3190  -18.1990    3.0850 S.3       1 CYS2        0.0000 
      7 N         -10.9940  -21.7720    2.7850 N.am      2 PHE3        0.0000 
      8 CA         -9.9710  -22.4490    1.9940 C.3       2 PHE3        0.0000 
      9 C          -9.5620  -21.5740    0.8140 C.2       2 PHE3        0.0000 
     10 O         -10.3260  -21.3950   -0.1380 O.2       2 PHE3        0.0000 
     11 CB        -10.4280  -23.8230    1.5080 C.3       2 PHE3        0.0000 
     12 CG         -9.2800  -24.6800    1.0600 C.ar      2 PHE3        0.0000 
     13 CD1        -8.8730  -25.7610    1.8100 C.ar      2 PHE3        0.0000 
     14 CD2        -8.5460  -24.3420   -0.0740 C.ar      2 PHE3        0.0000 
     15 CE1        -7.7820  -26.5150    1.4220 C.ar      2 PHE3        0.0000 
     16 CE2        -7.4520  -25.0940   -0.4690 C.ar      2 PHE3        0.0000 
     17 CZ         -7.0670  -26.1790    0.2790 C.ar      2 PHE3        0.0000 
     18 N          -8.3330  -21.0840    0.8490 N.am      3 SER4        0.0000 
     19 CA         -7.8090  -20.2150   -0.1860 C.3       3 SER4        0.0000 
     20 C          -6.8130  -20.9750   -1.0610 C.2       3 SER4        0.0000 
     21 O          -6.2950  -22.0330   -0.6900 O.2       3 SER4        0.0000 
     22 CB         -7.1610  -18.9780    0.4480 C.3       3 SER4        0.0000 
     23 OG         -6.7040  -18.0460   -0.5140 O.3       3 SER4        0.0000 
     24 N          -6.5890  -20.4400   -2.2550 N.am      4 LYS5        0.0000 
     25 CA         -5.5540  -20.9160   -3.1610 C.3       4 LYS5        0.0000 
     26 C          -5.1050  -19.7280   -4.0000 C.2       4 LYS5        0.0000 
     27 O          -5.8590  -18.7550   -4.1480 O.2       4 LYS5        0.0000 
     28 CB         -6.0510  -22.0780   -4.0350 C.3       4 LYS5        0.0000 
     29 CG         -7.1920  -21.7430   -4.9550 C.3       4 LYS5        0.0000 
     30 CD         -7.7370  -22.9890   -5.6180 C.3       4 LYS5        0.0000 
     31 CE         -8.8990  -22.6320   -6.5220 C.3       4 LYS5        0.0000 
     32 NZ        -10.0650  -22.0670   -5.7770 N.4       4 LYS5        0.0000 
     33 N          -3.8700  -19.7490   -4.5190 N.am      5 PRO6        0.0000 
     34 CA         -3.2960  -18.5360   -5.1250 C.3       5 PRO6        0.0000 
     35 C          -4.2080  -17.9030   -6.1730 C.2       5 PRO6        0.0000 
     36 O          -4.7460  -18.5830   -7.0530 O.2       5 PRO6        0.0000 
     37 CB         -1.9880  -19.0430   -5.7430 C.3       5 PRO6        0.0000 
     38 CG         -1.6040  -20.2040   -4.8770 C.3       5 PRO6        0.0000 
     39 CD         -2.9000  -20.8650   -4.5140 C.3       5 PRO6        0.0000 
     40 N          -4.4080  -16.5880   -6.0420 N.am      6 ARG7        0.0000 
     41 CA         -5.1790  -15.8020   -6.9980 C.3       6 ARG7        0.0000 
     42 C          -4.4750  -15.7840   -8.3400 C.2       6 ARG7        0.0000 
     43 O          -3.2620  -15.5710   -8.4010 O.2       6 ARG7        0.0000 
     44 CB         -5.3760  -14.3680   -6.4980 C.3       6 ARG7        0.0000 
     45 CG         -5.5630  -13.3340   -7.6100 C.3       6 ARG7        0.0000 
     46 CD         -5.5470  -11.9000   -7.0660 C.3       6 ARG7        0.0000 
     47 NE         -6.8300  -11.5110   -6.4780 N.pl3     6 ARG7        0.0000 
     48 CZ         -7.0520  -10.3690   -5.8290 C.cat     6 ARG7        0.0000 
     49 NH1        -8.2580  -10.1080   -5.3390 N.pl3     6 ARG7        0.0000 
     50 NH2        -6.0730   -9.4880   -5.6690 N.pl3     6 ARG7        0.0000 
     51 OXT        -5.1030  -15.9740   -9.3800 O.2       6 ARG7        0.0000 
     52 CAJ        -7.8760  -22.0370    8.7790 C.3       7 1IP1        0.0000 
     53 CAM        -9.1510  -21.2700    8.3880 C.2       7 1IP1        0.0000 
     54 OAC        -9.0930  -20.1510    7.8760 O.2       7 1IP1        0.0000 
     55 N         -10.2850  -21.9630    8.6260 N.am      7 1IP1        0.0000 
     56 CA        -11.6960  -21.5230    8.4430 C.3       7 1IP1        0.0000 
     57 C         -12.2180  -21.1020    7.0210 C.2       7 1IP1        0.0000 
     58 O1        -13.4320  -21.1140    6.7950 O.co2     7 1IP1        0.0000 
     59 CB        -11.9970  -20.4370    9.4530 C.3       7 1IP1        0.0000 
     60 CG        -13.5080  -20.3920    9.6810 C.2       7 1IP1        0.0000 
     61 OD1       -14.0830  -21.2160   10.3880 O.2       7 1IP1        0.0000 
     62 ND2       -14.1160  -19.3810    9.0820 N.am      7 1IP1        0.0000 
@<TRIPOS>BOND
     1    1    2 1    
     2    1   57 du   
     3    2    3 1    
     4    2    5 1    
     5    3    4 2    
     6    3    7 am   
     7    5    6 1    
     8    7    8 1    
     9    8    9 1    
    10    8   11 1    
    11    9   10 2    
    12    9   18 am   
    13   11   12 1    
    14   12   13 ar   
    15   12   14 ar   
    16   13   15 ar   
    17   14   16 ar   
    18   15   17 ar   
    19   16   17 ar   
    20   18   19 1    
    21   19   20 1    
    22   19   22 1    
    23   20   21 2    
    24   20   24 am   
    25   22   23 1    
    26   24   25 1    
    27   25   26 1    
    28   25   28 1    
    29   26   27 2    
    30   26   33 am   
    31   28   29 1    
    32   29   30 1    
    33   30   31 1    
    34   31   32 1    
    35   33   34 1    
    36   33   39 1    
    37   34   35 1    
    38   34   37 1    
    39   35   36 2    
    40   35   40 am   
    41   37   38 1    
    42   38   39 1    
    43   40   41 1    
    44   41   42 1    
    45   41   44 1    
    46   42   43 2    
    47   42   51 2    
    48   44   45 1    
    49   45   46 1    
    50   46   47 1    
    51   47   48 ar   
    52   48   49 ar   
    53   48   50 ar   
    54   52   53 1    
    55   53   54 2    
    56   53   55 am   
    57   55   56 1    
    58   56   57 1    
    59   56   59 1    
    60   57   58 ar   
    61   59   60 1    
    62   60   61 2    
    63   60   62 am   
@<TRIPOS>SUBSTRUCTURE
     1 CYS2        1 RESIDUE 
     2 PHE3        7 RESIDUE 
     3 SER4       18 RESIDUE 
     4 LYS5       24 RESIDUE 
     5 PRO6       33 RESIDUE 
     6 ARG7       40 RESIDUE 
     7 1IP1       52 GROUP   
@<TRIPOS>SET

