#    Name: 5o9t_2_MYA
#    Modification time : Fri May 22 19:19:22 2020

@<TRIPOS>MOLECULE
5o9t_2_MYA
   63    65     1     0     0
SMALL
NO_CHARGES


@<TRIPOS>ATOM
      1 S1        -11.2390  -18.2630   56.8280 S.3       1 MYA501      0.0000 
      2 C2        -11.0730  -19.7940   57.8380 C.3       1 MYA501      0.0000 
      3 C3         -9.6290  -20.0800   58.2520 C.3       1 MYA501      0.0000 
      4 N4         -9.5400  -21.4390   58.8160 N.am      1 MYA501      0.0000 
      5 C5         -9.6100  -21.6440   60.1400 C.2       1 MYA501      0.0000 
      6 O5         -9.7970  -20.7380   60.9540 O.2       1 MYA501      0.0000 
      7 C6         -9.5040  -23.1100   60.5770 C.3       1 MYA501      0.0000 
      8 C7         -8.8480  -23.2440   61.9570 C.3       1 MYA501      0.0000 
      9 N8         -7.5030  -22.6380   61.9220 N.am      1 MYA501      0.0000 
     10 C9         -6.4950  -23.1420   61.1860 C.2       1 MYA501      0.0000 
     11 O9         -6.5610  -24.1750   60.5100 O.2       1 MYA501      0.0000 
     12 C10        -5.1860  -22.3550   61.2860 C.3       1 MYA501      0.0000 
     13 O10        -5.1390  -21.6390   62.5350 O.3       1 MYA501      0.0000 
     14 C11        -5.0070  -21.4030   60.0820 C.3       1 MYA501      0.0000 
     15 C12        -3.7710  -20.5300   60.3350 C.3       1 MYA501      0.0000 
     16 C13        -6.2340  -20.5180   59.8520 C.3       1 MYA501      0.0000 
     17 C14        -4.7870  -22.2340   58.8210 C.3       1 MYA501      0.0000 
     18 N1A        -6.6790  -15.9870   56.8280 N.ar      1 MYA501      0.0000 
     19 O1A         0.6030  -21.0990   59.7440 O.co2     1 MYA501      0.0000 
     20 P1A         0.6520  -20.0220   60.7700 P.3       1 MYA501      0.0000 
     21 C1X        -2.0570  -15.6320   59.2010 C.3       1 MYA501      0.0000 
     22 C2A        -5.4840  -15.4770   56.3060 C.ar      1 MYA501      0.0000 
     23 O2A         1.6910  -20.0800   61.8350 O.co2     1 MYA501      0.0000 
     24 P2A        -1.6550  -21.1680   61.8580 P.3       1 MYA501      0.0000 
     25 C2M       -10.7000  -18.8300   55.1390 C.2       1 MYA501      0.0000 
     26 O2M       -10.7080  -19.9940   54.7570 O.2       1 MYA501      0.0000 
     27 C2X        -1.4970  -14.9940   60.4630 C.3       1 MYA501      0.0000 
     28 O2X        -2.0080  -13.6640   60.6610 O.3       1 MYA501      0.0000 
     29 N3A        -4.3580  -15.4770   57.1320 N.ar      1 MYA501      0.0000 
     30 O3A        -0.8010  -19.8640   61.4370 O.3       1 MYA501      0.0000 
     31 C3M       -10.2100  -17.7450   54.2040 C.3       1 MYA501      0.0000 
     32 C3X        -0.0160  -14.9460   60.1200 C.3       1 MYA501      0.0000 
     33 O3X         0.2990  -13.9080   59.1460 O.3       1 MYA501      0.0000 
     34 P3X         1.0820  -12.5530   59.6850 P.3       1 MYA501      0.0000 
     35 C4A        -4.4360  -15.9700   58.3740 C.ar      1 MYA501      0.0000 
     36 O4A        -0.7470  -22.3270   61.9430 O.co2     1 MYA501      0.0000 
     37 C4M        -8.6760  -17.7880   54.1860 C.3       1 MYA501      0.0000 
     38 C4X         0.1330  -16.3470   59.5330 C.3       1 MYA501      0.0000 
     39 O4X        -1.2200  -16.7820   59.1230 O.3       1 MYA501      0.0000 
     40 C5A        -5.5940  -16.4600   58.8470 C.ar      1 MYA501      0.0000 
     41 O5A        -2.4780  -20.7860   63.0280 O.co2     1 MYA501      0.0000 
     42 C5M        -8.1710  -16.7330   53.1930 C.3       1 MYA501      0.0000 
     43 C5X         0.4300  -17.3610   60.6360 C.3       1 MYA501      0.0000 
     44 O5X         0.7430  -18.6040   59.9990 O.3       1 MYA501      0.0000 
     45 C6A        -6.6960  -16.4680   58.0740 C.ar      1 MYA501      0.0000 
     46 N6A        -7.8220  -16.9650   58.5990 N.pl3     1 MYA501      0.0000 
     47 O6A        -2.6390  -21.3930   60.5670 O.3       1 MYA501      0.0000 
     48 C6M        -6.6640  -16.6520   53.2420 C.3       1 MYA501      0.0000 
     49 N7A        -5.3730  -16.8650   60.1100 N.2       1 MYA501      0.0000 
     50 O7A         0.9750  -11.5560   58.5960 O.co2     1 MYA501      0.0000 
     51 C7M        -6.1690  -15.5050   52.3550 C.3       1 MYA501      0.0000 
     52 C8A        -4.0840  -16.6330   60.3990 C.2       1 MYA501      0.0000 
     53 O8A         0.2920  -12.1730   60.8690 O.co2     1 MYA501      0.0000 
     54 C8M        -6.3620  -15.8130   50.8560 C.3       1 MYA501      0.0000 
     55 N9A        -3.5030  -16.0660   59.3320 N.pl3     1 MYA501      0.0000 
     56 O9A         2.4680  -13.0230   59.9120 O.co2     1 MYA501      0.0000 
     57 C9M        -5.7430  -14.6810   50.0040 C.3       1 MYA501      0.0000 
     58 CAM        -6.2100  -14.7600   48.5410 C.3       1 MYA501      0.0000 
     59 CBM        -5.2420  -15.6490   47.7380 C.3       1 MYA501      0.0000 
     60 CCM        -5.7640  -15.8500   46.3100 C.3       1 MYA501      0.0000 
     61 CDM        -5.2950  -14.7290   45.3750 C.3       1 MYA501      0.0000 
     62 CEM        -5.6410  -15.1020   43.9130 C.3       1 MYA501      0.0000 
     63 CFM        -5.3480  -13.9170   42.9660 C.3       1 MYA501      0.0000 
@<TRIPOS>BOND
     1    1    2 1    
     2    1   25 1    
     3    2    3 1    
     4    3    4 1    
     5    4    5 am   
     6    5    6 2    
     7    5    7 1    
     8    7    8 1    
     9    8    9 1    
    10    9   10 am   
    11   10   11 2    
    12   10   12 1    
    13   12   13 1    
    14   12   14 1    
    15   14   15 1    
    16   14   16 1    
    17   14   17 1    
    18   15   47 1    
    19   18   22 ar   
    20   18   45 ar   
    21   19   20 ar   
    22   20   23 ar   
    23   20   30 1    
    24   20   44 1    
    25   21   27 1    
    26   21   39 1    
    27   21   55 1    
    28   22   29 ar   
    29   24   30 1    
    30   24   36 ar   
    31   24   41 ar   
    32   24   47 1    
    33   25   26 2    
    34   25   31 1    
    35   27   28 1    
    36   27   32 1    
    37   29   35 ar   
    38   31   37 1    
    39   32   33 1    
    40   32   38 1    
    41   33   34 1    
    42   34   50 ar   
    43   34   53 ar   
    44   34   56 ar   
    45   35   40 ar   
    46   35   55 1    
    47   37   42 1    
    48   38   39 1    
    49   38   43 1    
    50   40   45 ar   
    51   40   49 1    
    52   42   48 1    
    53   43   44 1    
    54   45   46 1    
    55   48   51 1    
    56   49   52 2    
    57   51   54 1    
    58   52   55 1    
    59   54   57 1    
    60   57   58 1    
    61   58   59 1    
    62   59   60 1    
    63   60   61 1    
    64   61   62 1    
    65   62   63 1    
@<TRIPOS>SUBSTRUCTURE
     1 MYA501      1 GROUP   
@<TRIPOS>SET

