#    Name: 6myt_1_AT5
#    Modification time : Fri May 22 19:30:47 2020

@<TRIPOS>MOLECULE
6myt_1_AT5
   23    23     1     0     0
SMALL
NO_CHARGES


@<TRIPOS>ATOM
      1 O5         16.1820   25.5030   84.7240 O.2       1 AT5202      0.0000 
      2 C7         15.9390   26.5660   84.1770 C.2       1 AT5202      0.0000 
      3 C8         16.9370   27.1040   83.1850 C.3       1 AT5202      0.0000 
      4 C11        18.1240   27.7080   83.9310 C.3       1 AT5202      0.0000 
      5 C12        19.4960   27.2460   83.4300 C.3       1 AT5202      0.0000 
      6 C17        19.4540   26.6070   82.0410 C.3       1 AT5202      0.0000 
      7 C13        20.1730   26.3360   84.4580 C.3       1 AT5202      0.0000 
      8 CL12       19.2660   26.4280   85.9990 Cl        1 AT5202      0.0000 
      9 C14        20.2300   24.8810   84.0040 C.3       1 AT5202      0.0000 
     10 CL16       21.6740   24.0750   84.6900 Cl        1 AT5202      0.0000 
     11 C10        16.3040   28.1540   82.2800 C.3       1 AT5202      0.0000 
     12 C6         14.6450   27.2620   84.5080 C.2       1 AT5202      0.0000 
     13 C5         13.3620   26.5210   84.3580 C.2       1 AT5202      0.0000 
     14 N4         12.1810   27.0900   84.6510 N.am      1 AT5202      0.0000 
     15 C3         12.0500   28.3440   85.1080 C.2       1 AT5202      0.0000 
     16 C2         13.2400   29.2110   85.3210 C.2       1 AT5202      0.0000 
     17 C1         14.5820   28.6550   85.0230 C.2       1 AT5202      0.0000 
     18 O1         15.7010   29.4100   85.1940 O.co2     1 AT5202      0.0000 
     19 O2         13.0990   30.4940   85.7840 O.3       1 AT5202      0.0000 
     20 CM2        13.3970   30.8070   87.1440 C.3       1 AT5202      0.0000 
     21 O3         10.7980   28.8330   85.3740 O.3       1 AT5202      0.0000 
     22 CM3         9.6530   28.1760   84.8320 C.3       1 AT5202      0.0000 
     23 O4         13.3810   25.3420   83.9410 O.2       1 AT5202      0.0000 
@<TRIPOS>BOND
     1    1    2 2    
     2    2    3 1    
     3    2   12 1    
     4    3    4 1    
     5    3   11 1    
     6    4    5 1    
     7    5    6 1    
     8    5    7 1    
     9    7    8 1    
    10    7    9 1    
    11    9   10 1    
    12   12   13 1    
    13   12   17 2    
    14   13   14 am   
    15   13   23 2    
    16   14   15 1    
    17   15   16 2    
    18   15   21 1    
    19   16   17 1    
    20   16   19 1    
    21   17   18 ar   
    22   19   20 1    
    23   21   22 1    
@<TRIPOS>SUBSTRUCTURE
     1 AT5202      1 GROUP   
@<TRIPOS>SET

