#    Name: 6bt0_4_GDP_CAVITY_N1_4
#    Modification time : Fri May 22 19:24:53 2020

@<TRIPOS>MOLECULE
6bt0_4_GDP_CAVITY_N1_4
   88     0     7     0     0
SMALL
NO_CHARGES


@<TRIPOS>ATOM
      1 OG        -20.0500  -33.8700  -35.6400 O.3       1 SER1        0.0000 
      2 OG        -19.0500  -35.5400  -34.8000 O.3       1 SER1        0.0000 
      3 OG        -19.2300  -36.3700  -33.5600 O.3       1 SER1        0.0000 
      4 OG        -19.4000  -37.1900  -32.3200 O.3       1 SER1        0.0000 
      5 OG        -20.4800  -32.9300  -33.2600 O.3       1 SER1        0.0000 
      6 OG        -19.1300  -32.9500  -34.9000 O.3       1 SER1        0.0000 
      7 OG        -19.3000  -33.7700  -33.6600 O.3       1 SER1        0.0000 
      8 OG        -19.4800  -34.6000  -32.4200 O.3       1 SER1        0.0000 
      9 OG        -19.6600  -35.4300  -31.1800 O.3       1 SER1        0.0000 
     10 OG        -18.1300  -34.6200  -34.0500 O.3       1 SER1        0.0000 
     11 OG        -18.3100  -35.4500  -32.8100 O.3       1 SER1        0.0000 
     12 OG        -16.9600  -35.4700  -34.4500 O.3       1 SER1        0.0000 
     13 OG        -17.1300  -36.2900  -33.2100 O.3       1 SER1        0.0000 
     14 OG        -16.1400  -37.9700  -32.3700 O.3       1 SER1        0.0000 
     15 OG        -16.2200  -35.3700  -32.4700 O.3       1 SER1        0.0000 
     16 OG        -15.2200  -37.0400  -31.6200 O.3       1 SER1        0.0000 
     17 OG        -15.3000  -34.4500  -31.7200 O.3       1 SER1        0.0000 
     18 OG        -15.4700  -35.2700  -30.4800 O.3       1 SER1        0.0000 
     19 OG        -14.1300  -35.2900  -32.1200 O.3       1 SER1        0.0000 
     20 N         -17.8800  -36.3900  -35.2000 N.am      2 ALA2        0.0000 
     21 O         -15.8800  -39.7300  -33.5100 O.2       2 ALA2        0.0000 
     22 O         -18.4800  -36.2700  -31.5700 O.2       2 ALA2        0.0000 
     23 O         -18.6600  -37.1000  -30.3300 O.2       2 ALA2        0.0000 
     24 N         -17.4900  -37.9400  -30.7300 N.am      2 ALA2        0.0000 
     25 O         -13.7900  -39.6600  -33.1600 O.2       2 ALA2        0.0000 
     26 N         -19.5600  -32.0000  -32.5100 N.am      2 ALA2        0.0000 
     27 N         -18.3900  -32.8500  -32.9100 N.am      2 ALA2        0.0000 
     28 N         -18.5600  -33.6800  -31.6700 N.am      2 ALA2        0.0000 
     29 O         -17.7400  -36.1800  -29.5900 O.2       2 ALA2        0.0000 
     30 N         -16.5700  -37.0200  -29.9900 N.am      2 ALA2        0.0000 
     31 N         -18.6400  -31.0800  -31.7700 N.am      2 ALA2        0.0000 
     32 N         -17.4700  -31.9300  -32.1700 N.am      2 ALA2        0.0000 
     33 N         -16.4700  -33.6000  -31.3200 N.am      2 ALA2        0.0000 
     34 OD1       -18.2300  -38.0400  -32.7200 O.co2     3 ASP3        0.0000 
     35 OD1       -17.9600  -33.8000  -35.2900 O.co2     3 ASP3        0.0000 
     36 OD1       -17.8600  -30.3700  -36.6300 O.co2     3 ASP3        0.0000 
     37 OD1       -18.0300  -31.2000  -35.3900 O.co2     3 ASP3        0.0000 
     38 OD1       -17.0400  -32.8700  -34.5500 O.co2     3 ASP3        0.0000 
     39 OD1       -15.7700  -30.3000  -36.2800 O.co2     3 ASP3        0.0000 
     40 OD1       -15.9400  -31.1200  -35.0400 O.co2     3 ASP3        0.0000 
     41 OD1       -18.3700  -26.8400  -34.3500 O.co2     3 ASP3        0.0000 
     42 NZ        -19.7700  -29.6200  -38.2200 N.4       4 LYS4        0.0000 
     43 NZ        -20.0300  -27.8600  -37.0800 N.4       4 LYS4        0.0000 
     44 CZ        -21.0400  -32.2000  -36.4800 C.ar      5 PHE5        0.0000 
     45 CZ        -21.1200  -29.6000  -36.5800 C.ar      5 PHE5        0.0000 
     46 CZ        -20.1200  -31.2800  -35.7400 C.ar      5 PHE5        0.0000 
     47 CZ        -20.3000  -32.1000  -34.5000 C.ar      5 PHE5        0.0000 
     48 CZ        -19.2100  -30.3500  -34.9900 C.ar      5 PHE5        0.0000 
     49 CZ        -19.3800  -31.1800  -33.7500 C.ar      5 PHE5        0.0000 
     50 CZ        -19.4600  -28.5800  -33.8500 C.ar      5 PHE5        0.0000 
     51 CZ        -18.2900  -29.4300  -34.2500 C.ar      5 PHE5        0.0000 
     52 CZ        -18.4600  -30.2600  -33.0100 C.ar      5 PHE5        0.0000 
     53 CA        -18.9700  -38.1400  -34.7000 C.3       6 GLY6        0.0000 
     54 CA        -20.8700  -31.3700  -37.7200 C.3       6 GLY6        0.0000 
     55 CA        -21.2200  -33.0200  -35.2400 C.3       6 GLY6        0.0000 
     56 CA        -19.8700  -33.0500  -36.8800 C.3       6 GLY6        0.0000 
     57 CA        -18.8700  -34.7200  -36.0400 C.3       6 GLY6        0.0000 
     58 CA        -18.0500  -37.2200  -33.9600 C.3       6 GLY6        0.0000 
     59 CA        -17.0600  -38.8900  -33.1100 C.3       6 GLY6        0.0000 
     60 CA        -16.0600  -40.5600  -32.2700 C.3       6 GLY6        0.0000 
     61 CA        -14.8900  -41.4100  -32.6700 C.3       6 GLY6        0.0000 
     62 CA        -19.9500  -30.4500  -36.9800 C.3       6 GLY6        0.0000 
     63 CA        -18.7800  -31.3000  -37.3800 C.3       6 GLY6        0.0000 
     64 CA        -18.9500  -32.1200  -36.1400 C.3       6 GLY6        0.0000 
     65 CA        -16.3100  -38.7900  -31.1300 C.3       6 GLY6        0.0000 
     66 CA        -14.9700  -38.8100  -32.7700 C.3       6 GLY6        0.0000 
     67 CA        -15.1400  -39.6400  -31.5300 C.3       6 GLY6        0.0000 
     68 CA        -13.9700  -40.4800  -31.9200 C.3       6 GLY6        0.0000 
     69 CA        -20.2000  -28.6800  -35.8400 C.3       6 GLY6        0.0000 
     70 CA        -18.8500  -28.7000  -37.4700 C.3       6 GLY6        0.0000 
     71 CA        -17.5700  -35.3500  -30.8300 C.3       6 GLY6        0.0000 
     72 CA        -15.4000  -37.8700  -30.3800 C.3       6 GLY6        0.0000 
     73 CA        -19.1100  -26.9300  -36.3300 C.3       6 GLY6        0.0000 
     74 CA        -19.2800  -27.7600  -35.0900 C.3       6 GLY6        0.0000 
     75 CA        -17.9400  -27.7800  -36.7300 C.3       6 GLY6        0.0000 
     76 CA        -16.9400  -29.4500  -35.8900 C.3       6 GLY6        0.0000 
     77 CA        -16.6500  -34.4300  -30.0800 C.3       6 GLY6        0.0000 
     78 DU        -17.3100  -37.1200  -31.9700 H         7 CUB7        0.0000 
     79 DU        -19.0300  -29.5300  -36.2300 H         7 CUB7        0.0000 
     80 DU        -18.2100  -32.0300  -34.1500 H         7 CUB7        0.0000 
     81 DU        -17.2100  -33.7000  -33.3100 H         7 CUB7        0.0000 
     82 DU        -17.3900  -34.5200  -32.0700 H         7 CUB7        0.0000 
     83 DU        -16.3900  -36.2000  -31.2300 H         7 CUB7        0.0000 
     84 DU        -18.1100  -28.6100  -35.4900 H         7 CUB7        0.0000 
     85 DU        -17.1100  -30.2800  -34.6500 H         7 CUB7        0.0000 
     86 DU        -17.2900  -31.1000  -33.4100 H         7 CUB7        0.0000 
     87 DU        -16.2900  -32.7800  -32.5600 H         7 CUB7        0.0000 
     88 DU        -17.1900  -27.6800  -34.7400 H         7 CUB7        0.0000 
@<TRIPOS>BOND
@<TRIPOS>SUBSTRUCTURE
     1 SER1        1 GROUP   
     2 ALA2       20 GROUP   
     3 ASP3       34 GROUP   
     4 LYS4       42 GROUP   
     5 PHE5       44 GROUP   
     6 GLY6       53 GROUP   
     7 CUB7       78 GROUP   
@<TRIPOS>SET

