#    Name: 6bt0_4_GDP
#    Modification time : Fri May 22 19:24:51 2020

@<TRIPOS>MOLECULE
6bt0_4_GDP
   28    30     1     0     1
SMALL
NO_CHARGES


@<TRIPOS>ATOM
      1 PB        -18.3540  -39.9060  -34.7380 P.3       1 GDP202      0.0000 
      2 O1B       -18.2930  -40.3490  -36.1870 O.co2     1 GDP202      0.0000 
      3 O2B       -17.0940  -40.1750  -33.9350 O.co2     1 GDP202      0.0000 
      4 O3B       -19.6170  -40.2970  -34.0000 O.co2     1 GDP202      0.0000 
      5 O3A       -18.4330  -38.3160  -34.8560 O.3       1 GDP202      0.0000 
      6 PA        -19.0540  -37.5470  -33.6210 P.3       1 GDP202      0.0000 
      7 O1A       -20.5540  -37.7380  -33.7760 O.co2     1 GDP202      0.0000 
      8 O2A       -18.3340  -37.8090  -32.3450 O.co2     1 GDP202      0.0000 
      9 O5'       -18.7580  -36.0300  -34.0000 O.3       1 GDP202      0.0000 
     10 C5'       -17.4260  -35.6330  -34.3060 C.3       1 GDP202      0.0000 
     11 C4'       -17.1630  -34.2170  -33.8430 C.3       1 GDP202      0.0000 
     12 O4'       -17.5740  -33.3360  -34.8810 O.3       1 GDP202      0.0000 
     13 C3'       -17.9700  -33.8690  -32.6120 C.3       1 GDP202      0.0000 
     14 O3'       -17.2070  -32.9480  -31.8500 O.3       1 GDP202      0.0000 
     15 C2'       -19.1930  -33.1620  -33.1270 C.3       1 GDP202      0.0000 
     16 O2'       -19.5490  -32.1060  -32.2330 O.3       1 GDP202      0.0000 
     17 C1'       -18.7520  -32.6130  -34.4890 C.3       1 GDP202      0.0000 
     18 N9        -19.7400  -32.7540  -35.5890 N.pl3     1 GDP202      0.0000 
     19 C8        -20.3950  -33.8860  -35.9650 C.2       1 GDP202      0.0000 
     20 N7        -21.2010  -33.6690  -37.0430 N.2       1 GDP202      0.0000 
     21 C5        -21.0380  -32.3630  -37.3620 C.2       1 GDP202      0.0000 
     22 C6        -21.5710  -31.4340  -38.3860 C.2       1 GDP202      0.0000 
     23 O6        -22.4090  -31.8610  -39.2190 O.2       1 GDP202      0.0000 
     24 N1        -21.1510  -30.1640  -38.3910 N.am      1 GDP202      0.0000 
     25 C2        -20.2930  -29.7110  -37.4860 C.2       1 GDP202      0.0000 
     26 N2        -19.8940  -28.4330  -37.5050 N.pl3     1 GDP202      0.0000 
     27 N3        -19.7680  -30.4960  -36.5460 N.2       1 GDP202      0.0000 
     28 C4        -20.0720  -31.7870  -36.4280 C.2       1 GDP202      0.0000 
@<TRIPOS>BOND
     1    1    2 ar   
     2    1    3 ar   
     3    1    4 ar   
     4    1    5 1    
     5    5    6 1    
     6    6    7 ar   
     7    6    8 ar   
     8    6    9 1    
     9    9   10 1    
    10   10   11 1    
    11   11   12 1    
    12   11   13 1    
    13   12   17 1    
    14   13   14 1    
    15   13   15 1    
    16   15   16 1    
    17   15   17 1    
    18   17   18 1    
    19   18   19 1    
    20   18   28 1    
    21   19   20 2    
    22   20   21 1    
    23   21   22 1    
    24   21   28 2    
    25   22   23 2    
    26   22   24 am   
    27   24   25 1    
    28   25   26 1    
    29   25   27 2    
    30   27   28 1    
@<TRIPOS>SUBSTRUCTURE
     1 GDP202      1 GROUP   
@<TRIPOS>SET
ATOM$ORANGE STATIC     ATOMS   COLORGROUP SYSTEM 
20 10 10 11 11 13 13 15 15 17 17 19 19 21 21 22 22 25 \
25 28 28 

