#    Name: 6bt0_2_GDP
#    Modification time : Fri May 22 19:24:39 2020

@<TRIPOS>MOLECULE
6bt0_2_GDP
   28    30     1     0     1
SMALL
NO_CHARGES


@<TRIPOS>ATOM
      1 PB         17.6320   -5.4570  -12.9850 P.3       1 GDP202      0.0000 
      2 O1B        17.9920   -6.1370  -14.2700 O.co2     1 GDP202      0.0000 
      3 O2B        16.1930   -4.9760  -12.8480 O.co2     1 GDP202      0.0000 
      4 O3B        18.7270   -4.5250  -12.5340 O.co2     1 GDP202      0.0000 
      5 O3A        17.7410   -6.6830  -11.9780 O.3       1 GDP202      0.0000 
      6 PA         18.3410   -6.4320  -10.5160 P.3       1 GDP202      0.0000 
      7 O1A        19.8410   -6.3260  -10.7150 O.co2     1 GDP202      0.0000 
      8 O2A        17.4680   -5.3720   -9.8930 O.co2     1 GDP202      0.0000 
      9 O5'        18.0840   -7.8490   -9.7480 O.3       1 GDP202      0.0000 
     10 C5'        16.7890   -8.4450   -9.7890 C.3       1 GDP202      0.0000 
     11 C4'        16.3360   -9.0530   -8.4930 C.3       1 GDP202      0.0000 
     12 O4'        16.7020  -10.4340   -8.5000 O.3       1 GDP202      0.0000 
     13 C3'        17.0400   -8.4340   -7.3140 C.3       1 GDP202      0.0000 
     14 O3'        16.2620   -8.6540   -6.1470 O.3       1 GDP202      0.0000 
     15 C2'        18.3170   -9.2390   -7.2070 C.3       1 GDP202      0.0000 
     16 O2'        18.8300   -9.1590   -5.8760 O.3       1 GDP202      0.0000 
     17 C1'        17.8640  -10.6410   -7.6870 C.3       1 GDP202      0.0000 
     18 N9         18.8540  -11.3740   -8.4970 N.pl3     1 GDP202      0.0000 
     19 C8         19.5200  -10.8790   -9.5520 C.2       1 GDP202      0.0000 
     20 N7         20.3620  -11.8000  -10.0700 N.2       1 GDP202      0.0000 
     21 C5         20.2340  -12.9290   -9.3510 C.2       1 GDP202      0.0000 
     22 C6         20.8270  -14.2840   -9.3600 C.2       1 GDP202      0.0000 
     23 O6         21.6840  -14.6340  -10.1950 O.2       1 GDP202      0.0000 
     24 N1         20.4400  -15.1440   -8.4310 N.am      1 GDP202      0.0000 
     25 C2         19.5370  -14.8480   -7.4880 C.2       1 GDP202      0.0000 
     26 N2         19.1960  -15.7910   -6.5730 N.pl3     1 GDP202      0.0000 
     27 N3         18.9400  -13.6330   -7.4290 N.2       1 GDP202      0.0000 
     28 C4         19.2360  -12.6420   -8.3110 C.2       1 GDP202      0.0000 
@<TRIPOS>BOND
     1    1    2 ar   
     2    1    3 ar   
     3    1    4 ar   
     4    1    5 1    
     5    5    6 1    
     6    6    7 ar   
     7    6    8 ar   
     8    6    9 1    
     9    9   10 1    
    10   10   11 1    
    11   11   12 1    
    12   11   13 1    
    13   12   17 1    
    14   13   14 1    
    15   13   15 1    
    16   15   16 1    
    17   15   17 1    
    18   17   18 1    
    19   18   19 1    
    20   18   28 1    
    21   19   20 2    
    22   20   21 1    
    23   21   22 1    
    24   21   28 2    
    25   22   23 2    
    26   22   24 am   
    27   24   25 1    
    28   25   26 1    
    29   25   27 2    
    30   27   28 1    
@<TRIPOS>SUBSTRUCTURE
     1 GDP202      1 GROUP   
@<TRIPOS>SET
ATOM$ORANGE STATIC     ATOMS   COLORGROUP SYSTEM 
20 10 10 11 11 13 13 15 15 17 17 19 19 21 21 22 22 25 \
25 28 28 

