#    Name: 6bt0_3_GDP
#    Modification time : Fri May 22 19:24:45 2020

@<TRIPOS>MOLECULE
6bt0_3_GDP
   28    30     1     0     1
SMALL
NO_CHARGES


@<TRIPOS>ATOM
      1 PB         -7.4110  -37.0040  -27.5400 P.3       1 GDP202      0.0000 
      2 O1B        -6.2180  -37.9040  -27.8350 O.co2     1 GDP202      0.0000 
      3 O2B        -7.2000  -35.9180  -26.5000 O.co2     1 GDP202      0.0000 
      4 O3B        -8.7190  -37.6970  -27.3250 O.co2     1 GDP202      0.0000 
      5 O3A        -7.6210  -36.0420  -28.8240 O.3       1 GDP202      0.0000 
      6 PA         -6.8570  -36.2860  -30.2150 P.3       1 GDP202      0.0000 
      7 O1A        -7.4280  -37.5230  -30.8330 O.co2     1 GDP202      0.0000 
      8 O2A        -5.3810  -36.0660  -30.0630 O.co2     1 GDP202      0.0000 
      9 O5'        -7.3850  -35.0490  -31.0850 O.3       1 GDP202      0.0000 
     10 C5'        -8.7940  -34.8200  -31.2810 C.3       1 GDP202      0.0000 
     11 C4'        -8.9880  -34.0500  -32.5630 C.3       1 GDP202      0.0000 
     12 O4'        -8.4130  -32.7630  -32.3900 O.3       1 GDP202      0.0000 
     13 C3'        -8.2790  -34.6720  -33.7570 C.3       1 GDP202      0.0000 
     14 O3'        -9.0580  -34.5170  -34.9570 O.3       1 GDP202      0.0000 
     15 C2'        -6.9990  -33.8970  -33.8720 C.3       1 GDP202      0.0000 
     16 O2'        -6.5790  -33.9160  -35.2420 O.3       1 GDP202      0.0000 
     17 C1'        -7.3750  -32.5210  -33.3350 C.3       1 GDP202      0.0000 
     18 N9         -6.3810  -31.7540  -32.5400 N.pl3     1 GDP202      0.0000 
     19 C8         -5.6900  -32.2060  -31.4760 C.2       1 GDP202      0.0000 
     20 N7         -4.9010  -31.2500  -30.9390 N.2       1 GDP202      0.0000 
     21 C5         -5.1010  -30.1570  -31.6680 C.2       1 GDP202      0.0000 
     22 C6         -4.5840  -28.7880  -31.6540 C.2       1 GDP202      0.0000 
     23 O6         -3.7650  -28.4370  -30.8120 O.2       1 GDP202      0.0000 
     24 N1         -5.0160  -27.9120  -32.5600 N.am      1 GDP202      0.0000 
     25 C2         -5.9080  -28.2430  -33.5080 C.2       1 GDP202      0.0000 
     26 N2         -6.2740  -27.2840  -34.3920 N.pl3     1 GDP202      0.0000 
     27 N3         -6.4420  -29.5030  -33.5940 N.2       1 GDP202      0.0000 
     28 C4         -6.0780  -30.4750  -32.7140 C.2       1 GDP202      0.0000 
@<TRIPOS>BOND
     1    1    2 ar   
     2    1    3 ar   
     3    1    4 ar   
     4    1    5 1    
     5    5    6 1    
     6    6    7 ar   
     7    6    8 ar   
     8    6    9 1    
     9    9   10 1    
    10   10   11 1    
    11   11   12 1    
    12   11   13 1    
    13   12   17 1    
    14   13   14 1    
    15   13   15 1    
    16   15   16 1    
    17   15   17 1    
    18   17   18 1    
    19   18   19 1    
    20   18   28 1    
    21   19   20 2    
    22   20   21 1    
    23   21   22 1    
    24   21   28 2    
    25   22   23 2    
    26   22   24 am   
    27   24   25 1    
    28   25   26 1    
    29   25   27 2    
    30   27   28 1    
@<TRIPOS>SUBSTRUCTURE
     1 GDP202      1 GROUP   
@<TRIPOS>SET
ATOM$ORANGE STATIC     ATOMS   COLORGROUP SYSTEM 
20 10 10 11 11 13 13 15 15 17 17 19 19 21 21 22 22 25 \
25 28 28 

