#    Name: 6bt0_1_GDP
#    Modification time : Fri May 22 19:24:33 2020

@<TRIPOS>MOLECULE
6bt0_1_GDP
   28    30     1     0     1
SMALL
NO_CHARGES


@<TRIPOS>ATOM
      1 PB          6.8480   -1.9090   -6.3670 P.3       1 GDP202      0.0000 
      2 O1B         5.6060   -1.4780   -7.1150 O.co2     1 GDP202      0.0000 
      3 O2B         6.8820   -1.5410   -4.8920 O.co2     1 GDP202      0.0000 
      4 O3B         8.0990   -1.5430   -7.0910 O.co2     1 GDP202      0.0000 
      5 O3A         6.7700   -3.5380   -6.3630 O.3       1 GDP202      0.0000 
      6 PA          5.9940   -4.3630   -7.5230 P.3       1 GDP202      0.0000 
      7 O1A         6.5120   -3.7640   -8.8040 O.co2     1 GDP202      0.0000 
      8 O2A         4.5260   -4.3480   -7.2150 O.co2     1 GDP202      0.0000 
      9 O5'         6.4940   -5.8770   -7.4140 O.3       1 GDP202      0.0000 
     10 C5'         7.8910   -6.0440   -7.1630 C.3       1 GDP202      0.0000 
     11 C4'         8.4080   -7.4240   -7.5430 C.3       1 GDP202      0.0000 
     12 O4'         8.0730   -8.3710   -6.5460 O.3       1 GDP202      0.0000 
     13 C3'         7.8120   -7.9620   -8.8210 C.3       1 GDP202      0.0000 
     14 O3'         8.8060   -8.8040   -9.4420 O.3       1 GDP202      0.0000 
     15 C2'         6.6140   -8.7410   -8.3600 C.3       1 GDP202      0.0000 
     16 O2'         6.3540   -9.7470   -9.3270 O.3       1 GDP202      0.0000 
     17 C1'         7.0760   -9.2700   -7.0080 C.3       1 GDP202      0.0000 
     18 N9          6.0480   -9.3790   -5.9300 N.pl3     1 GDP202      0.0000 
     19 C8          5.2900   -8.3950   -5.4200 C.2       1 GDP202      0.0000 
     20 N7          4.4620   -8.8490   -4.4380 N.2       1 GDP202      0.0000 
     21 C5          4.7050  -10.1430   -4.3050 C.2       1 GDP202      0.0000 
     22 C6          4.2110  -11.2090   -3.4400 C.2       1 GDP202      0.0000 
     23 O6          3.3280  -10.9930   -2.5820 O.2       1 GDP202      0.0000 
     24 N1          4.7240  -12.4300   -3.5950 N.am      1 GDP202      0.0000 
     25 C2          5.6700  -12.7210   -4.5000 C.2       1 GDP202      0.0000 
     26 N2          6.1300  -14.0010   -4.5970 N.pl3     1 GDP202      0.0000 
     27 N3          6.1940  -11.7610   -5.3170 N.2       1 GDP202      0.0000 
     28 C4          5.7530  -10.4860   -5.2610 C.2       1 GDP202      0.0000 
@<TRIPOS>BOND
     1    1    2 ar   
     2    1    3 ar   
     3    1    4 ar   
     4    1    5 1    
     5    5    6 1    
     6    6    7 ar   
     7    6    8 ar   
     8    6    9 1    
     9    9   10 1    
    10   10   11 1    
    11   11   12 1    
    12   11   13 1    
    13   12   17 1    
    14   13   14 1    
    15   13   15 1    
    16   15   16 1    
    17   15   17 1    
    18   17   18 1    
    19   18   19 1    
    20   18   28 1    
    21   19   20 2    
    22   20   21 1    
    23   21   22 1    
    24   21   28 2    
    25   22   23 2    
    26   22   24 am   
    27   24   25 1    
    28   25   26 1    
    29   25   27 2    
    30   27   28 1    
@<TRIPOS>SUBSTRUCTURE
     1 GDP202      1 GROUP   
@<TRIPOS>SET
ATOM$ORANGE STATIC     ATOMS   COLORGROUP SYSTEM 
20 10 10 11 11 13 13 15 15 17 17 19 19 21 21 22 22 25 \
25 28 28 

