#    Name: 6mfr_3_IPH_CAVITY_N1_4
#    Modification time : Fri May 22 19:38:31 2020

@<TRIPOS>MOLECULE
6mfr_3_IPH_CAVITY_N1_4
   49     0     7     0     0
SMALL
NO_CHARGES


@<TRIPOS>ATOM
      1 OG        134.3500  153.7300  178.9500 O.3       1 SER1        0.0000 
      2 OG        135.4300  153.7500  177.9100 O.3       1 SER1        0.0000 
      3 OG        136.4400  153.4000  178.9600 O.3       1 SER1        0.0000 
      4 OG        134.5800  155.1900  179.2200 O.3       1 SER1        0.0000 
      5 OG        135.6600  155.2100  178.1800 O.3       1 SER1        0.0000 
      6 OG        136.6700  154.8500  179.2300 O.3       1 SER1        0.0000 
      7 N         132.4900  155.5300  179.2200 N.am      2 ALA2        0.0000 
      8 N         133.5700  155.5500  178.1800 N.am      2 ALA2        0.0000 
      9 N         137.4400  159.6000  177.9400 N.am      2 ALA2        0.0000 
     10 OD1       134.4100  154.1100  176.8700 O.co2     3 ASP3        0.0000 
     11 NZ        137.5200  153.4100  177.9200 N.4       4 LYS4        0.0000 
     12 NZ        135.8300  156.2900  180.5400 N.4       4 LYS4        0.0000 
     13 NZ        136.8400  155.9400  181.5800 N.4       4 LYS4        0.0000 
     14 NZ        136.0600  157.7500  180.8000 N.4       4 LYS4        0.0000 
     15 CZ        137.7500  154.8700  178.1900 C.ar      5 PHE5        0.0000 
     16 CZ        138.8300  154.8900  177.1400 C.ar      5 PHE5        0.0000 
     17 CZ        136.9100  156.3100  179.4900 C.ar      5 PHE5        0.0000 
     18 CZ        137.9200  155.9600  180.5400 C.ar      5 PHE5        0.0000 
     19 CZ        137.9900  156.3300  178.4500 C.ar      5 PHE5        0.0000 
     20 CZ        139.0700  156.3500  177.4100 C.ar      5 PHE5        0.0000 
     21 CZ        137.1400  157.7700  179.7600 C.ar      5 PHE5        0.0000 
     22 CZ        138.1600  157.4100  180.8100 C.ar      5 PHE5        0.0000 
     23 CZ        136.5300  160.6600  181.3400 C.ar      5 PHE5        0.0000 
     24 CA        133.6300  155.9200  176.0900 C.3       6 GLY6        0.0000 
     25 CA        137.8200  155.2400  176.1000 C.3       6 GLY6        0.0000 
     26 CA        134.8100  156.6500  179.4900 C.3       6 GLY6        0.0000 
     27 CA        134.8800  157.0200  177.4000 C.3       6 GLY6        0.0000 
     28 CA        135.8900  156.6700  178.4500 C.3       6 GLY6        0.0000 
     29 CA        134.9400  157.3900  175.3100 C.3       6 GLY6        0.0000 
     30 CA        135.9600  157.0400  176.3600 C.3       6 GLY6        0.0000 
     31 CA        138.0500  156.7000  176.3700 C.3       6 GLY6        0.0000 
     32 CA        137.0800  157.4000  181.8500 C.3       6 GLY6        0.0000 
     33 CA        136.1300  158.1200  178.7200 C.3       6 GLY6        0.0000 
     34 CA        137.2100  158.1400  177.6700 C.3       6 GLY6        0.0000 
     35 CA        138.2200  157.7900  178.7200 C.3       6 GLY6        0.0000 
     36 CA        136.3000  159.2100  181.0700 C.3       6 GLY6        0.0000 
     37 CA        136.3600  159.5800  178.9800 C.3       6 GLY6        0.0000 
     38 CA        137.3800  159.2300  180.0300 C.3       6 GLY6        0.0000 
     39 CA        138.3900  158.8700  181.0700 C.3       6 GLY6        0.0000 
     40 CA        138.4600  159.2400  178.9900 C.3       6 GLY6        0.0000 
     41 CA        135.5200  161.0200  180.2900 C.3       6 GLY6        0.0000 
     42 CA        136.6000  161.0400  179.2500 C.3       6 GLY6        0.0000 
     43 CA        137.6100  160.6800  180.3000 C.3       6 GLY6        0.0000 
     44 CA        138.6300  160.3300  181.3400 C.3       6 GLY6        0.0000 
     45 DU        136.5000  153.7700  176.8700 H         7 CUB7        0.0000 
     46 DU        134.6400  155.5600  177.1300 H         7 CUB7        0.0000 
     47 DU        135.7200  155.5800  176.0900 H         7 CUB7        0.0000 
     48 DU        136.7400  155.2300  177.1400 H         7 CUB7        0.0000 
     49 DU        136.9700  156.6800  177.4100 H         7 CUB7        0.0000 
@<TRIPOS>BOND
@<TRIPOS>SUBSTRUCTURE
     1 SER1        1 GROUP   
     2 ALA2        7 GROUP   
     3 ASP3       10 GROUP   
     4 LYS4       11 GROUP   
     5 PHE5       15 GROUP   
     6 GLY6       24 GROUP   
     7 CUB7       45 GROUP   
@<TRIPOS>SET

