#    Name: 6mfr_3_IPH_CAVITY_N1_6
#    Modification time : Fri May 22 19:38:31 2020

@<TRIPOS>MOLECULE
6mfr_3_IPH_CAVITY_N1_6
   84     0     7     0     0
SMALL
NO_CHARGES


@<TRIPOS>ATOM
      1 OG        136.2100  151.9400  178.6900 O.3       1 SER1        0.0000 
      2 OG        134.3500  153.7300  178.9500 O.3       1 SER1        0.0000 
      3 OG        135.4300  153.7500  177.9100 O.3       1 SER1        0.0000 
      4 OG        136.4400  153.4000  178.9600 O.3       1 SER1        0.0000 
      5 OG        134.5800  155.1900  179.2200 O.3       1 SER1        0.0000 
      6 OG        135.6600  155.2100  178.1800 O.3       1 SER1        0.0000 
      7 OG        136.6700  154.8500  179.2300 O.3       1 SER1        0.0000 
      8 N         138.3600  151.9700  176.6100 N.am      2 ALA2        0.0000 
      9 N         131.2400  154.4300  177.9000 N.am      2 ALA2        0.0000 
     10 N         132.4900  155.5300  179.2200 N.am      2 ALA2        0.0000 
     11 N         131.5400  156.2600  176.0800 N.am      2 ALA2        0.0000 
     12 N         132.5500  155.9000  177.1300 N.am      2 ALA2        0.0000 
     13 N         133.5700  155.5500  178.1800 N.am      2 ALA2        0.0000 
     14 N         137.4400  159.6000  177.9400 N.am      2 ALA2        0.0000 
     15 OD1       134.1800  152.6500  176.6000 O.co2     3 ASP3        0.0000 
     16 OD1       135.2600  152.6700  175.5600 O.co2     3 ASP3        0.0000 
     17 OD1       132.3200  154.4400  176.8600 O.co2     3 ASP3        0.0000 
     18 OD1       132.3800  154.8200  174.7700 O.co2     3 ASP3        0.0000 
     19 OD1       133.4000  154.4600  175.8200 O.co2     3 ASP3        0.0000 
     20 OD1       134.4100  154.1100  176.8700 O.co2     3 ASP3        0.0000 
     21 OD1       134.4800  154.4800  174.7800 O.co2     3 ASP3        0.0000 
     22 OD1       132.6200  156.2700  175.0400 O.co2     3 ASP3        0.0000 
     23 NZ        135.1900  152.2900  177.6500 N.4       4 LYS4        0.0000 
     24 NZ        136.2700  152.3100  176.6000 N.4       4 LYS4        0.0000 
     25 NZ        133.3300  154.0900  177.9100 N.4       4 LYS4        0.0000 
     26 NZ        137.5200  153.4100  177.9200 N.4       4 LYS4        0.0000 
     27 NZ        138.5300  153.0600  178.9600 N.4       4 LYS4        0.0000 
     28 NZ        135.8300  156.2900  180.5400 N.4       4 LYS4        0.0000 
     29 NZ        136.8400  155.9400  181.5800 N.4       4 LYS4        0.0000 
     30 NZ        136.0600  157.7500  180.8000 N.4       4 LYS4        0.0000 
     31 CZ        139.6100  153.0800  177.9200 C.ar      5 PHE5        0.0000 
     32 CZ        137.7500  154.8700  178.1900 C.ar      5 PHE5        0.0000 
     33 CZ        138.8300  154.8900  177.1400 C.ar      5 PHE5        0.0000 
     34 CZ        139.9100  154.9100  176.1000 C.ar      5 PHE5        0.0000 
     35 CZ        140.9300  154.5500  177.1500 C.ar      5 PHE5        0.0000 
     36 CZ        136.9100  156.3100  179.4900 C.ar      5 PHE5        0.0000 
     37 CZ        137.9200  155.9600  180.5400 C.ar      5 PHE5        0.0000 
     38 CZ        137.9900  156.3300  178.4500 C.ar      5 PHE5        0.0000 
     39 CZ        139.0700  156.3500  177.4100 C.ar      5 PHE5        0.0000 
     40 CZ        137.1400  157.7700  179.7600 C.ar      5 PHE5        0.0000 
     41 CZ        138.1600  157.4100  180.8100 C.ar      5 PHE5        0.0000 
     42 CZ        136.5300  160.6600  181.3400 C.ar      5 PHE5        0.0000 
     43 CA        137.2900  151.9600  177.6500 C.3       6 GLY6        0.0000 
     44 CA        137.6500  154.1600  173.7400 C.3       6 GLY6        0.0000 
     45 CA        133.6300  155.9200  176.0900 C.3       6 GLY6        0.0000 
     46 CA        133.7000  156.2900  174.0000 C.3       6 GLY6        0.0000 
     47 CA        134.7100  155.9400  175.0500 C.3       6 GLY6        0.0000 
     48 CA        135.7900  155.9500  174.0100 C.3       6 GLY6        0.0000 
     49 CA        136.8000  155.6000  175.0500 C.3       6 GLY6        0.0000 
     50 CA        137.8200  155.2400  176.1000 C.3       6 GLY6        0.0000 
     51 CA        137.8800  155.6200  174.0100 C.3       6 GLY6        0.0000 
     52 CA        138.9000  155.2600  175.0600 C.3       6 GLY6        0.0000 
     53 CA        134.8100  156.6500  179.4900 C.3       6 GLY6        0.0000 
     54 CA        134.8800  157.0200  177.4000 C.3       6 GLY6        0.0000 
     55 CA        135.8900  156.6700  178.4500 C.3       6 GLY6        0.0000 
     56 CA        134.9400  157.3900  175.3100 C.3       6 GLY6        0.0000 
     57 CA        135.9600  157.0400  176.3600 C.3       6 GLY6        0.0000 
     58 CA        138.0500  156.7000  176.3700 C.3       6 GLY6        0.0000 
     59 CA        137.0800  157.4000  181.8500 C.3       6 GLY6        0.0000 
     60 CA        136.1300  158.1200  178.7200 C.3       6 GLY6        0.0000 
     61 CA        137.2100  158.1400  177.6700 C.3       6 GLY6        0.0000 
     62 CA        138.2200  157.7900  178.7200 C.3       6 GLY6        0.0000 
     63 CA        136.3000  159.2100  181.0700 C.3       6 GLY6        0.0000 
     64 CA        136.3600  159.5800  178.9800 C.3       6 GLY6        0.0000 
     65 CA        137.3800  159.2300  180.0300 C.3       6 GLY6        0.0000 
     66 CA        138.3900  158.8700  181.0700 C.3       6 GLY6        0.0000 
     67 CA        138.4600  159.2400  178.9900 C.3       6 GLY6        0.0000 
     68 CA        135.5200  161.0200  180.2900 C.3       6 GLY6        0.0000 
     69 CA        136.6000  161.0400  179.2500 C.3       6 GLY6        0.0000 
     70 CA        137.6100  160.6800  180.3000 C.3       6 GLY6        0.0000 
     71 CA        138.6300  160.3300  181.3400 C.3       6 GLY6        0.0000 
     72 DU        137.3500  152.3300  175.5600 H         7 CUB7        0.0000 
     73 DU        135.4900  154.1200  175.8300 H         7 CUB7        0.0000 
     74 DU        136.5000  153.7700  176.8700 H         7 CUB7        0.0000 
     75 DU        135.5600  154.5000  173.7400 H         7 CUB7        0.0000 
     76 DU        136.5700  154.1400  174.7800 H         7 CUB7        0.0000 
     77 DU        137.5800  153.7900  175.8300 H         7 CUB7        0.0000 
     78 DU        138.6000  153.4300  176.8800 H         7 CUB7        0.0000 
     79 DU        138.6600  153.8000  174.7900 H         7 CUB7        0.0000 
     80 DU        139.6800  153.4500  175.8400 H         7 CUB7        0.0000 
     81 DU        134.6400  155.5600  177.1300 H         7 CUB7        0.0000 
     82 DU        135.7200  155.5800  176.0900 H         7 CUB7        0.0000 
     83 DU        136.7400  155.2300  177.1400 H         7 CUB7        0.0000 
     84 DU        136.9700  156.6800  177.4100 H         7 CUB7        0.0000 
@<TRIPOS>BOND
@<TRIPOS>SUBSTRUCTURE
     1 SER1        1 GROUP   
     2 ALA2        8 GROUP   
     3 ASP3       15 GROUP   
     4 LYS4       23 GROUP   
     5 PHE5       31 GROUP   
     6 GLY6       43 GROUP   
     7 CUB7       72 GROUP   
@<TRIPOS>SET

