#    Name: 5nkn_1_LOC
#    Modification time : Fri May 22 19:18:00 2020

@<TRIPOS>MOLECULE
5nkn_1_LOC
   29    31     1     0     0
SMALL
NO_CHARGES


@<TRIPOS>ATOM
      1 O4         -9.2070   15.7180  -23.2580 O.2       1 LOC201      0.0000 
      2 C12       -10.0710   16.4370  -23.7430 C.2       1 LOC201      0.0000 
      3 C13        -9.8620   17.1080  -25.0690 C.3       1 LOC201      0.0000 
      4 N1        -11.2460   16.6870  -23.1510 N.am      1 LOC201      0.0000 
      5 C11       -11.6220   16.0920  -21.8710 C.3       1 LOC201      0.0000 
      6 C14       -12.2290   14.7090  -21.9620 C.2       1 LOC201      0.0000 
      7 C15       -12.8770   14.4090  -23.1010 C.2       1 LOC201      0.0000 
      8 C10       -12.5930   16.9960  -21.1060 C.3       1 LOC201      0.0000 
      9 C9        -12.9570   16.4980  -19.7000 C.3       1 LOC201      0.0000 
     10 C8        -11.8520   15.7260  -19.0000 C.ar      1 LOC201      0.0000 
     11 C7        -11.2540   16.2470  -17.8430 C.ar      1 LOC201      0.0000 
     12 C5        -10.2260   15.5780  -17.1620 C.ar      1 LOC201      0.0000 
     13 C3         -9.7470   14.2730  -17.6540 C.ar      1 LOC201      0.0000 
     14 C1        -10.3480   13.6750  -18.8550 C.ar      1 LOC201      0.0000 
     15 O1         -9.8830   12.4720  -19.2960 O.3       1 LOC201      0.0000 
     16 C2         -8.7270   12.4570  -20.1350 C.3       1 LOC201      0.0000 
     17 O2         -8.7750   13.5950  -16.9800 O.3       1 LOC201      0.0000 
     18 C4         -9.2020   12.6090  -16.0450 C.3       1 LOC201      0.0000 
     19 O3         -9.6130   16.0520  -16.0250 O.3       1 LOC201      0.0000 
     20 C6         -9.8270   17.3510  -15.4730 C.3       1 LOC201      0.0000 
     21 C22       -11.4180   14.4160  -19.5600 C.ar      1 LOC201      0.0000 
     22 C21       -12.0910   13.8590  -20.7810 C.2       1 LOC201      0.0000 
     23 C20       -12.5940   12.6320  -20.5880 C.2       1 LOC201      0.0000 
     24 C19       -13.3180   11.7530  -21.4810 C.2       1 LOC201      0.0000 
     25 C17       -13.7360   11.9640  -22.7280 C.2       1 LOC201      0.0000 
     26 C16       -13.5690   13.1770  -23.4940 C.2       1 LOC201      0.0000 
     27 O5        -14.0790   13.1960  -24.6040 O.2       1 LOC201      0.0000 
     28 O6        -14.4550   10.9010  -23.4210 O.3       1 LOC201      0.0000 
     29 C18       -14.3750    9.5080  -23.0980 C.3       1 LOC201      0.0000 
@<TRIPOS>BOND
     1    1    2 2    
     2    2    3 1    
     3    2    4 am   
     4    4    5 1    
     5    5    6 1    
     6    5    8 1    
     7    6    7 2    
     8    6   22 1    
     9    7   26 1    
    10    8    9 1    
    11    9   10 1    
    12   10   11 ar   
    13   10   21 ar   
    14   11   12 ar   
    15   12   13 ar   
    16   12   19 1    
    17   13   14 ar   
    18   13   17 1    
    19   14   15 1    
    20   14   21 ar   
    21   15   16 1    
    22   17   18 1    
    23   19   20 1    
    24   21   22 1    
    25   22   23 2    
    26   23   24 1    
    27   24   25 2    
    28   25   26 1    
    29   25   28 1    
    30   26   27 2    
    31   28   29 1    
@<TRIPOS>SUBSTRUCTURE
     1 LOC201      1 GROUP   
@<TRIPOS>SET

