#    Name: 6n47_1_GTP
#    Modification time : Fri May 22 19:26:25 2020

@<TRIPOS>MOLECULE
6n47_1_GTP
   32    34     1     0     1
SMALL
NO_CHARGES


@<TRIPOS>ATOM
      1 PG         27.1460   73.7960   46.1160 P.3       1 GTP501      0.0000 
      2 O1G        26.0090   74.3220   45.2820 O.co2     1 GTP501      0.0000 
      3 O2G        28.4930   73.9740   45.4440 O.co2     1 GTP501      0.0000 
      4 O3G        26.9440   72.4040   46.7070 O.co2     1 GTP501      0.0000 
      5 O3B        27.2110   74.6340   47.5110 O.3       1 GTP501      0.0000 
      6 PB         26.4620   75.8810   48.1650 P.3       1 GTP501      0.0000 
      7 O1B        26.0410   76.9230   47.1650 O.co2     1 GTP501      0.0000 
      8 O2B        27.3000   76.2690   49.3250 O.co2     1 GTP501      0.0000 
      9 O3A        25.1510   75.1780   48.7330 O.3       1 GTP501      0.0000 
     10 PA         23.9080   75.8370   49.5120 P.3       1 GTP501      0.0000 
     11 O1A        22.8020   76.0100   48.5220 O.co2     1 GTP501      0.0000 
     12 O2A        24.4090   77.0300   50.2550 O.co2     1 GTP501      0.0000 
     13 O5'        23.5920   74.6410   50.5320 O.3       1 GTP501      0.0000 
     14 C5'        22.3280   73.9580   50.6060 C.3       1 GTP501      0.0000 
     15 C4'        21.7790   74.1390   52.0010 C.3       1 GTP501      0.0000 
     16 O4'        21.7540   75.5650   52.2770 O.3       1 GTP501      0.0000 
     17 C3'        20.3460   73.6420   52.2610 C.3       1 GTP501      0.0000 
     18 O3'        20.1740   73.2130   53.6100 O.3       1 GTP501      0.0000 
     19 C2'        19.5200   74.8850   51.9160 C.3       1 GTP501      0.0000 
     20 O2'        18.2380   74.8680   52.5180 O.3       1 GTP501      0.0000 
     21 C1'        20.4290   75.9880   52.4570 C.3       1 GTP501      0.0000 
     22 N9         20.2800   77.2780   51.8030 N.pl3     1 GTP501      0.0000 
     23 C8         20.5430   77.6180   50.5010 C.2       1 GTP501      0.0000 
     24 N7         20.2720   78.8750   50.2330 N.2       1 GTP501      0.0000 
     25 C5         19.7970   79.3840   51.4370 C.2       1 GTP501      0.0000 
     26 C6         19.3350   80.6830   51.7630 C.2       1 GTP501      0.0000 
     27 O6         19.2540   81.6650   51.0130 O.2       1 GTP501      0.0000 
     28 N1         18.9190   80.7600   53.0990 N.am      1 GTP501      0.0000 
     29 C2         18.9610   79.7250   54.0090 C.2       1 GTP501      0.0000 
     30 N2         18.5290   79.9870   55.2480 N.pl3     1 GTP501      0.0000 
     31 N3         19.3880   78.4990   53.7070 N.2       1 GTP501      0.0000 
     32 C4         19.7900   78.4070   52.4110 C.2       1 GTP501      0.0000 
@<TRIPOS>BOND
     1    1    2 ar   
     2    1    3 ar   
     3    1    4 ar   
     4    1    5 1    
     5    5    6 1    
     6    6    7 ar   
     7    6    8 ar   
     8    6    9 1    
     9    9   10 1    
    10   10   11 ar   
    11   10   12 ar   
    12   10   13 1    
    13   13   14 1    
    14   14   15 1    
    15   15   16 1    
    16   15   17 1    
    17   16   21 1    
    18   17   18 1    
    19   17   19 1    
    20   19   20 1    
    21   19   21 1    
    22   21   22 1    
    23   22   23 1    
    24   22   32 1    
    25   23   24 2    
    26   24   25 1    
    27   25   26 1    
    28   25   32 2    
    29   26   27 2    
    30   26   28 am   
    31   28   29 1    
    32   29   30 1    
    33   29   31 2    
    34   31   32 1    
@<TRIPOS>SUBSTRUCTURE
     1 GTP501      1 GROUP   
@<TRIPOS>SET
ATOM$ORANGE STATIC     ATOMS   COLORGROUP SYSTEM 
20 14 14 15 15 17 17 19 19 21 21 23 23 25 25 26 26 29 \
29 32 32 

