#    Name: 6n47_4_GTP
#    Modification time : Fri May 22 19:26:33 2020

@<TRIPOS>MOLECULE
6n47_4_GTP
   32    34     1     0     1
SMALL
NO_CHARGES


@<TRIPOS>ATOM
      1 PG         26.7680  -11.8520  -45.0430 P.3       1 GTP501      0.0000 
      2 O1G        26.0990  -12.8740  -45.9320 O.co2     1 GTP501      0.0000 
      3 O2G        27.2930  -12.4380  -43.7470 O.co2     1 GTP501      0.0000 
      4 O3G        27.7890  -11.0040  -45.7720 O.co2     1 GTP501      0.0000 
      5 O3B        25.5810  -10.8360  -44.6760 O.3       1 GTP501      0.0000 
      6 PB         25.1310  -10.1130  -43.3230 P.3       1 GTP501      0.0000 
      7 O1B        24.4490   -8.8620  -43.7440 O.co2     1 GTP501      0.0000 
      8 O2B        26.2590  -10.0830  -42.3420 O.co2     1 GTP501      0.0000 
      9 O3A        24.0820  -11.1720  -42.7550 O.3       1 GTP501      0.0000 
     10 PA         22.4940  -11.1760  -42.6610 P.3       1 GTP501      0.0000 
     11 O1A        21.9120  -11.9820  -43.7800 O.co2     1 GTP501      0.0000 
     12 O2A        22.0080   -9.7720  -42.5000 O.co2     1 GTP501      0.0000 
     13 O5'        22.4370  -11.9810  -41.2740 O.3       1 GTP501      0.0000 
     14 C5'        21.8270  -13.2910  -41.0760 C.3       1 GTP501      0.0000 
     15 C4'        20.7250  -13.1520  -40.0570 C.3       1 GTP501      0.0000 
     16 O4'        19.9760  -11.9670  -40.4140 O.3       1 GTP501      0.0000 
     17 C3'        19.6940  -14.2880  -39.9740 C.3       1 GTP501      0.0000 
     18 O3'        19.4870  -14.6960  -38.6290 O.3       1 GTP501      0.0000 
     19 C2'        18.4170  -13.6860  -40.5840 C.3       1 GTP501      0.0000 
     20 O2'        17.2400  -14.1710  -39.9800 O.3       1 GTP501      0.0000 
     21 C1'        18.5960  -12.2030  -40.2970 C.3       1 GTP501      0.0000 
     22 N9         17.9510  -11.2750  -41.2200 N.pl3     1 GTP501      0.0000 
     23 C8         18.3910  -10.9570  -42.4830 C.2       1 GTP501      0.0000 
     24 N7         17.6730  -10.0280  -43.0750 N.2       1 GTP501      0.0000 
     25 C5         16.7090   -9.7000  -42.1340 C.2       1 GTP501      0.0000 
     26 C6         15.6560   -8.7540  -42.2140 C.2       1 GTP501      0.0000 
     27 O6         15.3860   -7.9860  -43.1500 O.2       1 GTP501      0.0000 
     28 N1         14.9110   -8.7200  -41.0290 N.am      1 GTP501      0.0000 
     29 C2         15.1350   -9.5070  -39.9250 C.2       1 GTP501      0.0000 
     30 N2         14.2890   -9.3380  -38.9010 N.pl3     1 GTP501      0.0000 
     31 N3         16.1250  -10.4020  -39.8450 N.2       1 GTP501      0.0000 
     32 C4         16.8710  -10.4490  -40.9820 C.2       1 GTP501      0.0000 
@<TRIPOS>BOND
     1    1    2 ar   
     2    1    3 ar   
     3    1    4 ar   
     4    1    5 1    
     5    5    6 1    
     6    6    7 ar   
     7    6    8 ar   
     8    6    9 1    
     9    9   10 1    
    10   10   11 ar   
    11   10   12 ar   
    12   10   13 1    
    13   13   14 1    
    14   14   15 1    
    15   15   16 1    
    16   15   17 1    
    17   16   21 1    
    18   17   18 1    
    19   17   19 1    
    20   19   20 1    
    21   19   21 1    
    22   21   22 1    
    23   22   23 1    
    24   22   32 1    
    25   23   24 2    
    26   24   25 1    
    27   25   26 1    
    28   25   32 2    
    29   26   27 2    
    30   26   28 am   
    31   28   29 1    
    32   29   30 1    
    33   29   31 2    
    34   31   32 1    
@<TRIPOS>SUBSTRUCTURE
     1 GTP501      1 GROUP   
@<TRIPOS>SET
ATOM$ORANGE STATIC     ATOMS   COLORGROUP SYSTEM 
20 14 14 15 15 17 17 19 19 21 21 23 23 25 25 26 26 29 \
29 32 32 

