#    Name: 6n47_5_ACP_CAVITY_N1_8
#    Modification time : Fri May 22 19:26:43 2020

@<TRIPOS>MOLECULE
6n47_5_ACP_CAVITY_N1_8
  124     0     7     0     0
SMALL
NO_CHARGES


@<TRIPOS>ATOM
      1 OG          7.6300   49.0800  101.7300 O.3       1 SER1        0.0000 
      2 OG          6.2900   49.7300  101.5300 O.3       1 SER1        0.0000 
      3 OG          5.7600   49.2200  103.5300 O.3       1 SER1        0.0000 
      4 N          10.1900   44.9300   93.4500 N.am      2 ALA2        0.0000 
      5 N           8.8500   45.5700   93.2600 N.am      2 ALA2        0.0000 
      6 N          14.9600   50.8300   91.6900 N.am      2 ALA2        0.0000 
      7 O          11.6200   50.9500   91.9600 O.2       2 ALA2        0.0000 
      8 O           9.6200   50.4200   92.4300 O.2       2 ALA2        0.0000 
      9 O          10.3200   45.6000   94.7900 O.2       2 ALA2        0.0000 
     10 N          15.7700   49.6800   93.8800 N.am      2 ALA2        0.0000 
     11 N          14.4300   50.3300   93.6800 N.am      2 ALA2        0.0000 
     12 O          13.7900   46.1600   95.8500 O.2       2 ALA2        0.0000 
     13 O          12.4500   46.8000   95.6600 O.2       2 ALA2        0.0000 
     14 O          11.1100   47.4500   95.4600 O.2       2 ALA2        0.0000 
     15 N           9.7700   48.0900   95.2700 N.am      2 ALA2        0.0000 
     16 N           8.4300   48.7400   95.0800 N.am      2 ALA2        0.0000 
     17 N          15.9000   50.3600   95.2100 N.am      2 ALA2        0.0000 
     18 N          14.5600   51.0000   95.0200 N.am      2 ALA2        0.0000 
     19 N          16.5800   48.5400   96.0600 N.am      2 ALA2        0.0000 
     20 N          15.2400   49.1800   95.8700 N.am      2 ALA2        0.0000 
     21 N          15.9200   47.3600   96.7200 N.am      2 ALA2        0.0000 
     22 O          12.5800   47.4800   96.9900 O.2       2 ALA2        0.0000 
     23 O          11.2400   48.1200   96.8000 O.2       2 ALA2        0.0000 
     24 N           9.9000   48.7700   96.6000 N.am      2 ALA2        0.0000 
     25 N           8.5600   49.4100   96.4100 N.am      2 ALA2        0.0000 
     26 O          16.7100   49.2100   97.4000 O.2       2 ALA2        0.0000 
     27 N          15.3700   49.8600   97.2000 N.am      2 ALA2        0.0000 
     28 N          10.0300   49.4400   97.9400 N.am      2 ALA2        0.0000 
     29 N           8.6900   50.0800   97.7400 N.am      2 ALA2        0.0000 
     30 N           6.6900   49.5500   98.2100 N.am      2 ALA2        0.0000 
     31 N           8.1600   49.5800   99.7400 N.am      2 ALA2        0.0000 
     32 N           7.7600   49.7500  103.0600 N.am      2 ALA2        0.0000 
     33 N           7.1000   48.5800  103.7200 N.am      2 ALA2        0.0000 
     34 O          10.0100   54.6300  103.7600 O.2       2 ALA2        0.0000 
     35 N           9.4800   54.1200  105.7500 N.am      2 ALA2        0.0000 
     36 OD1         7.4900   49.2100   91.5600 O.co2     3 ASP3        0.0000 
     37 OD1         8.1700   47.3900   92.4100 O.co2     3 ASP3        0.0000 
     38 OD1         6.8300   48.0400   92.2100 O.co2     3 ASP3        0.0000 
     39 OD1         7.5100   46.2200   93.0700 O.co2     3 ASP3        0.0000 
     40 OD1         7.6200   49.8900   92.8900 O.co2     3 ASP3        0.0000 
     41 OD1         8.3000   48.0700   93.7400 O.co2     3 ASP3        0.0000 
     42 OD1         6.9600   48.7100   93.5500 O.co2     3 ASP3        0.0000 
     43 OD1         7.6400   46.8900   94.4000 O.co2     3 ASP3        0.0000 
     44 OD1        13.0900   50.9700   93.4900 O.co2     3 ASP3        0.0000 
     45 OD1         7.0900   49.3800   94.8800 O.co2     3 ASP3        0.0000 
     46 OD1        13.9000   49.8300   95.6800 O.co2     3 ASP3        0.0000 
     47 OD1        12.5600   50.4700   95.4800 O.co2     3 ASP3        0.0000 
     48 OD1         6.5600   48.8800   96.8700 O.co2     3 ASP3        0.0000 
     49 OD1        14.0300   50.5000   97.0100 O.co2     3 ASP3        0.0000 
     50 OD1        12.0300   49.9700   97.4700 O.co2     3 ASP3        0.0000 
     51 OD1        10.6900   50.6200   97.2800 O.co2     3 ASP3        0.0000 
     52 OD1        12.7100   48.1500   98.3300 O.co2     3 ASP3        0.0000 
     53 OD1        11.3700   48.7900   98.1300 O.co2     3 ASP3        0.0000 
     54 OD1        10.8200   51.2900   98.6100 O.co2     3 ASP3        0.0000 
     55 OD1         9.5000   48.9400   99.9300 O.co2     3 ASP3        0.0000 
     56 OD1         8.2900   50.2600  101.0700 O.co2     3 ASP3        0.0000 
     57 OD1         9.7600   50.2800  102.6000 O.co2     3 ASP3        0.0000 
     58 OD1         8.4200   50.9300  102.4000 O.co2     3 ASP3        0.0000 
     59 OD1         7.8900   50.4300  104.4000 O.co2     3 ASP3        0.0000 
     60 OD1         8.0200   51.1000  105.7300 O.co2     3 ASP3        0.0000 
     61 NZ         10.9600   49.7700   92.6200 N.4       4 LYS4        0.0000 
     62 NZ          8.9600   49.2400   93.0800 N.4       4 LYS4        0.0000 
     63 NZ         16.4500   47.8600   94.7300 N.4       4 LYS4        0.0000 
     64 NZ         15.1100   48.5100   94.5400 N.4       4 LYS4        0.0000 
     65 NZ         11.0900   50.4400   93.9500 N.4       4 LYS4        0.0000 
     66 NZ         14.4500   47.3300   95.1900 N.4       4 LYS4        0.0000 
     67 NZ         10.4300   49.2700   94.6100 N.4       4 LYS4        0.0000 
     68 NZ          9.0900   49.9100   94.4200 N.4       4 LYS4        0.0000 
     69 NZ          7.7500   50.5600   94.2200 N.4       4 LYS4        0.0000 
     70 NZ         11.2200   51.1200   95.2900 N.4       4 LYS4        0.0000 
     71 NZ         10.5600   49.9400   95.9500 N.4       4 LYS4        0.0000 
     72 NZ          9.2200   50.5900   95.7500 N.4       4 LYS4        0.0000 
     73 NZ          7.8800   51.2300   95.5600 N.4       4 LYS4        0.0000 
     74 NZ          7.2200   50.0600   96.2200 N.4       4 LYS4        0.0000 
     75 NZ          9.3500   51.2600   97.0900 N.4       4 LYS4        0.0000 
     76 NZ          8.0100   51.9000   96.8900 N.4       4 LYS4        0.0000 
     77 NZ          7.3500   50.7300   97.5500 N.4       4 LYS4        0.0000 
     78 NZ          6.0100   51.3700   97.3600 N.4       4 LYS4        0.0000 
     79 NZ          5.4800   50.8700   99.3500 N.4       4 LYS4        0.0000 
     80 CZ         10.0300   51.6300  105.2700 C.ar      5 PHE5        0.0000 
     81 CZ          8.6900   52.2800  105.0700 C.ar      5 PHE5        0.0000 
     82 CZ          8.8200   52.9500  106.4100 C.ar      5 PHE5        0.0000 
     83 CA          8.9800   46.2500   94.5900 C.3       6 GLY6        0.0000 
     84 CA         15.0900   51.5000   93.0300 C.3       6 GLY6        0.0000 
     85 CA         17.2400   49.7100   95.4100 C.3       6 GLY6        0.0000 
     86 CA         14.5800   48.0100   96.5300 C.3       6 GLY6        0.0000 
     87 CA         13.9200   46.8300   97.1900 C.3       6 GLY6        0.0000 
     88 CA         16.0500   48.0400   98.0600 C.3       6 GLY6        0.0000 
     89 CA         14.7100   48.6800   97.8600 C.3       6 GLY6        0.0000 
     90 CA         13.3700   49.3300   97.6700 C.3       6 GLY6        0.0000 
     91 CA          9.4800   51.9300   98.4200 C.3       6 GLY6        0.0000 
     92 CA          8.8200   50.7600   99.0800 C.3       6 GLY6        0.0000 
     93 CA          7.4800   51.4000   98.8800 C.3       6 GLY6        0.0000 
     94 CA          6.1400   52.0500   98.6900 C.3       6 GLY6        0.0000 
     95 CA          8.9500   51.4300  100.4100 C.3       6 GLY6        0.0000 
     96 CA          6.9500   50.9000  100.8800 C.3       6 GLY6        0.0000 
     97 CA          5.6100   51.5500  100.6800 C.3       6 GLY6        0.0000 
     98 CA          8.9700   48.4400  101.9200 C.3       6 GLY6        0.0000 
     99 CA          9.0800   52.1000  101.7500 C.3       6 GLY6        0.0000 
    100 CA          7.0800   51.5700  102.2100 C.3       6 GLY6        0.0000 
    101 CA          9.1000   49.1100  103.2600 C.3       6 GLY6        0.0000 
    102 CA          6.4200   50.4000  102.8700 C.3       6 GLY6        0.0000 
    103 CA         10.5600   52.1300  103.2700 C.3       6 GLY6        0.0000 
    104 CA          9.2100   52.7800  103.0800 C.3       6 GLY6        0.0000 
    105 CA          9.8900   50.9600  103.9300 C.3       6 GLY6        0.0000 
    106 CA          7.2100   52.2500  103.5400 C.3       6 GLY6        0.0000 
    107 CA          6.5500   51.0700  104.2000 C.3       6 GLY6        0.0000 
    108 CA          9.3500   53.4500  104.4100 C.3       6 GLY6        0.0000 
    109 CA          7.3400   52.9200  104.8800 C.3       6 GLY6        0.0000 
    110 CA          6.6800   51.7500  105.5400 C.3       6 GLY6        0.0000 
    111 CA          7.4800   53.5900  106.2100 C.3       6 GLY6        0.0000 
    112 DU          9.5100   46.7500   92.6000 H         7 CUB7        0.0000 
    113 DU         10.3000   48.6000   93.2800 H         7 CUB7        0.0000 
    114 DU         12.3200   46.1300   94.3200 H         7 CUB7        0.0000 
    115 DU         10.9800   46.7800   94.1300 H         7 CUB7        0.0000 
    116 DU          9.6400   47.4200   93.9400 H         7 CUB7        0.0000 
    117 DU         13.7700   49.1500   94.3400 H         7 CUB7        0.0000 
    118 DU         12.4300   49.8000   94.1500 H         7 CUB7        0.0000 
    119 DU         13.1100   47.9800   95.0000 H         7 CUB7        0.0000 
    120 DU         11.7700   48.6200   94.8100 H         7 CUB7        0.0000 
    121 DU         13.2400   48.6500   96.3300 H         7 CUB7        0.0000 
    122 DU         11.9000   49.3000   96.1400 H         7 CUB7        0.0000 
    123 DU          6.8200   50.2300   99.5400 H         7 CUB7        0.0000 
    124 DU          8.5500   51.6000  103.7400 H         7 CUB7        0.0000 
@<TRIPOS>BOND
@<TRIPOS>SUBSTRUCTURE
     1 SER1        1 GROUP   
     2 ALA2        4 GROUP   
     3 ASP3       36 GROUP   
     4 LYS4       61 GROUP   
     5 PHE5       80 GROUP   
     6 GLY6       83 GROUP   
     7 CUB7      112 GROUP   
@<TRIPOS>SET

