#    Name: 6n47_1_GTP_CAVITY_N1_6
#    Modification time : Fri May 22 19:26:28 2020

@<TRIPOS>MOLECULE
6n47_1_GTP_CAVITY_N1_6
   73     0     7     0     0
SMALL
NO_CHARGES


@<TRIPOS>ATOM
      1 OG         16.2500   75.0400   47.3000 O.3       1 SER1        0.0000 
      2 OG         24.5300   75.5200   49.6300 O.3       1 SER1        0.0000 
      3 OG         19.8500   76.2800   49.7000 O.3       1 SER1        0.0000 
      4 OG         22.6600   75.6600   51.4200 O.3       1 SER1        0.0000 
      5 OG         19.9800   76.9500   51.0400 O.3       1 SER1        0.0000 
      6 OG         20.6600   75.1300   51.8900 O.3       1 SER1        0.0000 
      7 OG         19.3200   75.7700   51.6900 O.3       1 SER1        0.0000 
      8 N          21.8600   74.6100   41.9100 N.am      2 ALA2        0.0000 
      9 O          20.6500   75.9300   43.0500 O.2       2 ALA2        0.0000 
     10 O          19.9900   74.7600   43.7100 O.2       2 ALA2        0.0000 
     11 O          19.4400   77.2500   44.1900 O.2       2 ALA2        0.0000 
     12 O          20.1200   75.4300   45.0400 O.2       2 ALA2        0.0000 
     13 N          18.7800   76.0800   44.8500 N.am      2 ALA2        0.0000 
     14 N          18.1200   74.9000   45.5100 N.am      2 ALA2        0.0000 
     15 O          18.8900   79.7400   44.6700 O.2       2 ALA2        0.0000 
     16 N          18.2300   78.5700   45.3300 N.am      2 ALA2        0.0000 
     17 N          20.2500   76.1000   46.3800 N.am      2 ALA2        0.0000 
     18 N          17.5700   77.3900   45.9900 N.am      2 ALA2        0.0000 
     19 N          16.9100   76.2200   46.6500 N.am      2 ALA2        0.0000 
     20 N          15.5900   73.8700   47.9600 N.am      2 ALA2        0.0000 
     21 N          14.9300   72.6900   48.6200 N.am      2 ALA2        0.0000 
     22 N          17.6800   81.0600   45.8100 N.am      2 ALA2        0.0000 
     23 N          21.7200   76.1300   47.9000 N.am      2 ALA2        0.0000 
     24 N          14.3800   75.1900   49.1000 N.am      2 ALA2        0.0000 
     25 N          17.1300   83.5600   46.2900 N.am      2 ALA2        0.0000 
     26 O          16.4700   82.3800   46.9500 O.2       2 ALA2        0.0000 
     27 N          21.8500   76.8100   49.2400 N.am      2 ALA2        0.0000 
     28 O          23.2100   73.1700   50.9400 O.2       2 ALA2        0.0000 
     29 N          20.6400   78.1200   50.3800 N.am      2 ALA2        0.0000 
     30 O          20.0900   80.6200   50.8600 O.2       2 ALA2        0.0000 
     31 O          20.7900   75.8000   53.2200 O.2       2 ALA2        0.0000 
     32 O          19.4500   76.4500   53.0300 O.2       2 ALA2        0.0000 
     33 O          20.1300   74.6300   53.8800 O.2       2 ALA2        0.0000 
     34 O          20.2400   78.2900   53.7000 O.2       2 ALA2        0.0000 
     35 O          18.9000   78.9400   53.5100 O.2       2 ALA2        0.0000 
     36 OD1        21.9900   75.2900   43.2400 O.co2     3 ASP3        0.0000 
     37 OD1        21.3300   74.1100   43.9000 O.co2     3 ASP3        0.0000 
     38 OD1        21.4600   74.7900   45.2400 O.co2     3 ASP3        0.0000 
     39 NZ         21.8700   73.8100   50.7500 N.4       4 LYS4        0.0000 
     40 NZ         19.8700   73.2800   51.2100 N.4       4 LYS4        0.0000 
     41 NZ         21.3400   73.3100   52.7400 N.4       4 LYS4        0.0000 
     42 NZ         20.0000   73.9500   52.5500 N.4       4 LYS4        0.0000 
     43 CZ         15.0400   76.3600   48.4400 C.ar      5 PHE5        0.0000 
     44 CZ         13.8300   77.6800   49.5800 C.ar      5 PHE5        0.0000 
     45 CZ         19.4300   79.4400   51.5200 C.ar      5 PHE5        0.0000 
     46 CZ         19.5600   80.1100   52.8500 C.ar      5 PHE5        0.0000 
     47 CA         19.3300   73.5800   44.3700 C.3       6 GLY6        0.0000 
     48 CA         19.4600   74.2600   45.7000 C.3       6 GLY6        0.0000 
     49 CA         22.2700   73.6400   47.4200 C.3       6 GLY6        0.0000 
     50 CA         18.2500   75.5700   46.8400 C.3       6 GLY6        0.0000 
     51 CA         17.5900   74.4000   47.5000 C.3       6 GLY6        0.0000 
     52 CA         24.4000   74.8400   48.2900 C.3       6 GLY6        0.0000 
     53 CA         23.0600   75.4900   48.1000 C.3       6 GLY6        0.0000 
     54 CA         23.7400   73.6700   48.9500 C.3       6 GLY6        0.0000 
     55 CA         22.4000   74.3100   48.7600 C.3       6 GLY6        0.0000 
     56 CA         21.0600   74.9600   48.5600 C.3       6 GLY6        0.0000 
     57 CA         19.7200   75.6000   48.3700 C.3       6 GLY6        0.0000 
     58 CA         23.1900   76.1600   49.4300 C.3       6 GLY6        0.0000 
     59 CA         23.8700   74.3400   50.2800 C.3       6 GLY6        0.0000 
     60 CA         21.1900   75.6300   49.9000 C.3       6 GLY6        0.0000 
     61 CA         20.5300   74.4500   50.5500 C.3       6 GLY6        0.0000 
     62 CA         13.1700   76.5000   50.2400 C.3       6 GLY6        0.0000 
     63 CA         23.3200   76.8300   50.7700 C.3       6 GLY6        0.0000 
     64 CA         21.9800   77.4800   50.5700 C.3       6 GLY6        0.0000 
     65 CA         21.3200   76.3000   51.2300 C.3       6 GLY6        0.0000 
     66 CA         22.0000   74.4800   52.0800 C.3       6 GLY6        0.0000 
     67 CA         20.7700   78.8000   51.7100 C.3       6 GLY6        0.0000 
     68 CA         21.4500   76.9800   52.5600 C.3       6 GLY6        0.0000 
     69 CA         20.1100   77.6200   52.3700 C.3       6 GLY6        0.0000 
     70 CA         22.1300   75.1600   53.4200 C.3       6 GLY6        0.0000 
     71 CA         20.9000   79.4700   53.0500 C.3       6 GLY6        0.0000 
     72 CA         21.5800   77.6500   53.9000 C.3       6 GLY6        0.0000 
     73 DU         22.5300   74.9900   50.0900 H         7 CUB7        0.0000 
@<TRIPOS>BOND
@<TRIPOS>SUBSTRUCTURE
     1 SER1        1 GROUP   
     2 ALA2        8 GROUP   
     3 ASP3       36 GROUP   
     4 LYS4       39 GROUP   
     5 PHE5       43 GROUP   
     6 GLY6       47 GROUP   
     7 CUB7       73 GROUP   
@<TRIPOS>SET

