#    Name: 6n47_5_ACP
#    Modification time : Fri May 22 19:26:41 2020

@<TRIPOS>MOLECULE
6n47_5_ACP
   31    33     1     0     1
SMALL
NO_CHARGES


@<TRIPOS>ATOM
      1 PG          8.1170   49.9700   94.0840 P.3       1 ACP401      0.0000 
      2 O1G         8.8520   50.7990   92.9010 O.co2     1 ACP401      0.0000 
      3 O2G         7.7220   50.8810   95.1970 O.co2     1 ACP401      0.0000 
      4 O3G         6.8010   49.1930   93.5780 O.co2     1 ACP401      0.0000 
      5 PB         10.5540   49.7550   95.5360 P.3       1 ACP401      0.0000 
      6 O1B        11.0070   51.0140   94.6140 O.co2     1 ACP401      0.0000 
      7 O2B        11.7420   48.9340   95.8400 O.co2     1 ACP401      0.0000 
      8 C3B         9.3400   48.7550   94.6500 C.3       1 ACP401      0.0000 
      9 PA         10.4690   51.1140   98.0610 P.3       1 ACP401      0.0000 
     10 O1A        11.9640   51.0950   97.8620 O.co2     1 ACP401      0.0000 
     11 O2A         9.8070   52.4480   98.2290 O.co2     1 ACP401      0.0000 
     12 O3A         9.7800   50.2710   96.8630 O.3       1 ACP401      0.0000 
     13 O5'        10.0140   50.1860   99.2940 O.3       1 ACP401      0.0000 
     14 C5'         8.6090   50.1120   99.5340 C.3       1 ACP401      0.0000 
     15 C4'         8.2020   49.1330  100.6290 C.3       1 ACP401      0.0000 
     16 O4'         9.1120   49.1540  101.7350 O.3       1 ACP401      0.0000 
     17 C3'         6.8220   49.5310  101.1440 C.3       1 ACP401      0.0000 
     18 O3'         5.7760   48.6780  100.6450 O.3       1 ACP401      0.0000 
     19 C2'         6.9670   49.4410  102.6360 C.3       1 ACP401      0.0000 
     20 O2'         6.5480   48.1400  103.0240 O.3       1 ACP401      0.0000 
     21 C1'         8.4430   49.5560  102.9310 C.3       1 ACP401      0.0000 
     22 N9          8.8570   50.9220  103.3250 N.pl3     1 ACP401      0.0000 
     23 C8          9.6710   51.7280  102.6150 C.2       1 ACP401      0.0000 
     24 N7          9.8950   52.9080  103.2390 N.2       1 ACP401      0.0000 
     25 C5          9.2070   52.8760  104.3840 C.ar      1 ACP401      0.0000 
     26 C6          9.0120   53.8100  105.5120 C.ar      1 ACP401      0.0000 
     27 N6          9.6090   55.0210  105.5110 N.pl3     1 ACP401      0.0000 
     28 N1          8.2190   53.4060  106.5300 N.ar      1 ACP401      0.0000 
     29 C2          7.6180   52.1950  106.5340 C.ar      1 ACP401      0.0000 
     30 N3          7.7500   51.2940  105.5350 N.ar      1 ACP401      0.0000 
     31 C4          8.5220   51.5680  104.4480 C.ar      1 ACP401      0.0000 
@<TRIPOS>BOND
     1    1    2 ar   
     2    1    3 ar   
     3    1    4 ar   
     4    1    8 1    
     5    5    6 ar   
     6    5    7 ar   
     7    5    8 1    
     8    5   12 1    
     9    9   10 ar   
    10    9   11 ar   
    11    9   12 1    
    12    9   13 1    
    13   13   14 1    
    14   14   15 1    
    15   15   16 1    
    16   15   17 1    
    17   16   21 1    
    18   17   18 1    
    19   17   19 1    
    20   19   20 1    
    21   19   21 1    
    22   21   22 1    
    23   22   23 1    
    24   22   31 1    
    25   23   24 2    
    26   24   25 1    
    27   25   26 ar   
    28   25   31 ar   
    29   26   27 1    
    30   26   28 ar   
    31   28   29 ar   
    32   29   30 ar   
    33   30   31 ar   
@<TRIPOS>SUBSTRUCTURE
     1 ACP401      1 GROUP   
@<TRIPOS>SET
ATOM$ORANGE STATIC     ATOMS   COLORGROUP SYSTEM 
22 8 8 14 14 15 15 17 17 19 19 21 21 23 23 25 25 26 \
26 29 29 31 31 

