#    Name: 6n47_4_GTP_CAVITY_N1_6
#    Modification time : Fri May 22 19:26:35 2020

@<TRIPOS>MOLECULE
6n47_4_GTP_CAVITY_N1_6
   98     0     7     0     0
SMALL
NO_CHARGES


@<TRIPOS>ATOM
      1 OG         19.9000  -14.7100  -44.3800 O.3       1 SER1        0.0000 
      2 OG         18.5600  -14.0600  -44.5700 O.3       1 SER1        0.0000 
      3 OG         20.5800  -16.5300  -43.5300 O.3       1 SER1        0.0000 
      4 OG         19.2400  -15.8800  -43.7200 O.3       1 SER1        0.0000 
      5 OG         20.0300  -14.0400  -43.0500 O.3       1 SER1        0.0000 
      6 OG         18.6900  -13.3900  -43.2400 O.3       1 SER1        0.0000 
      7 OG         19.3700  -15.2100  -42.3900 O.3       1 SER1        0.0000 
      8 OG         18.8200  -12.7200  -41.9100 O.3       1 SER1        0.0000 
      9 OG         18.1600  -13.8900  -41.2500 O.3       1 SER1        0.0000 
     10 OG         23.6200   -9.8100  -42.1600 O.3       1 SER1        0.0000 
     11 OG         22.9500  -10.9800  -41.5000 O.3       1 SER1        0.0000 
     12 OG         21.6100  -10.3400  -41.6900 O.3       1 SER1        0.0000 
     13 OG         22.2900  -12.1600  -40.8400 O.3       1 SER1        0.0000 
     14 OG         20.9500  -11.5100  -41.0300 O.3       1 SER1        0.0000 
     15 OG         20.2900  -12.6900  -40.3800 O.3       1 SER1        0.0000 
     16 OG         18.9700  -15.0400  -39.0600 O.3       1 SER1        0.0000 
     17 O          28.9800  -14.5800  -48.7100 O.2       2 ALA2        0.0000 
     18 O          27.6400  -13.9300  -48.9000 O.2       2 ALA2        0.0000 
     19 O          28.4300  -12.0900  -48.2300 O.2       2 ALA2        0.0000 
     20 O          27.7700  -13.2600  -47.5700 O.2       2 ALA2        0.0000 
     21 N          25.7700  -13.7900  -47.1000 N.am      2 ALA2        0.0000 
     22 N          22.4300  -13.6800  -46.8300 N.am      2 ALA2        0.0000 
     23 O          28.5600  -11.4100  -46.8900 O.2       2 ALA2        0.0000 
     24 O          27.9000  -12.5900  -46.2300 O.2       2 ALA2        0.0000 
     25 N          22.5600  -13.0000  -45.5000 N.am      2 ALA2        0.0000 
     26 O          21.9000  -14.1800  -44.8400 O.2       2 ALA2        0.0000 
     27 N          20.5600  -13.5300  -45.0400 N.am      2 ALA2        0.0000 
     28 O          21.2400  -15.3500  -44.1900 O.2       2 ALA2        0.0000 
     29 N          24.0300  -12.9800  -43.9700 N.am      2 ALA2        0.0000 
     30 N          22.6900  -12.3300  -44.1700 N.am      2 ALA2        0.0000 
     31 N          21.3500  -11.6900  -44.3600 N.am      2 ALA2        0.0000 
     32 O          17.3300   -9.7500  -44.9400 O.2       2 ALA2        0.0000 
     33 O          22.0300  -13.5100  -43.5100 O.2       2 ALA2        0.0000 
     34 N          20.6900  -12.8600  -43.7000 N.am      2 ALA2        0.0000 
     35 O          19.3500  -12.2200  -43.9000 O.2       2 ALA2        0.0000 
     36 O          18.0100  -11.5700  -44.0900 O.2       2 ALA2        0.0000 
     37 O          21.3700  -14.6800  -42.8500 O.2       2 ALA2        0.0000 
     38 O          24.1400   -9.3100  -44.1500 O.2       2 ALA2        0.0000 
     39 O          20.1400  -10.3700  -43.2200 O.2       2 ALA2        0.0000 
     40 O          18.8000   -9.7200  -43.4100 O.2       2 ALA2        0.0000 
     41 O          16.1200   -8.4300  -43.8000 O.2       2 ALA2        0.0000 
     42 O          24.2800   -8.6300  -42.8100 O.2       2 ALA2        0.0000 
     43 O          22.2700   -9.1600  -42.3500 O.2       2 ALA2        0.0000 
     44 N          16.9300   -9.5800  -41.6200 N.am      2 ALA2        0.0000 
     45 N          15.5900   -8.9300  -41.8100 N.am      2 ALA2        0.0000 
     46 O          21.6300  -13.3300  -40.1800 O.2       2 ALA2        0.0000 
     47 O          18.2900  -13.2200  -39.9100 O.2       2 ALA2        0.0000 
     48 O          16.9500  -12.5700  -40.1100 O.2       2 ALA2        0.0000 
     49 O          17.6300  -14.3900  -39.2600 O.2       2 ALA2        0.0000 
     50 N          15.7200   -8.2600  -40.4800 N.am      2 ALA2        0.0000 
     51 O          21.7600  -12.6600  -38.8500 O.2       2 ALA2        0.0000 
     52 O          17.7400  -10.7300  -39.4300 O.2       2 ALA2        0.0000 
     53 O          16.4000  -10.0800  -39.6200 O.2       2 ALA2        0.0000 
     54 N          15.0600   -9.4400  -39.8200 N.am      2 ALA2        0.0000 
     55 O          19.7600  -13.1900  -38.3900 O.2       2 ALA2        0.0000 
     56 OD1        26.4300  -12.6200  -47.7600 O.co2     3 ASP3        0.0000 
     57 OD1        24.4300  -13.1500  -47.3000 O.co2     3 ASP3        0.0000 
     58 OD1        27.2200  -10.7700  -47.0900 O.co2     3 ASP3        0.0000 
     59 OD1        26.5600  -11.9400  -46.4300 O.co2     3 ASP3        0.0000 
     60 OD1        26.6900  -11.2700  -45.0900 O.co2     3 ASP3        0.0000 
     61 OD1        24.6900  -11.8000  -44.6300 O.co2     3 ASP3        0.0000 
     62 OD1        24.8200  -11.1300  -43.3000 O.co2     3 ASP3        0.0000 
     63 OD1        23.4800  -10.4800  -43.4900 O.co2     3 ASP3        0.0000 
     64 NZ         28.3000  -12.7600  -49.5600 N.4       4 LYS4        0.0000 
     65 NZ         26.3000  -13.2900  -49.1000 N.4       4 LYS4        0.0000 
     66 NZ         20.7100  -15.8600  -42.1900 N.4       4 LYS4        0.0000 
     67 NZ         21.5000  -14.0100  -41.5200 N.4       4 LYS4        0.0000 
     68 NZ         19.5000  -14.5400  -41.0500 N.4       4 LYS4        0.0000 
     69 NZ         20.9700  -14.5100  -39.5300 N.4       4 LYS4        0.0000 
     70 NZ         19.6300  -13.8600  -39.7200 N.4       4 LYS4        0.0000 
     71 CZ         16.6700  -10.9300  -44.2800 C.ar      5 PHE5        0.0000 
     72 CZ         16.8000  -10.2500  -42.9500 C.ar      5 PHE5        0.0000 
     73 CZ         15.4600   -9.6100  -43.1400 C.ar      5 PHE5        0.0000 
     74 CZ         17.4800  -12.0700  -42.1000 C.ar      5 PHE5        0.0000 
     75 CZ         17.6100  -11.4000  -40.7600 C.ar      5 PHE5        0.0000 
     76 CZ         16.2700  -10.7500  -40.9600 C.ar      5 PHE5        0.0000 
     77 CZ         14.9300  -10.1100  -41.1500 C.ar      5 PHE5        0.0000 
     78 CA         29.6400  -13.4000  -49.3700 C.3       6 GLY6        0.0000 
     79 CA         25.4900   -9.9500  -43.9500 C.3       6 GLY6        0.0000 
     80 CA         22.1400   -9.8400  -43.6800 C.3       6 GLY6        0.0000 
     81 CA         24.1600  -12.3000  -42.6400 C.3       6 GLY6        0.0000 
     82 CA         22.8200  -11.6600  -42.8300 C.3       6 GLY6        0.0000 
     83 CA         21.4800  -11.0100  -43.0300 C.3       6 GLY6        0.0000 
     84 CA         17.4600   -9.0800  -43.6100 C.3       6 GLY6        0.0000 
     85 CA         22.1600  -12.8300  -42.1700 C.3       6 GLY6        0.0000 
     86 CA         19.4800  -11.5400  -42.5600 C.3       6 GLY6        0.0000 
     87 CA         18.1400  -10.9000  -42.7600 C.3       6 GLY6        0.0000 
     88 CA         25.6200   -9.2800  -42.6200 C.3       6 GLY6        0.0000 
     89 CA         24.9600  -10.4500  -41.9600 C.3       6 GLY6        0.0000 
     90 CA         19.6100  -10.8700  -41.2300 C.3       6 GLY6        0.0000 
     91 CA         18.2700  -10.2200  -41.4200 C.3       6 GLY6        0.0000 
     92 CA         20.4200  -12.0200  -39.0400 C.3       6 GLY6        0.0000 
     93 CA         19.0800  -11.3700  -39.2400 C.3       6 GLY6        0.0000 
     94 CA         21.1000  -13.8400  -38.1900 C.3       6 GLY6        0.0000 
     95 CA         19.1000  -14.3700  -37.7300 C.3       6 GLY6        0.0000 
     96 DU         20.8200  -12.1900  -42.3700 H         7 CUB7        0.0000 
     97 DU         20.1600  -13.3600  -41.7100 H         7 CUB7        0.0000 
     98 DU         18.9500  -12.0400  -40.5700 H         7 CUB7        0.0000 
@<TRIPOS>BOND
@<TRIPOS>SUBSTRUCTURE
     1 SER1        1 GROUP   
     2 ALA2       17 GROUP   
     3 ASP3       56 GROUP   
     4 LYS4       64 GROUP   
     5 PHE5       71 GROUP   
     6 GLY6       78 GROUP   
     7 CUB7       96 GROUP   
@<TRIPOS>SET

