#    Name: 5zsf_2_6T0
#    Modification time : Fri May 22 19:30:07 2020

@<TRIPOS>MOLECULE
5zsf_2_6T0
   18    20     1     0     0
SMALL
NO_CHARGES


@<TRIPOS>ATOM
      1 C9        -11.7940  -26.5140  -12.6260           1 6T0913      0.0000 
      2 C10       -13.0850  -26.9480  -12.0310           1 6T0913      0.0000 
      3 C2        -13.7760  -29.9320  -14.2700           1 6T0913      0.0000 
      4 C3        -13.2100  -28.8060  -13.6630           1 6T0913      0.0000 
      5 C4        -11.9080  -28.2960  -14.1990           1 6T0913      0.0000 
      6 C5        -11.3180  -28.9530  -15.2770           1 6T0913      0.0000 
      7 C6        -11.9380  -30.0810  -15.8430           1 6T0913      0.0000 
      8 C7        -13.1440  -30.5680  -15.3410           1 6T0913      0.0000 
      9 C8        -16.7170  -31.5090  -11.0310           1 6T0913      0.0000 
     10 C1        -14.6210  -30.5620  -10.1110           1 6T0913      0.0000 
     11 N8        -11.2860  -27.2040  -13.6710           1 6T0913      0.0000 
     12 C11       -13.7710  -28.1250  -12.5780           1 6T0913      0.0000 
     13 N12       -13.8560  -26.5050  -11.0220           1 6T0913      0.0000 
     14 C13       -14.9360  -27.3090  -10.9290           1 6T0913      0.0000 
     15 N14       -14.8990  -28.2850  -11.8550           1 6T0913      0.0000 
     16 N15       -11.1470  -25.4380  -12.1090           1 6T0913      0.0000 
     17 C19       -15.9580  -29.2980  -11.9390           1 6T0913      0.0000 
     18 C20       -15.5030  -30.6450  -11.3550           1 6T0913      0.0000 
@<TRIPOS>BOND
     1    1    2 du   
     2    1   11 du   
     3    1   16 du   
     4    2   12 du   
     5    2   13 du   
     6    3    4 du   
     7    3    8 du   
     8    4    5 du   
     9    4   12 du   
    10    5    6 du   
    11    5   11 du   
    12    6    7 du   
    13    7    8 du   
    14    9   18 du   
    15   10   18 du   
    16   12   15 du   
    17   13   14 du   
    18   14   15 du   
    19   15   17 du   
    20   17   18 du   
@<TRIPOS>SUBSTRUCTURE
     1 6T0913      1 GROUP   
@<TRIPOS>SET

