#    Name: 6maz_6_646
#    Modification time : Fri May 22 19:32:39 2020

@<TRIPOS>MOLECULE
6maz_6_646
   32    35     1     0     0
SMALL
NO_CHARGES


@<TRIPOS>ATOM
      1 CAA        -0.3380  -72.7840    4.7520 C.3       1 646502      0.0000 
      2 CAB         4.7480  -72.2780    4.3150 C.3       1 646502      0.0000 
      3 CAC         3.8720  -75.0880    3.7590 C.3       1 646502      0.0000 
      4 OAD         2.0630  -68.0960    4.5760 O.2       1 646502      0.0000 
      5 OAE         0.5650  -69.6430    3.0120 O.2       1 646502      0.0000 
      6 CLF         1.6890  -71.0090    0.8090 Cl        1 646502      0.0000 
      7 CLG         4.9880  -68.4760    4.6280 Cl        1 646502      0.0000 
      8 CAH         9.0950  -70.6570   -0.1070 C.ar      1 646502      0.0000 
      9 CAI         8.0490  -70.3380    0.7320 C.ar      1 646502      0.0000 
     10 CAJ         4.3320  -70.5670    0.6660 C.ar      1 646502      0.0000 
     11 CAK         5.7280  -69.5060    2.2670 C.ar      1 646502      0.0000 
     12 CAL         6.5880  -70.7840   -1.1280 C.ar      1 646502      0.0000 
     13 CAM         8.8480  -72.1360   -5.2680 C.3       1 646502      0.0000 
     14 CAN         6.5140  -71.4830   -5.4120 C.3       1 646502      0.0000 
     15 CAO         8.7280  -72.3160   -3.7510 C.3       1 646502      0.0000 
     16 CAP         6.3560  -71.6530   -3.8870 C.3       1 646502      0.0000 
     17 NAQ         8.9450  -71.0200   -1.3700 N.ar      1 646502      0.0000 
     18 NAR         1.5950  -74.1850    4.2040 N.2       1 646502      0.0000 
     19 NAS         7.5510  -72.3880   -5.9240 N.4       1 646502      0.0000 
     20 NAT         2.1440  -70.6800    4.9810 N.pl3     1 646502      0.0000 
     21 CAU         1.1210  -73.0090    4.5350 C.2       1 646502      0.0000 
     22 CAV         3.3300  -72.7440    4.3570 C.2       1 646502      0.0000 
     23 CAW         3.2490  -70.3590    1.4810 C.ar      1 646502      0.0000 
     24 CAX         4.6260  -69.3020    3.0670 C.ar      1 646502      0.0000 
     25 CAY         6.7660  -70.3910    0.1800 C.ar      1 646502      0.0000 
     26 CAZ         5.5880  -70.1200    1.0400 C.ar      1 646502      0.0000 
     27 CBA         7.7230  -71.0880   -1.9100 C.ar      1 646502      0.0000 
     28 CBB         2.1760  -72.0550    4.6370 C.2       1 646502      0.0000 
     29 CBC         3.3640  -69.7280    2.7090 C.ar      1 646502      0.0000 
     30 NBD         7.6480  -71.4690   -3.2100 N.3       1 646502      0.0000 
     31 NBE         2.9810  -73.9920    4.0970 N.pl3     1 646502      0.0000 
     32 SBF         1.9080  -69.4580    3.8040 S.o2      1 646502      0.0000 
@<TRIPOS>BOND
     1    1   21 1    
     2    2   22 1    
     3    3   31 1    
     4    4   32 2    
     5    5   32 2    
     6    6   23 1    
     7    7   24 1    
     8    8    9 ar   
     9    8   17 ar   
    10    9   25 ar   
    11   10   23 ar   
    12   10   26 ar   
    13   11   24 ar   
    14   11   26 ar   
    15   12   25 ar   
    16   12   27 ar   
    17   13   15 1    
    18   13   19 1    
    19   14   16 1    
    20   14   19 1    
    21   15   30 1    
    22   16   30 1    
    23   17   27 ar   
    24   18   21 2    
    25   18   31 1    
    26   20   28 1    
    27   20   32 1    
    28   21   28 1    
    29   22   28 2    
    30   22   31 1    
    31   23   29 ar   
    32   24   29 ar   
    33   25   26 1    
    34   27   30 1    
    35   29   32 1    
@<TRIPOS>SUBSTRUCTURE
     1 646502      1 GROUP   
@<TRIPOS>SET

