#    Name: 6maz_3_646
#    Modification time : Fri May 22 19:32:19 2020

@<TRIPOS>MOLECULE
6maz_3_646
   32    35     1     0     0
SMALL
NO_CHARGES


@<TRIPOS>ATOM
      1 CAA        18.6150  -32.7310  -60.3240 C.3       1 646501      0.0000 
      2 CAB        13.5710  -33.2070  -59.5700 C.3       1 646501      0.0000 
      3 CAC        14.5160  -34.8850  -61.9010 C.3       1 646501      0.0000 
      4 OAD        16.3280  -30.8850  -55.9910 O.2       1 646501      0.0000 
      5 OAE        17.8130  -32.9790  -56.6910 O.2       1 646501      0.0000 
      6 CLF        13.4220  -30.9970  -56.5340 Cl        1 646501      0.0000 
      7 CLG        16.6810  -35.5550  -56.5850 Cl        1 646501      0.0000 
      8 CAH         9.2360  -36.1320  -55.9090 C.ar      1 646501      0.0000 
      9 CAI        10.2880  -35.2500  -56.0370 C.ar      1 646501      0.0000 
     10 CAJ        12.6310  -33.5470  -56.1930 C.ar      1 646501      0.0000 
     11 CAK        14.0180  -35.4730  -56.2150 C.ar      1 646501      0.0000 
     12 CAL        11.7350  -37.1320  -55.6790 C.ar      1 646501      0.0000 
     13 CAM         9.4520  -41.3610  -54.8330 C.3       1 646501      0.0000 
     14 CAN        11.8180  -41.2130  -54.2550 C.3       1 646501      0.0000 
     15 CAO         9.6000  -40.1740  -55.7930 C.3       1 646501      0.0000 
     16 CAP        11.9710  -40.0160  -55.2100 C.3       1 646501      0.0000 
     17 NAQ         9.3780  -37.4280  -55.6820 N.ar      1 646501      0.0000 
     18 NAR        16.7210  -33.9420  -61.3130 N.2       1 646501      0.0000 
     19 NAS        10.7240  -42.0950  -54.6790 N.4       1 646501      0.0000 
     20 NAT        16.1740  -31.7420  -58.4790 N.pl3     1 646501      0.0000 
     21 CAU        17.1710  -33.1100  -60.4080 C.2       1 646501      0.0000 
     22 CAV        14.9850  -33.2790  -60.0400 C.2       1 646501      0.0000 
     23 CAW        13.7450  -32.7770  -56.4040 C.ar      1 646501      0.0000 
     24 CAX        15.1180  -34.6730  -56.4360 C.ar      1 646501      0.0000 
     25 CAY        11.5680  -35.7830  -55.8870 C.ar      1 646501      0.0000 
     26 CAZ        12.7600  -34.9170  -56.0720 C.ar      1 646501      0.0000 
     27 CBA        10.6030  -37.9600  -55.5560 C.ar      1 646501      0.0000 
     28 CBB        16.1180  -32.6590  -59.5630 C.2       1 646501      0.0000 
     29 CBC        15.0140  -33.3090  -56.5390 C.ar      1 646501      0.0000 
     30 NBD        10.6920  -39.3010  -55.3300 N.3       1 646501      0.0000 
     31 NBE        15.3520  -34.0350  -61.0700 N.pl3     1 646501      0.0000 
     32 SBF        16.4520  -32.2010  -56.8450 S.o2      1 646501      0.0000 
@<TRIPOS>BOND
     1    1   21 1    
     2    2   22 1    
     3    3   31 1    
     4    4   32 2    
     5    5   32 2    
     6    6   23 1    
     7    7   24 1    
     8    8    9 ar   
     9    8   17 ar   
    10    9   25 ar   
    11   10   23 ar   
    12   10   26 ar   
    13   11   24 ar   
    14   11   26 ar   
    15   12   25 ar   
    16   12   27 ar   
    17   13   15 1    
    18   13   19 1    
    19   14   16 1    
    20   14   19 1    
    21   15   30 1    
    22   16   30 1    
    23   17   27 ar   
    24   18   21 2    
    25   18   31 1    
    26   20   28 1    
    27   20   32 1    
    28   21   28 1    
    29   22   28 2    
    30   22   31 1    
    31   23   29 ar   
    32   24   29 ar   
    33   25   26 1    
    34   27   30 1    
    35   29   32 1    
@<TRIPOS>SUBSTRUCTURE
     1 646501      1 GROUP   
@<TRIPOS>SET

