#    Name: 6maz_4_YNC
#    Modification time : Fri May 22 19:32:25 2020

@<TRIPOS>MOLECULE
6maz_4_YNC
   63    65     1     0     0
SMALL
NO_CHARGES


@<TRIPOS>ATOM
      1 C           1.6440  -38.1720  -54.9800 C.ar      1 YNC502      0.0000 
      2 N           2.8830  -38.0320  -55.4900 N.pl3     1 YNC502      0.0000 
      3 O          -3.0820  -34.5670  -53.4440 O.3       1 YNC502      0.0000 
      4 P          -6.3250  -34.6410  -52.8800 P.3       1 YNC502      0.0000 
      5 S           6.0030  -40.0930  -55.6160 S.3       1 YNC502      0.0000 
      6 C1          0.1210  -39.2780  -53.5490 C.ar      1 YNC502      0.0000 
      7 N1          1.3480  -39.1270  -54.0780 N.ar      1 YNC502      0.0000 
      8 O1         -5.5460  -35.6760  -53.8480 O.3       1 YNC502      0.0000 
      9 P1         -4.9610  -36.3080  -60.0150 P.3       1 YNC502      0.0000 
     10 C2         -0.7420  -37.4900  -54.7640 C.ar      1 YNC502      0.0000 
     11 N2         -0.9140  -38.4800  -53.8600 N.ar      1 YNC502      0.0000 
     12 O2         -6.7830  -35.4630  -51.7190 O.co2     1 YNC502      0.0000 
     13 P2         -2.3820  -35.7260  -61.1390 P.3       1 YNC502      0.0000 
     14 C3          0.5640  -37.2580  -55.3820 C.ar      1 YNC502      0.0000 
     15 N3          0.4330  -36.2160  -56.2270 N.2       1 YNC502      0.0000 
     16 O3         -5.3060  -33.5910  -52.5040 O.co2     1 YNC502      0.0000 
     17 C4         -0.8500  -35.7920  -56.1440 C.2       1 YNC502      0.0000 
     18 N4         -1.5390  -36.5590  -55.2690 N.pl3     1 YNC502      0.0000 
     19 O4         -7.4540  -34.0590  -53.7080 O.co2     1 YNC502      0.0000 
     20 C5         -2.9650  -36.4490  -54.9210 C.3       1 YNC502      0.0000 
     21 N5          3.4610  -36.4400  -61.7420 N.am      1 YNC502      0.0000 
     22 O5         -5.1160  -36.6170  -58.4560 O.3       1 YNC502      0.0000 
     23 C6         -3.4070  -35.0230  -54.7570 C.3       1 YNC502      0.0000 
     24 N6          5.1110  -39.0720  -59.4140 N.am      1 YNC502      0.0000 
     25 O6         -4.9550  -37.6050  -60.7540 O.co2     1 YNC502      0.0000 
     26 C7         -4.8890  -35.1650  -55.0130 C.3       1 YNC502      0.0000 
     27 O7         -3.5050  -35.6170  -60.0080 O.3       1 YNC502      0.0000 
     28 C8         -4.9590  -36.2260  -56.0960 C.3       1 YNC502      0.0000 
     29 O8         -1.4350  -34.5870  -60.8580 O.co2     1 YNC502      0.0000 
     30 C9         -5.0300  -35.5840  -57.4730 C.3       1 YNC502      0.0000 
     31 O9         -1.6440  -37.1020  -60.7350 O.3       1 YNC502      0.0000 
     32 C10        -0.6000  -37.0960  -59.7560 C.3       1 YNC502      0.0000 
     33 O10         5.5570  -42.4230  -56.6430 O.2       1 YNC502      0.0000 
     34 C11         0.6350  -37.7540  -60.3380 C.3       1 YNC502      0.0000 
     35 O11         5.5340  -36.8730  -59.3610 O.2       1 YNC502      0.0000 
     36 C12         1.7050  -37.7700  -59.2460 C.3       1 YNC502      0.0000 
     37 O12         2.6240  -38.2980  -62.7270 O.2       1 YNC502      0.0000 
     38 C13         0.3130  -39.1790  -60.7740 C.3       1 YNC502      0.0000 
     39 O13         1.1360  -35.5140  -61.1690 O.3       1 YNC502      0.0000 
     40 C14         1.1050  -36.9080  -61.5320 C.3       1 YNC502      0.0000 
     41 O14        -2.9910  -35.9090  -62.4990 O.co2     1 YNC502      0.0000 
     42 C15         2.4670  -37.2870  -62.0550 C.2       1 YNC502      0.0000 
     43 O15        -5.9660  -35.2430  -60.3800 O.co2     1 YNC502      0.0000 
     44 C16         4.8510  -36.6710  -62.1420 C.3       1 YNC502      0.0000 
     45 O16        -3.7350  -36.9670  -56.0060 O.3       1 YNC502      0.0000 
     46 C17         5.4740  -37.9290  -61.5160 C.3       1 YNC502      0.0000 
     47 C18         5.3670  -37.9030  -60.0020 C.2       1 YNC502      0.0000 
     48 C19         5.0020  -39.2030  -57.9740 C.3       1 YNC502      0.0000 
     49 C20         6.2760  -39.7570  -57.3430 C.3       1 YNC502      0.0000 
     50 C21         5.4760  -41.7080  -55.6350 C.2       1 YNC502      0.0000 
     51 C22         4.8500  -42.3060  -54.3960 C.3       1 YNC502      0.0000 
     52 C23         3.3380  -42.3980  -54.6200 C.3       1 YNC502      0.0000 
     53 C24         2.5970  -42.7680  -53.3370 C.3       1 YNC502      0.0000 
     54 C25         1.1030  -42.9190  -53.6230 C.3       1 YNC502      0.0000 
     55 C26         0.3050  -43.1130  -52.3350 C.3       1 YNC502      0.0000 
     56 C27         0.3950  -44.5630  -51.8460 C.3       1 YNC502      0.0000 
     57 C28        -0.4050  -44.7550  -50.5630 C.3       1 YNC502      0.0000 
     58 C29        -0.2770  -46.1930  -50.0510 C.3       1 YNC502      0.0000 
     59 C30        -1.1090  -47.1510  -50.8960 C.3       1 YNC502      0.0000 
     60 C31        -1.0030  -48.6110  -50.4290 C.3       1 YNC502      0.0000 
     61 C32        -1.6520  -48.8960  -49.0700 C.3       1 YNC502      0.0000 
     62 C33        -1.5720  -50.3900  -48.7380 C.1       1 YNC502      0.0000 
     63 C34        -2.0890  -50.7110  -47.3430 C.1       1 YNC502      0.0000 
@<TRIPOS>BOND
     1    1    2 1    
     2    1    7 ar   
     3    1   14 ar   
     4    3   23 1    
     5    4    8 1    
     6    4   12 ar   
     7    4   16 ar   
     8    4   19 ar   
     9    5   49 1    
    10    5   50 1    
    11    6    7 ar   
    12    6   11 ar   
    13    8   26 1    
    14    9   22 1    
    15    9   25 ar   
    16    9   27 1    
    17    9   43 ar   
    18   10   11 ar   
    19   10   14 ar   
    20   10   18 1    
    21   13   27 1    
    22   13   29 ar   
    23   13   31 1    
    24   13   41 ar   
    25   14   15 1    
    26   15   17 2    
    27   17   18 1    
    28   18   20 1    
    29   20   23 1    
    30   20   45 1    
    31   21   42 am   
    32   21   44 1    
    33   22   30 1    
    34   23   26 1    
    35   24   47 am   
    36   24   48 1    
    37   26   28 1    
    38   28   30 1    
    39   28   45 1    
    40   31   32 1    
    41   32   34 1    
    42   33   50 2    
    43   34   36 1    
    44   34   38 1    
    45   34   40 1    
    46   35   47 2    
    47   37   42 2    
    48   39   40 1    
    49   40   42 1    
    50   44   46 1    
    51   46   47 1    
    52   48   49 1    
    53   50   51 1    
    54   51   52 1    
    55   52   53 1    
    56   53   54 1    
    57   54   55 1    
    58   55   56 1    
    59   56   57 1    
    60   57   58 1    
    61   58   59 1    
    62   59   60 1    
    63   60   61 1    
    64   61   62 1    
    65   62   63 3    
@<TRIPOS>SUBSTRUCTURE
     1 YNC502      1 GROUP   
@<TRIPOS>SET

