#    Name: 6maz_5_YNC
#    Modification time : Fri May 22 19:32:32 2020

@<TRIPOS>MOLECULE
6maz_5_YNC
   63    65     1     0     0
SMALL
NO_CHARGES


@<TRIPOS>ATOM
      1 C          16.6220  -70.6090   -2.2480 C.ar      1 YNC501      0.0000 
      2 N          15.3870  -71.0080   -1.8620 N.pl3     1 YNC501      0.0000 
      3 O          21.3310  -67.4830    0.1490 O.3       1 YNC501      0.0000 
      4 P          24.5820  -67.0050   -0.2060 P.3       1 YNC501      0.0000 
      5 S          12.3510  -72.1470   -3.6260 S.3       1 YNC501      0.0000 
      6 C1         18.1240  -69.8710   -3.9360 C.ar      1 YNC501      0.0000 
      7 N1         16.9080  -70.2800   -3.5230 N.ar      1 YNC501      0.0000 
      8 O1         23.8220  -68.3680   -0.6260 O.3       1 YNC501      0.0000 
      9 P1         23.2790  -74.0610    1.8330 P.3       1 YNC501      0.0000 
     10 C2         19.0200  -70.0830   -1.7960 C.ar      1 YNC501      0.0000 
     11 N2         19.1720  -69.7570   -3.1040 N.ar      1 YNC501      0.0000 
     12 O2         25.0190  -66.3750   -1.4890 O.co2     1 YNC501      0.0000 
     13 P2         20.6740  -74.7910    2.8560 P.3       1 YNC501      0.0000 
     14 C3         17.7260  -70.5330   -1.2790 C.ar      1 YNC501      0.0000 
     15 N3         17.8620  -70.7700    0.0390 N.2       1 YNC501      0.0000 
     16 O3         23.5230  -66.2070    0.5380 O.co2     1 YNC501      0.0000 
     17 C4         19.1570  -70.5030    0.3450 C.2       1 YNC501      0.0000 
     18 N4         19.8310  -70.0880   -0.7490 N.pl3     1 YNC501      0.0000 
     19 O4         25.7160  -67.4370    0.7060 O.co2     1 YNC501      0.0000 
     20 C5         21.2530  -69.7260   -0.8240 C.3       1 YNC501      0.0000 
     21 N5         14.8190  -75.7340    2.5150 N.am      1 YNC501      0.0000 
     22 O5         23.4200  -72.8520    0.7920 O.3       1 YNC501      0.0000 
     23 C6         21.6640  -68.8640    0.3480 C.3       1 YNC501      0.0000 
     24 N6         13.2320  -75.0060   -0.9020 N.am      1 YNC501      0.0000 
     25 O6         23.2650  -75.3290    1.0200 O.co2     1 YNC501      0.0000 
     26 C7         23.1560  -69.1320    0.3770 C.3       1 YNC501      0.0000 
     27 O7         21.8070  -73.7420    2.3980 O.3       1 YNC501      0.0000 
     28 C8         23.2390  -70.6030   -0.0040 C.3       1 YNC501      0.0000 
     29 O8         19.7480  -73.9670    3.7270 O.co2     1 YNC501      0.0000 
     30 C9         23.3590  -71.4950    1.2200 C.3       1 YNC501      0.0000 
     31 O9         19.9250  -75.1230    1.4700 O.3       1 YNC501      0.0000 
     32 C10        18.8800  -74.2660    1.0010 C.3       1 YNC501      0.0000 
     33 O10        12.7370  -74.1530   -5.1450 O.2       1 YNC501      0.0000 
     34 C11        17.6300  -75.0920    0.7260 C.3       1 YNC501      0.0000 
     35 O11        12.7270  -73.8650    0.9720 O.2       1 YNC501      0.0000 
     36 C12        16.5830  -74.1260    0.1930 C.3       1 YNC501      0.0000 
     37 O12        15.7050  -77.4760    1.3760 O.2       1 YNC501      0.0000 
     38 C13        17.9340  -76.1680   -0.3080 C.3       1 YNC501      0.0000 
     39 O13        17.1290  -74.7760    3.1120 O.3       1 YNC501      0.0000 
     40 C14        17.1740  -75.7420    2.0460 C.3       1 YNC501      0.0000 
     41 O14        21.2670  -76.0560    3.3790 O.co2     1 YNC501      0.0000 
     42 C15        15.8290  -76.4000    1.9400 C.2       1 YNC501      0.0000 
     43 O15        24.3150  -73.8910    2.9230 O.co2     1 YNC501      0.0000 
     44 C16        13.4470  -76.2090    2.4960 C.3       1 YNC501      0.0000 
     45 O16        22.0200  -70.9250   -0.7030 O.3       1 YNC501      0.0000 
     46 C17        12.8330  -76.2700    1.0980 C.3       1 YNC501      0.0000 
     47 C18        12.9310  -74.9320    0.3910 C.2       1 YNC501      0.0000 
     48 C19        13.3700  -73.8260   -1.7440 C.3       1 YNC501      0.0000 
     49 C20        12.0950  -73.5310   -2.5460 C.3       1 YNC501      0.0000 
     50 C21        12.8590  -72.9310   -5.0260 C.2       1 YNC501      0.0000 
     51 C22        13.5000  -72.1450   -6.1560 C.3       1 YNC501      0.0000 
     52 C23        15.0110  -72.3770   -6.0850 C.3       1 YNC501      0.0000 
     53 C24        15.7750  -71.4590   -7.0300 C.3       1 YNC501      0.0000 
     54 C25        17.2790  -71.7360   -6.9890 C.3       1 YNC501      0.0000 
     55 C26        18.0570  -70.7120   -7.8200 C.3       1 YNC501      0.0000 
     56 C27        17.9410  -71.0080   -9.3160 C.3       1 YNC501      0.0000 
     57 C28        18.7220  -69.9960  -10.1510 C.3       1 YNC501      0.0000 
     58 C29        18.6030  -70.2800  -11.6480 C.3       1 YNC501      0.0000 
     59 C30        19.4640  -71.4700  -12.0810 C.3       1 YNC501      0.0000 
     60 C31        19.3580  -71.8000  -13.5730 C.3       1 YNC501      0.0000 
     61 C32        20.0260  -70.7570  -14.4650 C.3       1 YNC501      0.0000 
     62 C33        19.8560  -71.1310  -15.9380 C.1       1 YNC501      0.0000 
     63 C34        20.4970  -70.0840  -16.8410 C.1       1 YNC501      0.0000 
@<TRIPOS>BOND
     1    1    2 1    
     2    1    7 ar   
     3    1   14 ar   
     4    3   23 1    
     5    4    8 1    
     6    4   12 ar   
     7    4   16 ar   
     8    4   19 ar   
     9    5   49 1    
    10    5   50 1    
    11    6    7 ar   
    12    6   11 ar   
    13    8   26 1    
    14    9   22 1    
    15    9   25 ar   
    16    9   27 1    
    17    9   43 ar   
    18   10   11 ar   
    19   10   14 ar   
    20   10   18 1    
    21   13   27 1    
    22   13   29 ar   
    23   13   31 1    
    24   13   41 ar   
    25   14   15 1    
    26   15   17 2    
    27   17   18 1    
    28   18   20 1    
    29   20   23 1    
    30   20   45 1    
    31   21   42 am   
    32   21   44 1    
    33   22   30 1    
    34   23   26 1    
    35   24   47 am   
    36   24   48 1    
    37   26   28 1    
    38   28   30 1    
    39   28   45 1    
    40   31   32 1    
    41   32   34 1    
    42   33   50 2    
    43   34   36 1    
    44   34   38 1    
    45   34   40 1    
    46   35   47 2    
    47   37   42 2    
    48   39   40 1    
    49   40   42 1    
    50   44   46 1    
    51   46   47 1    
    52   48   49 1    
    53   50   51 1    
    54   51   52 1    
    55   52   53 1    
    56   53   54 1    
    57   54   55 1    
    58   55   56 1    
    59   56   57 1    
    60   57   58 1    
    61   58   59 1    
    62   59   60 1    
    63   60   61 1    
    64   61   62 1    
    65   62   63 3    
@<TRIPOS>SUBSTRUCTURE
     1 YNC501      1 GROUP   
@<TRIPOS>SET

