#    Name: 6maz_1_YNC
#    Modification time : Fri May 22 19:32:12 2020

@<TRIPOS>MOLECULE
6maz_1_YNC
   63    65     1     0     0
SMALL
NO_CHARGES


@<TRIPOS>ATOM
      1 C          37.9500  -18.4370  -23.8520 C.ar      1 YNC501      0.0000 
      2 N          36.7120  -17.8980  -23.7560 N.pl3     1 YNC501      0.0000 
      3 O          42.7000  -18.2210  -27.8100 O.3       1 YNC501      0.0000 
      4 P          45.9350  -18.8050  -28.0110 P.3       1 YNC501      0.0000 
      5 S          33.6100  -18.6800  -21.8670 S.3       1 YNC501      0.0000 
      6 C1         39.4560  -20.2200  -23.4770 C.ar      1 YNC501      0.0000 
      7 N1         38.2270  -19.6710  -23.3790 N.ar      1 YNC501      0.0000 
      8 O1         45.1580  -18.3480  -26.6540 O.3       1 YNC501      0.0000 
      9 P1         44.5940  -13.0940  -23.3470 P.3       1 YNC501      0.0000 
     10 C2         40.3630  -18.3640  -24.5430 C.ar      1 YNC501      0.0000 
     11 N2         40.5200  -19.6180  -24.0490 N.ar      1 YNC501      0.0000 
     12 O2         46.3520  -20.2270  -27.7840 O.co2     1 YNC501      0.0000 
     13 P2         42.0080  -11.8070  -23.3670 P.3       1 YNC501      0.0000 
     14 C3         39.0540  -17.6990  -24.4780 C.ar      1 YNC501      0.0000 
     15 N3         39.1780  -16.4910  -25.0520 N.2       1 YNC501      0.0000 
     16 O3         44.9140  -18.6370  -29.1120 O.co2     1 YNC501      0.0000 
     17 C4         40.4760  -16.3830  -25.4480 C.2       1 YNC501      0.0000 
     18 N4         41.1680  -17.5050  -25.1640 N.pl3     1 YNC501      0.0000 
     19 O4         47.0920  -17.8310  -28.1830 O.co2     1 YNC501      0.0000 
     20 C5         42.5960  -17.7510  -25.4210 C.3       1 YNC501      0.0000 
     21 N5         36.1510  -11.6100  -22.4740 N.am      1 YNC501      0.0000 
     22 O5         44.7020  -14.6500  -23.7490 O.3       1 YNC501      0.0000 
     23 C6         43.0060  -17.2560  -26.7910 C.3       1 YNC501      0.0000 
     24 N6         34.5650  -14.8240  -21.1260 N.am      1 YNC501      0.0000 
     25 O6         44.5870  -13.0120  -21.8500 O.co2     1 YNC501      0.0000 
     26 C7         44.4950  -17.0740  -26.5920 C.3       1 YNC501      0.0000 
     27 O7         43.1360  -12.7690  -23.9600 O.3       1 YNC501      0.0000 
     28 C8         44.5860  -16.5740  -25.1670 C.3       1 YNC501      0.0000 
     29 O8         41.0810  -11.5840  -24.5430 O.co2     1 YNC501      0.0000 
     30 C9         44.6800  -15.0610  -25.1090 C.3       1 YNC501      0.0000 
     31 O9         41.2450  -12.7680  -22.3160 O.3       1 YNC501      0.0000 
     32 C10        40.2050  -13.6500  -22.7540 C.3       1 YNC501      0.0000 
     33 O10        34.0740  -18.7660  -19.3650 O.2       1 YNC501      0.0000 
     34 C11        38.9560  -13.4240  -21.9130 C.3       1 YNC501      0.0000 
     35 O11        34.0890  -13.9370  -23.1440 O.2       1 YNC501      0.0000 
     36 C12        37.8880  -14.4190  -22.3660 C.3       1 YNC501      0.0000 
     37 O12        36.9980  -11.5160  -20.3940 O.2       1 YNC501      0.0000 
     38 C13        39.2730  -13.6270  -20.4320 C.3       1 YNC501      0.0000 
     39 O13        38.4730  -11.7000  -23.5850 O.3       1 YNC501      0.0000 
     40 C14        38.5090  -11.9720  -22.1740 C.3       1 YNC501      0.0000 
     41 O14        42.5990  -10.6430  -22.6180 O.co2     1 YNC501      0.0000 
     42 C15        37.1540  -11.6730  -21.5950 C.2       1 YNC501      0.0000 
     43 O15        45.6130  -12.2920  -24.1430 O.co2     1 YNC501      0.0000 
     44 C16        34.7910  -11.3110  -22.0520 C.3       1 YNC501      0.0000 
     45 O16        43.3710  -16.9670  -24.5090 O.3       1 YNC501      0.0000 
     46 C17        34.1730  -12.4560  -21.2290 C.3       1 YNC501      0.0000 
     47 C18        34.2750  -13.8020  -21.9320 C.2       1 YNC501      0.0000 
     48 C19        34.6520  -16.2040  -21.5970 C.3       1 YNC501      0.0000 
     49 C20        33.3610  -16.9880  -21.3590 C.3       1 YNC501      0.0000 
     50 C21        34.1580  -19.3750  -20.4310 C.2       1 YNC501      0.0000 
     51 C22        34.7710  -20.7580  -20.4520 C.3       1 YNC501      0.0000 
     52 C23        36.2810  -20.5770  -20.2820 C.3       1 YNC501      0.0000 
     53 C24        37.0520  -21.8760  -20.4970 C.3       1 YNC501      0.0000 
     54 C25        38.5460  -21.6800  -20.2370 C.3       1 YNC501      0.0000 
     55 C26        39.3350  -22.9410  -20.6070 C.3       1 YNC501      0.0000 
     56 C27        39.1930  -24.0380  -19.5410 C.3       1 YNC501      0.0000 
     57 C28        40.0030  -25.2830  -19.8910 C.3       1 YNC501      0.0000 
     58 C29        39.8750  -26.3640  -18.8170 C.3       1 YNC501      0.0000 
     59 C30        40.7310  -26.0220  -17.5930 C.3       1 YNC501      0.0000 
     60 C31        40.5860  -27.0490  -16.4610 C.3       1 YNC501      0.0000 
     61 C32        41.2580  -28.3930  -16.7850 C.3       1 YNC501      0.0000 
     62 C33        41.1530  -29.3770  -15.6110 C.1       1 YNC501      0.0000 
     63 C34        41.6510  -30.7630  -15.9840 C.1       1 YNC501      0.0000 
@<TRIPOS>BOND
     1    1    2 1    
     2    1    7 ar   
     3    1   14 ar   
     4    3   23 1    
     5    4    8 1    
     6    4   12 ar   
     7    4   16 ar   
     8    4   19 ar   
     9    5   49 1    
    10    5   50 1    
    11    6    7 ar   
    12    6   11 ar   
    13    8   26 1    
    14    9   22 1    
    15    9   25 ar   
    16    9   27 1    
    17    9   43 ar   
    18   10   11 ar   
    19   10   14 ar   
    20   10   18 1    
    21   13   27 1    
    22   13   29 ar   
    23   13   31 1    
    24   13   41 ar   
    25   14   15 1    
    26   15   17 2    
    27   17   18 1    
    28   18   20 1    
    29   20   23 1    
    30   20   45 1    
    31   21   42 am   
    32   21   44 1    
    33   22   30 1    
    34   23   26 1    
    35   24   47 am   
    36   24   48 1    
    37   26   28 1    
    38   28   30 1    
    39   28   45 1    
    40   31   32 1    
    41   32   34 1    
    42   33   50 2    
    43   34   36 1    
    44   34   38 1    
    45   34   40 1    
    46   35   47 2    
    47   37   42 2    
    48   39   40 1    
    49   40   42 1    
    50   44   46 1    
    51   46   47 1    
    52   48   49 1    
    53   50   51 1    
    54   51   52 1    
    55   52   53 1    
    56   53   54 1    
    57   54   55 1    
    58   55   56 1    
    59   56   57 1    
    60   57   58 1    
    61   58   59 1    
    62   59   60 1    
    63   60   61 1    
    64   61   62 1    
    65   62   63 3    
@<TRIPOS>SUBSTRUCTURE
     1 YNC501      1 GROUP   
@<TRIPOS>SET

