#    Name: 5vyo_2_GLY_PHE_SER_CYS_GLY_PHE
#    Modification time : Fri May 22 19:15:40 2020

@<TRIPOS>MOLECULE
5vyo_2_GLY_PHE_SER_CYS_GLY_PHE
   74    75     6     0     0
SMALL
NO_CHARGES


@<TRIPOS>ATOM
      1 N         -37.5300    8.8280  -12.1180 N.4       1 GLY99       0.0000 
      2 CA        -38.0920    8.2290  -10.9220 C.3       1 GLY99       0.0000 
      3 C         -39.5950    8.4020  -10.8290 C.2       1 GLY99       0.0000 
      4 O         -40.2990    8.3690  -11.8380 O.2       1 GLY99       0.0000 
      5 HA2       -37.8920    7.2800  -10.9140 H         1 GLY99       0.0000 
      6 HA3       -37.6880    8.6340  -10.1390 H         1 GLY99       0.0000 
      7 N         -40.0860    8.5850   -9.6060 N.am      2 PHE100      0.0000 
      8 CA        -41.5060    8.7820   -9.3580 C.3       2 PHE100      0.0000 
      9 C         -41.6750    9.7440   -8.1930 C.2       2 PHE100      0.0000 
     10 O         -40.8290    9.8100   -7.2980 O.2       2 PHE100      0.0000 
     11 CB        -42.2200    7.4560   -9.0530 C.3       2 PHE100      0.0000 
     12 CG        -41.7480    6.7840   -7.7900 C.ar      2 PHE100      0.0000 
     13 CD1       -42.3310    7.0830   -6.5690 C.ar      2 PHE100      0.0000 
     14 CD2       -40.7290    5.8480   -7.8260 C.ar      2 PHE100      0.0000 
     15 CE1       -41.9030    6.4660   -5.4070 C.ar      2 PHE100      0.0000 
     16 CE2       -40.2970    5.2270   -6.6660 C.ar      2 PHE100      0.0000 
     17 CZ        -40.8850    5.5370   -5.4570 C.ar      2 PHE100      0.0000 
     18 H         -39.6070    8.5980   -8.8920 H         2 PHE100      0.0000 
     19 HA        -41.9170    9.1780  -10.1420 H         2 PHE100      0.0000 
     20 HB2       -43.1700    7.6270   -8.9600 H         2 PHE100      0.0000 
     21 HB3       -42.0680    6.8430   -9.7890 H         2 PHE100      0.0000 
     22 HD1       -43.0180    7.7090   -6.5290 H         2 PHE100      0.0000 
     23 HD2       -40.3290    5.6340   -8.6380 H         2 PHE100      0.0000 
     24 HE1       -42.3010    6.6770   -4.5940 H         2 PHE100      0.0000 
     25 HE2       -39.6100    4.6010   -6.7020 H         2 PHE100      0.0000 
     26 HZ        -40.5950    5.1210   -4.6770 H         2 PHE100      0.0000 
     27 N         -42.7750   10.4920   -8.2150 N.am      3 SER101      0.0000 
     28 CA        -43.0960   11.4370   -7.1510 C.3       3 SER101      0.0000 
     29 C         -44.3690   12.1740   -7.5360 C.2       3 SER101      0.0000 
     30 O         -44.7730   12.1800   -8.7030 O.2       3 SER101      0.0000 
     31 CB        -41.9650   12.4420   -6.9080 C.3       3 SER101      0.0000 
     32 OG        -41.6090   13.1050   -8.1080 O.3       3 SER101      0.0000 
     33 H         -43.3600   10.4700   -8.8450 H         3 SER101      0.0000 
     34 HA        -43.2590   10.9520   -6.3270 H         3 SER101      0.0000 
     35 HB2       -42.2620   13.1000   -6.2610 H         3 SER101      0.0000 
     36 HB3       -41.1900   11.9680   -6.5680 H         3 SER101      0.0000 
     37 HG        -40.9890   13.6520   -7.9610 H         3 SER101      0.0000 
     38 N         -44.9980   12.7920   -6.5380 N.am      4 CYS102      0.0000 
     39 CA        -46.1360   13.6760   -6.7640 C.3       4 CYS102      0.0000 
     40 C         -45.5930   15.0730   -7.0430 C.2       4 CYS102      0.0000 
     41 O         -45.0240   15.7130   -6.1530 O.2       4 CYS102      0.0000 
     42 CB        -47.0770   13.6860   -5.5610 C.3       4 CYS102      0.0000 
     43 SG        -47.5330   12.0530   -4.9140 S.3       4 CYS102      0.0000 
     44 H         -44.7800   12.7120   -5.7100 H         4 CYS102      0.0000 
     45 HA        -46.6320   13.3760   -7.5420 H         4 CYS102      0.0000 
     46 HB2       -46.6490   14.1750   -4.8410 H         4 CYS102      0.0000 
     47 HB3       -47.8970   14.1360   -5.8170 H         4 CYS102      0.0000 
     48 N         -45.7620   15.5440   -8.2760 N.am      5 GLY103      0.0000 
     49 CA        -45.2030   16.8230   -8.6680 C.3       5 GLY103      0.0000 
     50 C         -46.0230   17.5720   -9.6970 C.2       5 GLY103      0.0000 
     51 O         -46.0420   17.2040  -10.8750 O.2       5 GLY103      0.0000 
     52 H         -46.1970   15.1410   -8.8990 H         5 GLY103      0.0000 
     53 HA2       -45.1180   17.3860   -7.8820 H         5 GLY103      0.0000 
     54 HA3       -44.3160   16.6820   -9.0350 H         5 GLY103      0.0000 
     55 N         -46.6990   18.6320   -9.2630 N.am      6 PHE104      0.0000 
     56 CA        -47.4650   19.4790  -10.1710 C.3       6 PHE104      0.0000 
     57 C         -47.8470   20.7940   -9.5000 C.2       6 PHE104      0.0000 
     58 O         -48.3170   21.7240  -10.1560 O.2       6 PHE104      0.0000 
     59 CB        -48.7210   18.7530  -10.6560 C.3       6 PHE104      0.0000 
     60 CG        -49.6280   18.2950   -9.5470 C.ar      6 PHE104      0.0000 
     61 CD1       -50.6730   19.0930   -9.1130 C.ar      6 PHE104      0.0000 
     62 CD2       -49.4430   17.0580   -8.9500 C.ar      6 PHE104      0.0000 
     63 CE1       -51.5120   18.6710   -8.0980 C.ar      6 PHE104      0.0000 
     64 CE2       -50.2770   16.6310   -7.9350 C.ar      6 PHE104      0.0000 
     65 CZ        -51.3130   17.4380   -7.5090 C.ar      6 PHE104      0.0000 
     66 H         -46.7300   18.8830   -8.4410 H         6 PHE104      0.0000 
     67 HA        -46.9190   19.6850  -10.9460 H         6 PHE104      0.0000 
     68 HB2       -49.2290   19.3530  -11.2240 H         6 PHE104      0.0000 
     69 HB3       -48.4540   17.9690  -11.1620 H         6 PHE104      0.0000 
     70 HD1       -50.8110   19.9250   -9.5060 H         6 PHE104      0.0000 
     71 HD2       -48.7460   16.5110   -9.2330 H         6 PHE104      0.0000 
     72 HE1       -52.2080   19.2160   -7.8120 H         6 PHE104      0.0000 
     73 HE2       -50.1410   15.8000   -7.5400 H         6 PHE104      0.0000 
     74 HZ        -51.8750   17.1520   -6.8260 H         6 PHE104      0.0000 
@<TRIPOS>BOND
     1    1    2 1    
     2    2    3 1    
     3    2    5 1    
     4    2    6 1    
     5    3    4 2    
     6    3    7 am   
     7    7    8 1    
     8    8    9 1    
     9    7   18 1    
    10    8   11 1    
    11    8   19 1    
    12    9   10 2    
    13    9   27 am   
    14   11   12 1    
    15   11   20 1    
    16   11   21 1    
    17   12   13 ar   
    18   12   14 ar   
    19   13   15 ar   
    20   14   16 ar   
    21   13   22 1    
    22   15   17 ar   
    23   14   23 1    
    24   16   17 ar   
    25   15   24 1    
    26   27   28 1    
    27   16   25 1    
    28   17   26 1    
    29   28   29 1    
    30   27   33 1    
    31   28   31 1    
    32   28   34 1    
    33   29   30 2    
    34   29   38 am   
    35   31   32 1    
    36   31   35 1    
    37   31   36 1    
    38   32   37 1    
    39   38   39 1    
    40   39   40 1    
    41   38   44 1    
    42   39   42 1    
    43   39   45 1    
    44   40   41 2    
    45   40   48 am   
    46   42   43 1    
    47   42   46 1    
    48   42   47 1    
    49   48   49 1    
    50   49   50 1    
    51   48   52 1    
    52   49   53 1    
    53   49   54 1    
    54   50   51 2    
    55   50   55 am   
    56   55   56 1    
    57   56   57 1    
    58   55   66 1    
    59   56   59 1    
    60   56   67 1    
    61   57   58 2    
    62   59   60 1    
    63   59   68 1    
    64   59   69 1    
    65   60   61 ar   
    66   60   62 ar   
    67   61   63 ar   
    68   62   64 ar   
    69   61   70 1    
    70   63   65 ar   
    71   62   71 1    
    72   64   65 ar   
    73   63   72 1    
    74   64   73 1    
    75   65   74 1    
@<TRIPOS>SUBSTRUCTURE
     1 GLY99       1 RESIDUE 
     2 PHE100      7 RESIDUE 
     3 SER101     27 RESIDUE 
     4 CYS102     38 RESIDUE 
     5 GLY103     48 RESIDUE 
     6 PHE104     55 RESIDUE 
@<TRIPOS>SET

