#    Name: 5vyo_1_GLY_PHE_SER_CYS_GLY_PHE_CAVITY_N1_6
#    Modification time : Fri May 22 19:15:35 2020

@<TRIPOS>MOLECULE
5vyo_1_GLY_PHE_SER_CYS_GLY_PHE_CAVITY_N1_6
  119     0     6     0     0
SMALL
NO_CHARGES


@<TRIPOS>ATOM
      1 OG        -47.4000   11.9700  -13.0100 O.3       1 SER1        0.0000 
      2 OG        -48.7300   12.3300  -12.4100 O.3       1 SER1        0.0000 
      3 OG        -45.1600   12.0700   -8.0900 O.3       1 SER1        0.0000 
      4 OG        -46.4100   11.2400   -6.5900 O.3       1 SER1        0.0000 
      5 OG        -48.0600   16.3800   -9.6100 O.3       1 SER1        0.0000 
      6 N         -46.5300    7.1900  -11.9300 N.am      2 ALA2        0.0000 
      7 N         -47.7800    6.3600  -10.4300 N.am      2 ALA2        0.0000 
      8 N         -47.8600    7.5500  -11.3400 N.am      2 ALA2        0.0000 
      9 N         -48.0100    9.9400  -13.1500 N.am      2 ALA2        0.0000 
     10 N         -49.3400   10.3100  -12.5500 N.am      2 ALA2        0.0000 
     11 N         -50.6700   10.6700  -11.9500 N.am      2 ALA2        0.0000 
     12 N         -49.9800   11.5000  -10.9100 N.am      2 ALA2        0.0000 
     13 N         -50.0600   12.6900  -11.8200 N.am      2 ALA2        0.0000 
     14 N         -53.3500   14.6100   -8.9900 N.am      2 ALA2        0.0000 
     15 N         -52.3400   10.6700   -4.3400 N.am      2 ALA2        0.0000 
     16 N         -52.4200   11.8600   -5.2400 N.am      2 ALA2        0.0000 
     17 N         -53.6600   11.0300   -3.7400 N.am      2 ALA2        0.0000 
     18 N         -53.7400   12.2200   -4.6500 N.am      2 ALA2        0.0000 
     19 N         -47.7400   11.6100   -5.9900 N.am      2 ALA2        0.0000 
     20 N         -51.7200   12.6900   -4.2000 N.am      2 ALA2        0.0000 
     21 N         -44.3900   11.7100   -6.1500 N.am      2 ALA2        0.0000 
     22 N         -44.4700   12.9100   -7.0500 N.am      2 ALA2        0.0000 
     23 N         -45.8000   13.2700   -6.4500 N.am      2 ALA2        0.0000 
     24 OD1       -54.2800    9.0000   -3.8800 O.co2     3 ASP3        0.0000 
     25 CZ        -49.1000    6.7200   -9.8400 C.ar      4 PHE5        0.0000 
     26 CZ        -49.2600    9.1100  -11.6500 C.ar      4 PHE5        0.0000 
     27 CZ        -50.3500    5.8900   -8.3400 C.ar      4 PHE5        0.0000 
     28 CZ        -50.4300    7.0800   -9.2400 C.ar      4 PHE5        0.0000 
     29 CZ        -50.5100    8.2800  -10.1500 C.ar      4 PHE5        0.0000 
     30 CZ        -50.5900    9.4700  -11.0500 C.ar      4 PHE5        0.0000 
     31 CZ        -51.7600    7.4500   -8.6500 C.ar      4 PHE5        0.0000 
     32 CZ        -51.8400    8.6400   -9.5500 C.ar      4 PHE5        0.0000 
     33 CZ        -51.9200    9.8400  -10.4500 C.ar      4 PHE5        0.0000 
     34 CZ        -52.0000   11.0300  -11.3600 C.ar      4 PHE5        0.0000 
     35 CZ        -53.0900    7.8100   -8.0500 C.ar      4 PHE5        0.0000 
     36 CZ        -53.1700    9.0000   -8.9500 C.ar      4 PHE5        0.0000 
     37 CZ        -47.0800    7.1900   -9.4000 C.ar      4 PHE5        0.0000 
     38 CZ        -47.1600    8.3800  -10.3000 C.ar      4 PHE5        0.0000 
     39 CZ        -48.4100    7.5500   -8.8000 C.ar      4 PHE5        0.0000 
     40 CZ        -51.1500    9.4700   -8.5100 C.ar      4 PHE5        0.0000 
     41 CZ        -51.2300   10.6700   -9.4200 C.ar      4 PHE5        0.0000 
     42 CZ        -51.3000   11.8600  -10.3200 C.ar      4 PHE5        0.0000 
     43 CZ        -52.3900    8.6400   -7.0100 C.ar      4 PHE5        0.0000 
     44 CZ        -52.4700    9.8400   -7.9200 C.ar      4 PHE5        0.0000 
     45 CZ        -53.6400    7.8100   -5.5100 C.ar      4 PHE5        0.0000 
     46 CZ        -53.7200    9.0000   -6.4200 C.ar      4 PHE5        0.0000 
     47 CZ        -53.8000   10.2000   -7.3200 C.ar      4 PHE5        0.0000 
     48 CZ        -47.8000    9.5800   -8.6700 C.ar      4 PHE5        0.0000 
     49 CZ        -51.8600   11.8600   -7.7800 C.ar      4 PHE5        0.0000 
     50 CZ        -51.9400   13.0600   -8.6800 C.ar      4 PHE5        0.0000 
     51 CZ        -53.1900   12.2300   -7.1900 C.ar      4 PHE5        0.0000 
     52 CZ        -53.2700   13.4200   -8.0900 C.ar      4 PHE5        0.0000 
     53 CZ        -54.3600   10.2000   -4.7800 C.ar      4 PHE5        0.0000 
     54 CZ        -54.4400   11.3900   -5.6900 C.ar      4 PHE5        0.0000 
     55 CZ        -54.5200   12.5900   -6.5900 C.ar      4 PHE5        0.0000 
     56 CZ        -47.1000   10.4100   -7.6300 C.ar      4 PHE5        0.0000 
     57 CZ        -48.4300   10.7700   -7.0300 C.ar      4 PHE5        0.0000 
     58 CZ        -51.1700   12.6900   -6.7400 C.ar      4 PHE5        0.0000 
     59 CZ        -52.4900   13.0600   -6.1500 C.ar      4 PHE5        0.0000 
     60 CZ        -52.5700   14.2500   -7.0500 C.ar      4 PHE5        0.0000 
     61 CZ        -53.8200   13.4200   -5.5500 C.ar      4 PHE5        0.0000 
     62 CZ        -49.1500   13.1600   -6.3000 C.ar      4 PHE5        0.0000 
     63 CZ        -49.2200   14.3600   -7.2000 C.ar      4 PHE5        0.0000 
     64 CZ        -50.3900   12.3300   -4.8000 C.ar      4 PHE5        0.0000 
     65 CZ        -50.4700   13.5300   -5.7000 C.ar      4 PHE5        0.0000 
     66 CA        -47.9300    8.7500  -12.2400 C.3       5 GLY6        0.0000 
     67 CA        -51.6000    5.0600   -6.8400 C.3       5 GLY6        0.0000 
     68 CA        -51.6800    6.2500   -7.7400 C.3       5 GLY6        0.0000 
     69 CA        -53.0100    6.6200   -7.1500 C.3       5 GLY6        0.0000 
     70 CA        -49.6600    6.7200   -7.3000 C.3       5 GLY6        0.0000 
     71 CA        -50.9100    5.8900   -5.8000 C.3       5 GLY6        0.0000 
     72 CA        -50.9900    7.0800   -6.7000 C.3       5 GLY6        0.0000 
     73 CA        -51.0700    8.2800   -7.6100 C.3       5 GLY6        0.0000 
     74 CA        -51.3800   13.0600  -11.2200 C.3       5 GLY6        0.0000 
     75 CA        -52.2400    6.2500   -5.2000 C.3       5 GLY6        0.0000 
     76 CA        -52.3200    7.4500   -6.1100 C.3       5 GLY6        0.0000 
     77 CA        -52.7100   13.4200  -10.6300 C.3       5 GLY6        0.0000 
     78 CA        -49.0500    8.7500   -7.1700 C.3       5 GLY6        0.0000 
     79 CA        -50.3700    9.1100   -6.5700 C.3       5 GLY6        0.0000 
     80 CA        -50.6900   13.8900  -10.1800 C.3       5 GLY6        0.0000 
     81 CA        -51.7000    9.4700   -5.9700 C.3       5 GLY6        0.0000 
     82 CA        -52.0200   14.2500   -9.5900 C.3       5 GLY6        0.0000 
     83 CA        -52.9500    8.6400   -4.4700 C.3       5 GLY6        0.0000 
     84 CA        -53.0300    9.8400   -5.3800 C.3       5 GLY6        0.0000 
     85 CA        -49.7600   11.1400   -6.4300 C.3       5 GLY6        0.0000 
     86 CA        -50.0000   14.7200   -9.1500 C.3       5 GLY6        0.0000 
     87 CA        -51.0900   11.5000   -5.8400 C.3       5 GLY6        0.0000 
     88 CA        -51.3300   15.0800   -8.5500 C.3       5 GLY6        0.0000 
     89 CA        -51.4000   16.2800   -9.4500 C.3       5 GLY6        0.0000 
     90 CA        -49.0700   11.9700   -5.4000 C.3       5 GLY6        0.0000 
     91 CA        -49.3800   16.7500   -9.0100 C.3       5 GLY6        0.0000 
     92 DU        -47.2400    9.5800  -11.2000 H         6 CUB7        0.0000 
     93 DU        -47.3200   10.7700  -12.1100 H         6 CUB7        0.0000 
     94 DU        -48.4900    8.7500   -9.7000 H         6 CUB7        0.0000 
     95 DU        -48.5700    9.9400  -10.6100 H         6 CUB7        0.0000 
     96 DU        -48.6500   11.1400  -11.5100 H         6 CUB7        0.0000 
     97 DU        -49.7400    7.9200   -8.2000 H         6 CUB7        0.0000 
     98 DU        -49.8200    9.1100   -9.1100 H         6 CUB7        0.0000 
     99 DU        -49.9000   10.3100  -10.0100 H         6 CUB7        0.0000 
    100 DU        -46.5500   10.4100  -10.1600 H         6 CUB7        0.0000 
    101 DU        -47.8800   10.7700   -9.5700 H         6 CUB7        0.0000 
    102 DU        -49.1200    9.9400   -8.0700 H         6 CUB7        0.0000 
    103 DU        -49.2800   12.3300   -9.8800 H         6 CUB7        0.0000 
    104 DU        -50.4500   10.3000   -7.4700 H         6 CUB7        0.0000 
    105 DU        -50.5300   11.5000   -8.3800 H         6 CUB7        0.0000 
    106 DU        -50.6100   12.6900   -9.2800 H         6 CUB7        0.0000 
    107 DU        -51.7800   10.6700   -6.8800 H         6 CUB7        0.0000 
    108 DU        -53.1100   11.0300   -6.2800 H         6 CUB7        0.0000 
    109 DU        -48.5100   11.9700   -7.9300 H         6 CUB7        0.0000 
    110 DU        -49.8400   12.3300   -7.3400 H         6 CUB7        0.0000 
    111 DU        -49.9200   13.5300   -8.2400 H         6 CUB7        0.0000 
    112 DU        -51.2500   13.8900   -7.6500 H         6 CUB7        0.0000 
    113 DU        -52.6500   15.4500   -7.9500 H         6 CUB7        0.0000 
    114 DU        -46.4900   12.4400   -7.4900 H         6 CUB7        0.0000 
    115 DU        -47.8200   12.8000   -6.9000 H         6 CUB7        0.0000 
    116 DU        -49.3000   15.5500   -8.1100 H         6 CUB7        0.0000 
    117 DU        -44.5500   14.1000   -7.9500 H         6 CUB7        0.0000 
    118 DU        -45.8800   14.4600   -7.3600 H         6 CUB7        0.0000 
    119 DU        -45.9600   15.6600   -8.2600 H         6 CUB7        0.0000 
@<TRIPOS>BOND
@<TRIPOS>SUBSTRUCTURE
     1 SER1        1 GROUP   
     2 ALA2        6 GROUP   
     3 ASP3       24 GROUP   
     4 PHE5       25 GROUP   
     5 GLY6       66 GROUP   
     6 CUB7       92 GROUP   
@<TRIPOS>SET

