#    Name: 5vyo_1_GLY_PHE_SER_CYS_GLY_PHE
#    Modification time : Fri May 22 19:15:34 2020

@<TRIPOS>MOLECULE
5vyo_1_GLY_PHE_SER_CYS_GLY_PHE
   74    75     6     0     0
SMALL
NO_CHARGES


@<TRIPOS>ATOM
      1 N         -39.0250   11.8900  -15.7260 N.4       1 GLY99       0.0000 
      2 CA        -38.7970   13.0250  -14.8540 C.3       1 GLY99       0.0000 
      3 C         -40.0040   13.3650  -14.0020 C.2       1 GLY99       0.0000 
      4 O         -39.8710   13.6380  -12.8090 O.2       1 GLY99       0.0000 
      5 HA2       -38.0510   12.8340  -14.2640 H         1 GLY99       0.0000 
      6 HA3       -38.5720   13.8020  -15.3890 H         1 GLY99       0.0000 
      7 N         -41.1870   13.3540  -14.6140 N.am      2 PHE100      0.0000 
      8 CA        -42.4200   13.6180  -13.8860 C.3       2 PHE100      0.0000 
      9 C         -43.5620   12.8580  -14.5430 C.2       2 PHE100      0.0000 
     10 O         -43.6070   12.7290  -15.7690 O.2       2 PHE100      0.0000 
     11 CB        -42.7350   15.1200  -13.8340 C.3       2 PHE100      0.0000 
     12 CG        -43.2310   15.6920  -15.1360 C.ar      2 PHE100      0.0000 
     13 CD1       -44.5900   15.7780  -15.3970 C.ar      2 PHE100      0.0000 
     14 CD2       -42.3420   16.1590  -16.0890 C.ar      2 PHE100      0.0000 
     15 CE1       -45.0530   16.3070  -16.5880 C.ar      2 PHE100      0.0000 
     16 CE2       -42.7990   16.6910  -17.2830 C.ar      2 PHE100      0.0000 
     17 CZ        -44.1560   16.7650  -17.5310 C.ar      2 PHE100      0.0000 
     18 H         -41.3000   13.1950  -15.4510 H         2 PHE100      0.0000 
     19 HA        -42.3270   13.2970  -12.9760 H         2 PHE100      0.0000 
     20 HB2       -43.4200   15.2710  -13.1650 H         2 PHE100      0.0000 
     21 HB3       -41.9270   15.5990  -13.5900 H         2 PHE100      0.0000 
     22 HD1       -45.1990   15.4700  -14.7650 H         2 PHE100      0.0000 
     23 HD2       -41.4270   16.1110  -15.9280 H         2 PHE100      0.0000 
     24 HE1       -45.9670   16.3560  -16.7520 H         2 PHE100      0.0000 
     25 HE2       -42.1930   16.9980  -17.9170 H         2 PHE100      0.0000 
     26 HZ        -44.4650   17.1210  -18.3320 H         2 PHE100      0.0000 
     27 N         -44.4740   12.3540  -13.7150 N.am      3 SER101      0.0000 
     28 CA        -45.6590   11.6340  -14.1690 C.3       3 SER101      0.0000 
     29 C         -46.4500   11.2200  -12.9370 C.2       3 SER101      0.0000 
     30 O         -45.9070   11.1420  -11.8310 O.2       3 SER101      0.0000 
     31 CB        -45.3040   10.3990  -15.0070 C.3       3 SER101      0.0000 
     32 OG        -44.6310    9.4290  -14.2260 O.3       3 SER101      0.0000 
     33 H         -44.4260   12.4200  -12.8590 H         3 SER101      0.0000 
     34 HA        -46.2110   12.2230  -14.7060 H         3 SER101      0.0000 
     35 HB2       -46.1210   10.0110  -15.3570 H         3 SER101      0.0000 
     36 HB3       -44.7270   10.6700  -15.7390 H         3 SER101      0.0000 
     37 HG        -44.4440    8.7600  -14.6970 H         3 SER101      0.0000 
     38 N         -47.7410   10.9630  -13.1390 N.am      4 CYS102      0.0000 
     39 CA        -48.5860   10.4160  -12.0820 C.3       4 CYS102      0.0000 
     40 C         -48.4290    8.9010  -12.0830 C.2       4 CYS102      0.0000 
     41 O         -48.8340    8.2310  -13.0380 O.2       4 CYS102      0.0000 
     42 CB        -50.0480   10.8060  -12.2880 C.3       4 CYS102      0.0000 
     43 SG        -50.3510   12.5620  -12.5850 S.3       4 CYS102      0.0000 
     44 H         -48.1520   11.0970  -13.8820 H         4 CYS102      0.0000 
     45 HA        -48.2940   10.7570  -11.2220 H         4 CYS102      0.0000 
     46 HB2       -50.3900   10.3190  -13.0530 H         4 CYS102      0.0000 
     47 HB3       -50.5460   10.5560  -11.4940 H         4 CYS102      0.0000 
     48 N         -47.8400    8.3590  -11.0210 N.am      5 GLY103      0.0000 
     49 CA        -47.5870    6.9330  -10.9640 C.3       5 GLY103      0.0000 
     50 C         -47.5090    6.3740   -9.5580 C.2       5 GLY103      0.0000 
     51 O         -46.5420    6.6240   -8.8340 O.2       5 GLY103      0.0000 
     52 H         -47.5820    8.7950  -10.3270 H         5 GLY103      0.0000 
     53 HA2       -48.2940    6.4660  -11.4350 H         5 GLY103      0.0000 
     54 HA3       -46.7480    6.7420  -11.4110 H         5 GLY103      0.0000 
     55 N         -48.5230    5.6100   -9.1660 N.am      6 PHE104      0.0000 
     56 CA        -48.5340    4.9550   -7.8630 C.3       6 PHE104      0.0000 
     57 C         -49.5130    3.7880   -7.8520 C.2       6 PHE104      0.0000 
     58 O         -49.6540    3.0960   -6.8450 O.2       6 PHE104      0.0000 
     59 CB        -48.8960    5.9510   -6.7590 C.3       6 PHE104      0.0000 
     60 CG        -50.1740    6.7010   -7.0110 C.ar      6 PHE104      0.0000 
     61 CD1       -51.3930    6.1740   -6.6150 C.ar      6 PHE104      0.0000 
     62 CD2       -50.1550    7.9360   -7.6380 C.ar      6 PHE104      0.0000 
     63 CE1       -52.5680    6.8650   -6.8450 C.ar      6 PHE104      0.0000 
     64 CE2       -51.3260    8.6310   -7.8700 C.ar      6 PHE104      0.0000 
     65 CZ        -52.5340    8.0950   -7.4730 C.ar      6 PHE104      0.0000 
     66 H         -49.2230    5.4530   -9.6410 H         6 PHE104      0.0000 
     67 HA        -47.6490    4.6070   -7.6760 H         6 PHE104      0.0000 
     68 HB2       -48.9950    5.4690   -5.9230 H         6 PHE104      0.0000 
     69 HB3       -48.1820    6.6030   -6.6800 H         6 PHE104      0.0000 
     70 HD1       -51.4210    5.3460   -6.1930 H         6 PHE104      0.0000 
     71 HD2       -49.3430    8.3020   -7.9080 H         6 PHE104      0.0000 
     72 HE1       -53.3810    6.5020   -6.5760 H         6 PHE104      0.0000 
     73 HE2       -51.3010    9.4590   -8.2930 H         6 PHE104      0.0000 
     74 HZ        -53.3240    8.5610   -7.6280 H         6 PHE104      0.0000 
@<TRIPOS>BOND
     1    1    2 1    
     2    2    3 1    
     3    2    5 1    
     4    2    6 1    
     5    3    4 2    
     6    3    7 am   
     7    7    8 1    
     8    8    9 1    
     9    7   18 1    
    10    8   11 1    
    11    8   19 1    
    12    9   10 2    
    13    9   27 am   
    14   11   12 1    
    15   11   20 1    
    16   11   21 1    
    17   12   13 ar   
    18   12   14 ar   
    19   13   15 ar   
    20   14   16 ar   
    21   13   22 1    
    22   15   17 ar   
    23   14   23 1    
    24   16   17 ar   
    25   15   24 1    
    26   27   28 1    
    27   16   25 1    
    28   17   26 1    
    29   28   29 1    
    30   27   33 1    
    31   28   31 1    
    32   28   34 1    
    33   29   30 2    
    34   29   38 am   
    35   31   32 1    
    36   31   35 1    
    37   31   36 1    
    38   32   37 1    
    39   38   39 1    
    40   39   40 1    
    41   38   44 1    
    42   39   42 1    
    43   39   45 1    
    44   40   41 2    
    45   40   48 am   
    46   42   43 1    
    47   42   46 1    
    48   42   47 1    
    49   48   49 1    
    50   49   50 1    
    51   48   52 1    
    52   49   53 1    
    53   49   54 1    
    54   50   51 2    
    55   50   55 am   
    56   55   56 1    
    57   56   57 1    
    58   55   66 1    
    59   56   59 1    
    60   56   67 1    
    61   57   58 2    
    62   59   60 1    
    63   59   68 1    
    64   59   69 1    
    65   60   61 ar   
    66   60   62 ar   
    67   61   63 ar   
    68   62   64 ar   
    69   61   70 1    
    70   63   65 ar   
    71   62   71 1    
    72   64   65 ar   
    73   63   72 1    
    74   64   73 1    
    75   65   74 1    
@<TRIPOS>SUBSTRUCTURE
     1 GLY99       1 RESIDUE 
     2 PHE100      7 RESIDUE 
     3 SER101     27 RESIDUE 
     4 CYS102     38 RESIDUE 
     5 GLY103     48 RESIDUE 
     6 PHE104     55 RESIDUE 
@<TRIPOS>SET

