#    Name: 5vyo_2_GLY_PHE_SER_CYS_GLY_PHE_CAVITY_N1_4
#    Modification time : Fri May 22 19:15:42 2020

@<TRIPOS>MOLECULE
5vyo_2_GLY_PHE_SER_CYS_GLY_PHE_CAVITY_N1_4
   81     0     6     0     0
SMALL
NO_CHARGES


@<TRIPOS>ATOM
      1 OG        -45.1600   12.0700   -8.0900 O.3       1 SER1        0.0000 
      2 OG        -48.0600   16.3800   -9.6100 O.3       1 SER1        0.0000 
      3 OG        -46.1100   18.0500  -10.0700 O.3       1 SER1        0.0000 
      4 N         -53.3500   14.6100   -8.9900 N.am      2 ALA2        0.0000 
      5 N         -47.7400   11.6100   -5.9900 N.am      2 ALA2        0.0000 
      6 N         -44.4700   12.9100   -7.0500 N.am      2 ALA2        0.0000 
      7 N         -45.7200   12.0700   -5.5500 N.am      2 ALA2        0.0000 
      8 N         -45.8000   13.2700   -6.4500 N.am      2 ALA2        0.0000 
      9 N         -47.1200   13.6300   -5.8600 N.am      2 ALA2        0.0000 
     10 N         -45.1000   14.1000   -5.4200 N.am      2 ALA2        0.0000 
     11 O         -45.1800   15.2900   -6.3200 O.2       2 ALA2        0.0000 
     12 N         -45.3400   17.6800   -8.1300 N.am      2 ALA2        0.0000 
     13 OD1       -54.0600   17.0000   -8.2600 O.co2     3 ASP3        0.0000 
     14 CZ        -47.8000    9.5800   -8.6700 C.ar      4 PHE5        0.0000 
     15 CZ        -47.1000   10.4100   -7.6300 C.ar      4 PHE5        0.0000 
     16 CZ        -48.4300   10.7700   -7.0300 C.ar      4 PHE5        0.0000 
     17 CZ        -52.5700   14.2500   -7.0500 C.ar      4 PHE5        0.0000 
     18 CZ        -53.9000   14.6100   -6.4500 C.ar      4 PHE5        0.0000 
     19 CZ        -53.9800   15.8100   -7.3600 C.ar      4 PHE5        0.0000 
     20 CZ        -49.1500   13.1600   -6.3000 C.ar      4 PHE5        0.0000 
     21 CZ        -49.2200   14.3600   -7.2000 C.ar      4 PHE5        0.0000 
     22 CZ        -50.3900   12.3300   -4.8000 C.ar      4 PHE5        0.0000 
     23 CZ        -50.4700   13.5300   -5.7000 C.ar      4 PHE5        0.0000 
     24 CZ        -50.5500   14.7200   -6.6100 C.ar      4 PHE5        0.0000 
     25 CZ        -50.6300   15.9100   -7.5100 C.ar      4 PHE5        0.0000 
     26 CZ        -51.9600   16.2800   -6.9200 C.ar      4 PHE5        0.0000 
     27 CZ        -52.0400   17.4700   -7.8200 C.ar      4 PHE5        0.0000 
     28 CZ        -53.2900   16.6400   -6.3200 C.ar      4 PHE5        0.0000 
     29 CZ        -53.3700   17.8300   -7.2200 C.ar      4 PHE5        0.0000 
     30 CZ        -47.2000   14.8300   -6.7600 C.ar      4 PHE5        0.0000 
     31 CZ        -47.2800   16.0200   -7.6700 C.ar      4 PHE5        0.0000 
     32 CZ        -47.3600   17.2100   -8.5700 C.ar      4 PHE5        0.0000 
     33 CZ        -48.4500   13.9900   -5.2600 C.ar      4 PHE5        0.0000 
     34 CZ        -48.5300   15.1900   -6.1700 C.ar      4 PHE5        0.0000 
     35 CZ        -48.6100   16.3800   -7.0700 C.ar      4 PHE5        0.0000 
     36 CZ        -48.6900   17.5800   -7.9700 C.ar      4 PHE5        0.0000 
     37 CZ        -49.9400   16.7500   -6.4700 C.ar      4 PHE5        0.0000 
     38 CZ        -50.0200   17.9400   -7.3800 C.ar      4 PHE5        0.0000 
     39 CZ        -51.2700   17.1100   -5.8800 C.ar      4 PHE5        0.0000 
     40 CZ        -51.3500   18.3000   -6.7800 C.ar      4 PHE5        0.0000 
     41 CZ        -45.2600   16.4900   -7.2200 C.ar      4 PHE5        0.0000 
     42 CZ        -46.5100   15.6600   -5.7200 C.ar      4 PHE5        0.0000 
     43 CZ        -46.6700   18.0500   -7.5300 C.ar      4 PHE5        0.0000 
     44 CZ        -46.7500   19.2400   -8.4300 C.ar      4 PHE5        0.0000 
     45 CZ        -47.8400   16.0200   -5.1300 C.ar      4 PHE5        0.0000 
     46 CA        -50.6900   13.8900  -10.1800 C.3       5 GLY6        0.0000 
     47 CA        -52.0200   14.2500   -9.5900 C.3       5 GLY6        0.0000 
     48 CA        -49.7600   11.1400   -6.4300 C.3       5 GLY6        0.0000 
     49 CA        -50.0000   14.7200   -9.1500 C.3       5 GLY6        0.0000 
     50 CA        -51.0900   11.5000   -5.8400 C.3       5 GLY6        0.0000 
     51 CA        -51.3300   15.0800   -8.5500 C.3       5 GLY6        0.0000 
     52 CA        -51.4000   16.2800   -9.4500 C.3       5 GLY6        0.0000 
     53 CA        -52.7300   16.6400   -8.8600 C.3       5 GLY6        0.0000 
     54 CA        -52.8100   17.8300   -9.7600 C.3       5 GLY6        0.0000 
     55 CA        -49.0700   11.9700   -5.4000 C.3       5 GLY6        0.0000 
     56 CA        -49.3800   16.7500   -9.0100 C.3       5 GLY6        0.0000 
     57 CA        -49.4600   17.9400   -9.9200 C.3       5 GLY6        0.0000 
     58 CA        -49.5400   19.1400  -10.8200 C.3       5 GLY6        0.0000 
     59 CA        -50.7100   17.1100   -8.4200 C.3       5 GLY6        0.0000 
     60 CA        -50.7900   18.3000   -9.3200 C.3       5 GLY6        0.0000 
     61 CA        -50.8700   19.5000  -10.2200 C.3       5 GLY6        0.0000 
     62 CA        -52.1200   18.6700   -8.7200 C.3       5 GLY6        0.0000 
     63 CA        -48.7700   18.7700   -8.8800 C.3       5 GLY6        0.0000 
     64 CA        -50.1000   19.1300   -8.2800 C.3       5 GLY6        0.0000 
     65 CA        -51.4200   19.5000   -7.6900 C.3       5 GLY6        0.0000 
     66 CA        -43.8500   14.9300   -6.9200 C.3       5 GLY6        0.0000 
     67 CA        -43.9300   16.1300   -7.8200 C.3       5 GLY6        0.0000 
     68 CA        -46.4300   14.4600   -4.8200 C.3       5 GLY6        0.0000 
     69 DU        -47.8800   10.7700   -9.5700 H         6 CUB7        0.0000 
     70 DU        -48.5100   11.9700   -7.9300 H         6 CUB7        0.0000 
     71 DU        -49.8400   12.3300   -7.3400 H         6 CUB7        0.0000 
     72 DU        -49.9200   13.5300   -8.2400 H         6 CUB7        0.0000 
     73 DU        -51.2500   13.8900   -7.6500 H         6 CUB7        0.0000 
     74 DU        -52.6500   15.4500   -7.9500 H         6 CUB7        0.0000 
     75 DU        -46.4900   12.4400   -7.4900 H         6 CUB7        0.0000 
     76 DU        -47.8200   12.8000   -6.9000 H         6 CUB7        0.0000 
     77 DU        -49.3000   15.5500   -8.1100 H         6 CUB7        0.0000 
     78 DU        -44.5500   14.1000   -7.9500 H         6 CUB7        0.0000 
     79 DU        -45.8800   14.4600   -7.3600 H         6 CUB7        0.0000 
     80 DU        -45.9600   15.6600   -8.2600 H         6 CUB7        0.0000 
     81 DU        -47.4400   18.4100   -9.4700 H         6 CUB7        0.0000 
@<TRIPOS>BOND
@<TRIPOS>SUBSTRUCTURE
     1 SER1        1 GROUP   
     2 ALA2        4 GROUP   
     3 ASP3       13 GROUP   
     4 PHE5       14 GROUP   
     5 GLY6       46 GROUP   
     6 CUB7       69 GROUP   
@<TRIPOS>SET

