#    Name: 6gkz_2_SAH_CAVITY_N1_4
#    Modification time : Fri May 22 19:25:32 2020

@<TRIPOS>MOLECULE
6gkz_2_SAH_CAVITY_N1_4
  104     0     6     0     0
SMALL
NO_CHARGES


@<TRIPOS>ATOM
      1 OG        166.4700   17.7000   15.6000 O.3       1 SER1        0.0000 
      2 OG        168.5100   17.1400   15.6700 O.3       1 SER1        0.0000 
      3 OG        170.0100   18.5200   15.0700 O.3       1 SER1        0.0000 
      4 OG        169.7500   17.7100   16.3000 O.3       1 SER1        0.0000 
      5 OG        175.2800   17.0400    9.7300 O.3       1 SER1        0.0000 
      6 OG        176.0900   15.9200    9.1600 O.3       1 SER1        0.0000 
      7 O         167.2800   16.5800   15.0300 O.2       2 ALA2        0.0000 
      8 N         172.1300   13.4000    8.4800 N.am      2 ALA2        0.0000 
      9 N         173.7200   14.7200    4.2100 N.am      2 ALA2        0.0000 
     10 N         173.4600   13.9100    5.4400 N.am      2 ALA2        0.0000 
     11 N         168.7800   17.9600   14.4300 N.am      2 ALA2        0.0000 
     12 N         169.8500   17.6500   12.6300 N.am      2 ALA2        0.0000 
     13 N         169.5900   16.8300   13.8600 N.am      2 ALA2        0.0000 
     14 N         170.4000   15.7100   13.2900 N.am      2 ALA2        0.0000 
     15 N         171.4700   15.4000   11.4900 N.am      2 ALA2        0.0000 
     16 N         172.2900   14.2800   10.9200 N.am      2 ALA2        0.0000 
     17 N         173.3600   13.9700    9.1100 N.am      2 ALA2        0.0000 
     18 N         173.1000   13.1500   10.3500 N.am      2 ALA2        0.0000 
     19 N         174.9600   15.2900    4.8500 N.am      2 ALA2        0.0000 
     20 O         174.7000   14.4700    6.0800 O.2       2 ALA2        0.0000 
     21 N         174.4300   13.6600    7.3100 N.am      2 ALA2        0.0000 
     22 N         173.9100   12.0300    9.7700 N.am      2 ALA2        0.0000 
     23 N         175.7700   14.1600    4.2800 N.am      2 ALA2        0.0000 
     24 N         171.0800   18.2200   13.2700 N.am      2 ALA2        0.0000 
     25 N         170.5600   16.5900   15.7300 N.am      2 ALA2        0.0000 
     26 O         170.3000   15.7700   16.9600 O.2       2 ALA2        0.0000 
     27 N         172.1600   17.9100   11.4700 N.am      2 ALA2        0.0000 
     28 N         171.9000   17.0900   12.7000 N.am      2 ALA2        0.0000 
     29 N         172.4500   15.1500   13.3600 N.am      2 ALA2        0.0000 
     30 O         172.1800   14.3400   14.5900 O.2       2 ALA2        0.0000 
     31 O         171.9200   13.5200   15.8200 O.2       2 ALA2        0.0000 
     32 O         173.2600   14.0300   12.7900 O.2       2 ALA2        0.0000 
     33 O         174.0700   12.9000   12.2100 O.2       2 ALA2        0.0000 
     34 N         175.6700   14.2200    7.9500 N.am      2 ALA2        0.0000 
     35 N         175.4100   13.4100    9.1800 N.am      2 ALA2        0.0000 
     36 O         177.0000   14.7300    4.9100 O.2       2 ALA2        0.0000 
     37 O         176.7400   13.9200    6.1400 O.2       2 ALA2        0.0000 
     38 N         172.3200   18.7800   13.9100 N.am      2 ALA2        0.0000 
     39 N         172.0600   17.9700   15.1400 N.am      2 ALA2        0.0000 
     40 N         173.1300   17.6600   13.3300 N.am      2 ALA2        0.0000 
     41 N         172.6100   16.0300   15.8000 N.am      2 ALA2        0.0000 
     42 O         174.2300   13.7800   14.6600 O.2       2 ALA2        0.0000 
     43 O         173.9700   12.9600   15.8900 O.2       2 ALA2        0.0000 
     44 N         173.2900   18.5300   15.7800 N.am      2 ALA2        0.0000 
     45 N         174.1000   17.4100   15.2000 N.am      2 ALA2        0.0000 
     46 N         174.5200   19.1000   16.4100 N.am      2 ALA2        0.0000 
     47 N         175.3400   17.9800   15.8400 N.am      2 ALA2        0.0000 
     48 NZ        174.7900   19.9200   15.1800 N.4       3 LYS4        0.0000 
     49 CZ        174.2000   17.3500   11.5300 C.ar      4 PHE5        0.0000 
     50 CZ        175.0200   16.2200   10.9600 C.ar      4 PHE5        0.0000 
     51 CZ        174.3600   18.2300   13.9700 C.ar      4 PHE5        0.0000 
     52 CZ        175.1800   17.1000   13.4000 C.ar      4 PHE5        0.0000 
     53 CZ        175.9900   15.9800   12.8300 C.ar      4 PHE5        0.0000 
     54 CZ        177.3200   16.4800    9.7900 C.ar      4 PHE5        0.0000 
     55 CZ        175.6000   18.7900   14.6100 C.ar      4 PHE5        0.0000 
     56 CZ        176.4100   17.6700   14.0400 C.ar      4 PHE5        0.0000 
     57 CA        172.9100   15.8500    4.7800 C.3       5 GLY6        0.0000 
     58 CA        172.6500   15.0300    6.0100 C.3       5 GLY6        0.0000 
     59 CA        172.3900   14.2100    7.2400 C.3       5 GLY6        0.0000 
     60 CA        169.3300   16.0200   15.0900 C.3       5 GLY6        0.0000 
     61 CA        172.5500   15.0900    9.6900 C.3       5 GLY6        0.0000 
     62 CA        174.1500   16.4100    5.4200 C.3       5 GLY6        0.0000 
     63 CA        173.8800   15.6000    6.6500 C.3       5 GLY6        0.0000 
     64 CA        173.6200   14.7800    7.8800 C.3       5 GLY6        0.0000 
     65 CA        175.2200   16.1000    3.6200 C.3       5 GLY6        0.0000 
     66 CA        171.3700   15.4600   15.1600 C.3       5 GLY6        0.0000 
     67 CA        171.1100   14.6500   16.3900 C.3       5 GLY6        0.0000 
     68 CA        172.9700   16.7800   10.8900 C.3       5 GLY6        0.0000 
     69 CA        174.0400   16.4700    9.0900 C.3       5 GLY6        0.0000 
     70 CA        173.7800   15.6600   10.3200 C.3       5 GLY6        0.0000 
     71 CA        175.3800   16.9800    6.0600 C.3       5 GLY6        0.0000 
     72 CA        175.1200   16.1600    7.2900 C.3       5 GLY6        0.0000 
     73 CA        174.8600   15.3500    8.5200 C.3       5 GLY6        0.0000 
     74 CA        176.4500   16.6700    4.2500 C.3       5 GLY6        0.0000 
     75 CA        176.1900   15.8500    5.4800 C.3       5 GLY6        0.0000 
     76 CA        177.2700   15.5500    3.6800 C.3       5 GLY6        0.0000 
     77 CA        178.0800   14.4200    3.1100 C.3       5 GLY6        0.0000 
     78 CA        171.2400   19.0900   15.7100 C.3       5 GLY6        0.0000 
     79 CA        176.6100   17.5500    6.6900 C.3       5 GLY6        0.0000 
     80 CA        176.3500   16.7300    7.9300 C.3       5 GLY6        0.0000 
     81 CA        177.6900   17.2400    4.8900 C.3       5 GLY6        0.0000 
     82 CA        177.4300   16.4200    6.1200 C.3       5 GLY6        0.0000 
     83 CA        177.1600   15.6100    7.3500 C.3       5 GLY6        0.0000 
     84 CA        178.5000   16.1100    4.3200 C.3       5 GLY6        0.0000 
     85 CA        178.6600   16.9900    6.7600 C.3       5 GLY6        0.0000 
     86 DU        170.8200   17.4000   14.5000 H         6 CUB7        0.0000 
     87 DU        171.6300   16.2800   13.9300 H         6 CUB7        0.0000 
     88 DU        172.7100   15.9700   12.1300 H         6 CUB7        0.0000 
     89 DU        173.5200   14.8400   11.5500 H         6 CUB7        0.0000 
     90 DU        174.5900   14.5300    9.7500 H         6 CUB7        0.0000 
     91 DU        174.3300   13.7200   10.9800 H         6 CUB7        0.0000 
     92 DU        175.9300   15.0400    6.7200 H         6 CUB7        0.0000 
     93 DU        172.8700   16.8400   14.5700 H         6 CUB7        0.0000 
     94 DU        173.9400   16.5300   12.7600 H         6 CUB7        0.0000 
     95 DU        173.4200   14.9000   15.2300 H         6 CUB7        0.0000 
     96 DU        173.1600   14.0900   16.4600 H         6 CUB7        0.0000 
     97 DU        174.7500   15.4100   12.1900 H         6 CUB7        0.0000 
     98 DU        174.4900   14.5900   13.4200 H         6 CUB7        0.0000 
     99 DU        175.8300   15.1000   10.3900 H         6 CUB7        0.0000 
    100 DU        176.9000   14.7900    8.5900 H         6 CUB7        0.0000 
    101 DU        178.2400   15.3000    5.5500 H         6 CUB7        0.0000 
    102 DU        174.9100   16.2900   14.6300 H         6 CUB7        0.0000 
    103 DU        174.6500   15.4700   15.8600 H         6 CUB7        0.0000 
    104 DU        176.1500   16.8500   15.2700 H         6 CUB7        0.0000 
@<TRIPOS>BOND
@<TRIPOS>SUBSTRUCTURE
     1 SER1        1 GROUP   
     2 ALA2        7 GROUP   
     3 LYS4       48 GROUP   
     4 PHE5       49 GROUP   
     5 GLY6       57 GROUP   
     6 CUB7       86 GROUP   
@<TRIPOS>SET

