#    Name: 6gkz_2_SAH
#    Modification time : Fri May 22 19:25:30 2020

@<TRIPOS>MOLECULE
6gkz_2_SAH
   43    45     1     0     0
SMALL
NO_CHARGES


@<TRIPOS>ATOM
      1 N         168.3480   18.1550   13.0830 N.4       1 SAH501      0.0000 
      2 CA        168.7760   17.0830   13.9650 C.3       1 SAH501      0.0000 
      3 CB        170.2000   16.6510   13.6100 C.3       1 SAH501      0.0000 
      4 CG        171.2080   17.7240   13.1830 C.3       1 SAH501      0.0000 
      5 SD        172.9240   17.1610   13.4310 S.3       1 SAH501      0.0000 
      6 C         168.6640   17.4660   15.4420 C.2       1 SAH501      0.0000 
      7 O         169.0590   18.5510   15.8520 O.co2     1 SAH501      0.0000 
      8 OXT       168.1670   16.6990   16.2670 O.co2     1 SAH501      0.0000 
      9 C5'       173.2950   16.9620   11.6690 C.3       1 SAH501      0.0000 
     10 C4'       172.6230   15.6980   11.1410 C.3       1 SAH501      0.0000 
     11 O4'       172.5210   15.7150    9.7350 O.3       1 SAH501      0.0000 
     12 C3'       173.3460   14.4060   11.5080 C.3       1 SAH501      0.0000 
     13 O3'       172.8590   13.8780   12.7150 O.3       1 SAH501      0.0000 
     14 C2'       173.0180   13.4660   10.3790 C.3       1 SAH501      0.0000 
     15 O2'       171.9480   12.6430   10.8060 O.3       1 SAH501      0.0000 
     16 C1'       172.6110   14.3910    9.2380 C.3       1 SAH501      0.0000 
     17 N9        173.5940   14.4430    8.1480 N.pl3     1 SAH501      0.0000 
     18 C8        174.8930   14.8770    8.2090 C.2       1 SAH501      0.0000 
     19 N7        175.4390   14.7810    6.9640 N.2       1 SAH501      0.0000 
     20 C5        174.4940   14.3000    6.1190 C.ar      1 SAH501      0.0000 
     21 C6        174.4880   14.0070    4.7650 C.ar      1 SAH501      0.0000 
     22 N6        175.5700   14.1980    4.0110 N.pl3     1 SAH501      0.0000 
     23 N1        173.3350   13.5210    4.2000 N.ar      1 SAH501      0.0000 
     24 C2        172.1980   13.3250    4.9500 C.ar      1 SAH501      0.0000 
     25 N3        172.2060   13.6170    6.2880 N.ar      1 SAH501      0.0000 
     26 C4        173.3320   14.0960    6.8580 C.ar      1 SAH501      0.0000 
     27 H2        171.3210   12.8610    4.4990 H         1 SAH501      0.0000 
     28 HA        168.1900   16.3110   13.8200 H         1 SAH501      0.0000 
     29 HB1       170.1300   15.9170   12.8070 H         1 SAH501      0.0000 
     30 HB2       170.6100   16.1290   14.4750 H         1 SAH501      0.0000 
     31 HG1       171.0370   18.6310   13.7630 H         1 SAH501      0.0000 
     32 HG2       171.0540   17.9670   12.1320 H         1 SAH501      0.0000 
     33 H5'1      174.3730   16.8930   11.5240 H         1 SAH501      0.0000 
     34 H5'2      172.9320   17.8290   11.1160 H         1 SAH501      0.0000 
     35 H4'       171.6210   15.6510   11.5680 H         1 SAH501      0.0000 
     36 H3'       174.4210   14.5770   11.5530 H         1 SAH501      0.0000 
     37 HO3'      172.4190   13.0200   12.5430 H         1 SAH501      0.0000 
     38 H2'       173.8950   12.8800   10.1040 H         1 SAH501      0.0000 
     39 HO2'      171.1510   12.8400   10.2710 H         1 SAH501      0.0000 
     40 H1'       171.6430   14.0710    8.8520 H         1 SAH501      0.0000 
     41 H8        175.4040   15.2390    9.1010 H         1 SAH501      0.0000 
     42 HN61      176.4200   14.5660    4.4270 H         1 SAH501      0.0000 
     43 HN62      175.5460   13.9750    3.0220 H         1 SAH501      0.0000 
@<TRIPOS>BOND
     1    1    2 1    
     2    2    3 1    
     3    2    6 1    
     4    2   28 1    
     5    3    4 1    
     6    3   29 1    
     7    3   30 1    
     8    4    5 1    
     9    4   31 1    
    10    4   32 1    
    11    5    9 1    
    12    6    7 ar   
    13    6    8 ar   
    14    9   10 1    
    15    9   33 1    
    16    9   34 1    
    17   10   11 1    
    18   10   12 1    
    19   10   35 1    
    20   11   16 1    
    21   12   13 1    
    22   12   14 1    
    23   12   36 1    
    24   13   37 1    
    25   14   15 1    
    26   14   16 1    
    27   14   38 1    
    28   15   39 1    
    29   16   17 1    
    30   16   40 1    
    31   17   18 1    
    32   17   26 1    
    33   18   19 2    
    34   18   41 1    
    35   19   20 1    
    36   20   21 ar   
    37   20   26 ar   
    38   21   22 1    
    39   21   23 ar   
    40   22   42 1    
    41   22   43 1    
    42   23   24 ar   
    43   24   25 ar   
    44   24   27 1    
    45   25   26 ar   
@<TRIPOS>SUBSTRUCTURE
     1 SAH501      1 GROUP   
@<TRIPOS>SET

