#    Name: 6gkz_3_SAH
#    Modification time : Fri May 22 19:25:36 2020

@<TRIPOS>MOLECULE
6gkz_3_SAH
   43    45     1     0     0
SMALL
NO_CHARGES


@<TRIPOS>ATOM
      1 N         102.1310   41.6580   62.6130 N.4       1 SAH501      0.0000 
      2 CA        101.9570   40.2480   62.9210 C.3       1 SAH501      0.0000 
      3 CB        100.6540   39.7250   62.3260 C.3       1 SAH501      0.0000 
      4 CG        100.1970   40.3150   60.9990 C.3       1 SAH501      0.0000 
      5 SD         99.3340   39.1200   59.9460 S.3       1 SAH501      0.0000 
      6 C         103.1480   39.4090   62.4650 C.2       1 SAH501      0.0000 
      7 O         103.8690   39.7740   61.5380 O.co2     1 SAH501      0.0000 
      8 OXT       103.4230   38.3470   63.0270 O.co2     1 SAH501      0.0000 
      9 C5'        97.6790   39.6370   60.4840 C.3       1 SAH501      0.0000 
     10 C4'        97.3800   39.1450   61.9030 C.3       1 SAH501      0.0000 
     11 O4'        96.5820   40.0970   62.5860 O.3       1 SAH501      0.0000 
     12 C3'        96.6880   37.7840   62.0190 C.3       1 SAH501      0.0000 
     13 O3'        97.6220   36.7300   62.1300 O.3       1 SAH501      0.0000 
     14 C2'        95.8570   37.9330   63.2770 C.3       1 SAH501      0.0000 
     15 O2'        96.5630   37.4580   64.4160 O.3       1 SAH501      0.0000 
     16 C1'        95.6180   39.4340   63.3800 C.3       1 SAH501      0.0000 
     17 N9         94.2680   39.7920   62.9050 N.pl3     1 SAH501      0.0000 
     18 C8         93.7440   39.6760   61.6340 C.2       1 SAH501      0.0000 
     19 N7         92.4650   40.1330   61.6540 N.2       1 SAH501      0.0000 
     20 C5         92.1780   40.5310   62.9230 C.ar      1 SAH501      0.0000 
     21 C6         91.0410   41.0670   63.5200 C.ar      1 SAH501      0.0000 
     22 N6         89.9340   41.2840   62.8100 N.pl3     1 SAH501      0.0000 
     23 N1         91.0730   41.3720   64.8640 N.ar      1 SAH501      0.0000 
     24 C2         92.2020   41.1510   65.6260 C.ar      1 SAH501      0.0000 
     25 N3         93.3250   40.6190   65.0330 N.ar      1 SAH501      0.0000 
     26 C4         93.3080   40.3200   63.7100 C.ar      1 SAH501      0.0000 
     27 H2         92.2510   41.5250   66.6490 H         1 SAH501      0.0000 
     28 HA        101.8920   40.1520   63.8940 H         1 SAH501      0.0000 
     29 HB1        99.8650   39.8870   63.0610 H         1 SAH501      0.0000 
     30 HB2       100.7540   38.6470   62.2040 H         1 SAH501      0.0000 
     31 HG1       101.0650   40.6980   60.4630 H         1 SAH501      0.0000 
     32 HG2        99.5350   41.1590   61.1950 H         1 SAH501      0.0000 
     33 H5'1       96.9330   39.2370   59.7960 H         1 SAH501      0.0000 
     34 H5'2       97.6120   40.7240   60.4550 H         1 SAH501      0.0000 
     35 H4'        98.3350   39.0630   62.4210 H         1 SAH501      0.0000 
     36 H3'        96.0310   37.6330   61.1620 H         1 SAH501      0.0000 
     37 HO3'       97.5370   36.3090   63.0110 H         1 SAH501      0.0000 
     38 H2'        94.9060   37.4140   63.1580 H         1 SAH501      0.0000 
     39 HO2'       96.7440   38.2060   65.0230 H         1 SAH501      0.0000 
     40 H1'        95.7320   39.7330   64.4220 H         1 SAH501      0.0000 
     41 H8         94.2670   39.2840   60.7620 H         1 SAH501      0.0000 
     42 HN61       89.9140   41.0580   61.8210 H         1 SAH501      0.0000 
     43 HN62       89.1130   41.6780   63.2580 H         1 SAH501      0.0000 
@<TRIPOS>BOND
     1    1    2 1    
     2    2    3 1    
     3    2    6 1    
     4    2   28 1    
     5    3    4 1    
     6    3   29 1    
     7    3   30 1    
     8    4    5 1    
     9    4   31 1    
    10    4   32 1    
    11    5    9 1    
    12    6    7 ar   
    13    6    8 ar   
    14    9   10 1    
    15    9   33 1    
    16    9   34 1    
    17   10   11 1    
    18   10   12 1    
    19   10   35 1    
    20   11   16 1    
    21   12   13 1    
    22   12   14 1    
    23   12   36 1    
    24   13   37 1    
    25   14   15 1    
    26   14   16 1    
    27   14   38 1    
    28   15   39 1    
    29   16   17 1    
    30   16   40 1    
    31   17   18 1    
    32   17   26 1    
    33   18   19 2    
    34   18   41 1    
    35   19   20 1    
    36   20   21 ar   
    37   20   26 ar   
    38   21   22 1    
    39   21   23 ar   
    40   22   42 1    
    41   22   43 1    
    42   23   24 ar   
    43   24   25 ar   
    44   24   27 1    
    45   25   26 ar   
@<TRIPOS>SUBSTRUCTURE
     1 SAH501      1 GROUP   
@<TRIPOS>SET

