#    Name: 6gkz_4_SAH
#    Modification time : Fri May 22 19:25:42 2020

@<TRIPOS>MOLECULE
6gkz_4_SAH
   43    45     1     0     0
SMALL
NO_CHARGES


@<TRIPOS>ATOM
      1 N         121.3240    1.6420   44.9650 N.4       1 SAH501      0.0000 
      2 CA        121.3280    0.4640   45.8270 C.3       1 SAH501      0.0000 
      3 CB        122.5600   -0.4020   45.5690 C.3       1 SAH501      0.0000 
      4 CG        123.8690    0.3050   45.2120 C.3       1 SAH501      0.0000 
      5 SD        125.3200   -0.7380   45.5520 S.3       1 SAH501      0.0000 
      6 C         121.2540    0.8020   47.3160 C.2       1 SAH501      0.0000 
      7 O         122.0670    1.5720   47.8050 O.co2     1 SAH501      0.0000 
      8 OXT       120.3900    0.3200   48.0630 O.co2     1 SAH501      0.0000 
      9 C5'       125.6500   -1.1770   43.8200 C.3       1 SAH501      0.0000 
     10 C4'       124.6740   -2.2560   43.3400 C.3       1 SAH501      0.0000 
     11 O4'       124.4870   -2.2330   41.9360 O.3       1 SAH501      0.0000 
     12 C3'       125.0920   -3.6810   43.6890 C.3       1 SAH501      0.0000 
     13 O3'       124.7300   -4.0380   45.0040 O.3       1 SAH501      0.0000 
     14 C2'       124.3400   -4.4910   42.6670 C.3       1 SAH501      0.0000 
     15 O2'       123.0420   -4.7730   43.1540 O.3       1 SAH501      0.0000 
     16 C1'       124.2420   -3.5560   41.4820 C.3       1 SAH501      0.0000 
     17 N9        125.2350   -3.8230   40.4400 N.pl3     1 SAH501      0.0000 
     18 C8        126.5990   -3.6890   40.5150 C.2       1 SAH501      0.0000 
     19 N7        127.1150   -4.0040   39.3030 N.2       1 SAH501      0.0000 
     20 C5        126.0900   -4.3290   38.4670 C.ar      1 SAH501      0.0000 
     21 C6        126.0180   -4.7320   37.1340 C.ar      1 SAH501      0.0000 
     22 N6        127.1160   -4.8530   36.4070 N.pl3     1 SAH501      0.0000 
     23 N1        124.7980   -5.0010   36.5570 N.ar      1 SAH501      0.0000 
     24 C2        123.6460   -4.8820   37.2900 C.ar      1 SAH501      0.0000 
     25 N3        123.7110   -4.4800   38.6050 N.ar      1 SAH501      0.0000 
     26 C4        124.9080   -4.2110   39.1810 C.ar      1 SAH501      0.0000 
     27 H2        122.6930   -5.1920   36.8610 H         1 SAH501      0.0000 
     28 HA        120.5390   -0.0770   45.6130 H         1 SAH501      0.0000 
     29 HB1       122.3160   -1.0930   44.7630 H         1 SAH501      0.0000 
     30 HB2       122.7320   -1.0060   46.4600 H         1 SAH501      0.0000 
     31 HG1       123.9480    1.2280   45.7860 H         1 SAH501      0.0000 
     32 HG2       123.8580    0.5710   44.1550 H         1 SAH501      0.0000 
     33 H5'1      126.6730   -1.5410   43.7240 H         1 SAH501      0.0000 
     34 H5'2      125.5490   -0.2900   43.1940 H         1 SAH501      0.0000 
     35 H4'       123.7150   -2.0680   43.8230 H         1 SAH501      0.0000 
     36 H3'       126.1640   -3.7980   43.5340 H         1 SAH501      0.0000 
     37 HO3'      124.0560   -4.7490   44.9750 H         1 SAH501      0.0000 
     38 H2'       124.8890   -5.3960   42.4060 H         1 SAH501      0.0000 
     39 HO2'      122.3790   -4.2970   42.6100 H         1 SAH501      0.0000 
     40 H1'       123.2380   -3.6240   41.0630 H         1 SAH501      0.0000 
     41 H8        127.1700   -3.4340   41.4070 H         1 SAH501      0.0000 
     42 HN61      128.0220   -4.6520   36.8190 H         1 SAH501      0.0000 
     43 HN62      127.0530   -5.1440   35.4370 H         1 SAH501      0.0000 
@<TRIPOS>BOND
     1    1    2 1    
     2    2    3 1    
     3    2    6 1    
     4    2   28 1    
     5    3    4 1    
     6    3   29 1    
     7    3   30 1    
     8    4    5 1    
     9    4   31 1    
    10    4   32 1    
    11    5    9 1    
    12    6    7 ar   
    13    6    8 ar   
    14    9   10 1    
    15    9   33 1    
    16    9   34 1    
    17   10   11 1    
    18   10   12 1    
    19   10   35 1    
    20   11   16 1    
    21   12   13 1    
    22   12   14 1    
    23   12   36 1    
    24   13   37 1    
    25   14   15 1    
    26   14   16 1    
    27   14   38 1    
    28   15   39 1    
    29   16   17 1    
    30   16   40 1    
    31   17   18 1    
    32   17   26 1    
    33   18   19 2    
    34   18   41 1    
    35   19   20 1    
    36   20   21 ar   
    37   20   26 ar   
    38   21   22 1    
    39   21   23 ar   
    40   22   42 1    
    41   22   43 1    
    42   23   24 ar   
    43   24   25 ar   
    44   24   27 1    
    45   25   26 ar   
@<TRIPOS>SUBSTRUCTURE
     1 SAH501      1 GROUP   
@<TRIPOS>SET

