#    Name: 6nt7_1_1SY
#    Modification time : Fri May 22 19:27:37 2020

@<TRIPOS>MOLECULE
6nt7_1_1SY
   45    51     1     0     0
SMALL
NO_CHARGES


@<TRIPOS>ATOM
      1 C2         87.9260   81.3810  122.0200 C.ar      1 1SY401      0.0000 
      2 N01        85.5900   82.8640  124.1980 N.pl3     1 1SY401      0.0000 
      3 C6         86.2020   82.6770  122.9490 C.ar      1 1SY401      0.0000 
      4 N1         87.1710   81.7550  123.0960 N.ar      1 1SY401      0.0000 
      5 N3         87.6900   81.9450  120.8000 N.ar      1 1SY401      0.0000 
      6 C4         86.6920   82.8620  120.6650 C.ar      1 1SY401      0.0000 
      7 C5         85.9580   83.2420  121.7210 C.ar      1 1SY401      0.0000 
      8 N7         85.0590   84.1680  121.3140 N.2       1 1SY401      0.0000 
      9 C8         85.2470   84.3780  119.9920 C.2       1 1SY401      0.0000 
     10 N9         86.2590   83.5770  119.6140 N.pl3     1 1SY401      0.0000 
     11 C1'        86.7010   83.5380  118.3260 C.3       1 1SY401      0.0000 
     12 C2'        86.1560   82.2880  117.7210 C.3       1 1SY401      0.0000 
     13 O2'        87.1270   81.7770  116.8430 O.3       1 1SY401      0.0000 
     14 C3'        85.0630   82.7220  116.8860 C.3       1 1SY401      0.0000 
     15 C4'        85.5500   83.9860  116.4550 C.3       1 1SY401      0.0000 
     16 C16        84.3680   84.8980  115.9820 C.3       1 1SY401      0.0000 
     17 O17        83.5140   85.1820  117.1470 O.3       1 1SY401      0.0000 
     18 P18        82.1450   85.9720  116.8440 P.3       1 1SY401      0.0000 
     19 O19        82.1600   87.4130  117.3640 O.co2     1 1SY401      0.0000 
     20 O20        80.7220   85.1310  117.1760 O.3       1 1SY401      0.0000 
     21 C21        81.0230   83.7600  117.5080 C.3       1 1SY401      0.0000 
     22 C22        81.2240   82.9930  116.2920 C.3       1 1SY401      0.0000 
     23 O23        80.4330   83.6090  115.2840 O.3       1 1SY401      0.0000 
     24 C24        80.6940   81.6340  116.5670 C.3       1 1SY401      0.0000 
     25 C25        81.6890   80.6580  116.9780 C.3       1 1SY401      0.0000 
     26 O26        82.9870   81.2090  117.1930 O.3       1 1SY401      0.0000 
     27 P27        83.9690   80.5310  116.1280 P.3       1 1SY401      0.0000 
     28 O28        84.9890   81.7790  115.7850 O.3       1 1SY401      0.0000 
     29 O29        84.7210   79.4500  116.8770 O.co2     1 1SY401      0.0000 
     30 O30        83.3170   79.8560  114.9760 O.co2     1 1SY401      0.0000 
     31 O31        79.7180   81.8020  117.6110 O.3       1 1SY401      0.0000 
     32 C32        79.8850   83.1210  118.1400 C.3       1 1SY401      0.0000 
     33 N33        80.2590   82.9690  119.4940 N.pl3     1 1SY401      0.0000 
     34 C34        81.2790   82.2750  120.0360 C.2       1 1SY401      0.0000 
     35 N35        81.2330   82.4510  121.3740 N.2       1 1SY401      0.0000 
     36 C36        79.5900   83.5820  120.4820 C.2       1 1SY401      0.0000 
     37 C37        80.1790   83.2590  121.6400 C.2       1 1SY401      0.0000 
     38 C38        79.6290   83.8040  122.9300 C.2       1 1SY401      0.0000 
     39 N39        78.5030   84.6330  122.9090 N.2       1 1SY401      0.0000 
     40 C40        77.8860   84.9580  121.6680 C.2       1 1SY401      0.0000 
     41 N41        76.7520   85.7930  121.6300 N.pl3     1 1SY401      0.0000 
     42 N42        78.4100   84.4400  120.4420 N.pl3     1 1SY401      0.0000 
     43 O43        80.1620   83.5180  123.9630 O.2       1 1SY401      0.0000 
     44 O44        82.1440   86.1130  115.3090 O.co2     1 1SY401      0.0000 
     45 O4'        86.1060   84.6070  117.5880 O.3       1 1SY401      0.0000 
@<TRIPOS>BOND
     1    1    4 ar   
     2    1    5 ar   
     3    2    3 1    
     4    3    4 ar   
     5    3    7 ar   
     6    5    6 ar   
     7    6    7 ar   
     8    6   10 1    
     9    7    8 1    
    10    8    9 2    
    11    9   10 1    
    12   10   11 1    
    13   11   12 1    
    14   11   45 1    
    15   12   13 1    
    16   12   14 1    
    17   14   15 1    
    18   14   28 1    
    19   15   16 1    
    20   15   45 1    
    21   16   17 1    
    22   17   18 1    
    23   18   19 ar   
    24   18   20 1    
    25   18   44 ar   
    26   20   21 1    
    27   21   22 1    
    28   21   32 1    
    29   22   23 1    
    30   22   24 1    
    31   24   25 1    
    32   24   31 1    
    33   25   26 1    
    34   26   27 1    
    35   27   28 1    
    36   27   29 ar   
    37   27   30 ar   
    38   31   32 1    
    39   32   33 1    
    40   33   34 1    
    41   33   36 1    
    42   34   35 2    
    43   35   37 1    
    44   36   37 2    
    45   36   42 1    
    46   37   38 1    
    47   38   39 1    
    48   38   43 2    
    49   39   40 2    
    50   40   41 1    
    51   40   42 1    
@<TRIPOS>SUBSTRUCTURE
     1 1SY401      1 GROUP   
@<TRIPOS>SET

