#    Name: 6k32_1_UTP_CAVITY_N1_6
#    Modification time : Fri May 22 19:27:31 2020

@<TRIPOS>MOLECULE
6k32_1_UTP_CAVITY_N1_6
   94     0     5     0     0
SMALL
NO_CHARGES


@<TRIPOS>ATOM
      1 O        -285.4700 -331.0300 -193.0600 O.2       1 ALA2        0.0000 
      2 O        -288.0800 -332.0700 -185.4900 O.2       1 ALA2        0.0000 
      3 O        -288.8600 -331.0100 -186.2000 O.2       1 ALA2        0.0000 
      4 O        -284.5000 -329.9900 -192.5800 O.2       1 ALA2        0.0000 
      5 O        -282.8000 -330.8700 -189.4400 O.2       1 ALA2        0.0000 
      6 O        -283.5800 -329.8100 -190.1600 O.2       1 ALA2        0.0000 
      7 O        -284.3500 -328.7400 -190.8700 O.2       1 ALA2        0.0000 
      8 N        -285.1300 -327.6800 -191.5900 N.am      1 ALA2        0.0000 
      9 O        -282.8600 -331.7200 -187.5000 O.2       1 ALA2        0.0000 
     10 O        -283.6300 -330.6500 -188.2100 O.2       1 ALA2        0.0000 
     11 O        -284.4100 -329.5900 -188.9300 O.2       1 ALA2        0.0000 
     12 O        -283.3800 -327.7100 -190.3900 O.2       1 ALA2        0.0000 
     13 N        -284.1600 -326.6400 -191.1100 N.am      1 ALA2        0.0000 
     14 N        -284.9900 -326.4300 -189.8800 N.am      1 ALA2        0.0000 
     15 OD1      -290.8400 -332.6300 -192.7600 O.co2     2 ASP3        0.0000 
     16 OD1      -290.9000 -333.4800 -190.8100 O.co2     2 ASP3        0.0000 
     17 OD1      -291.6800 -332.4100 -191.5300 O.co2     2 ASP3        0.0000 
     18 OD1      -289.9200 -332.4400 -190.3300 O.co2     2 ASP3        0.0000 
     19 OD1      -290.7000 -331.3800 -191.0500 O.co2     2 ASP3        0.0000 
     20 OD1      -291.5300 -331.1600 -189.8200 O.co2     2 ASP3        0.0000 
     21 OD1      -291.5900 -332.0100 -187.8800 O.co2     2 ASP3        0.0000 
     22 OD1      -292.3700 -330.9400 -188.5900 O.co2     2 ASP3        0.0000 
     23 OD1      -288.1700 -332.4700 -189.1400 O.co2     2 ASP3        0.0000 
     24 OD1      -288.9500 -331.4100 -189.8500 O.co2     2 ASP3        0.0000 
     25 OD1      -289.7200 -330.3400 -190.5700 O.co2     2 ASP3        0.0000 
     26 OD1      -290.5000 -329.2800 -191.2800 O.co2     2 ASP3        0.0000 
     27 OD1      -290.5600 -330.1300 -189.3400 O.co2     2 ASP3        0.0000 
     28 OD1      -291.3900 -329.9100 -188.1100 O.co2     2 ASP3        0.0000 
     29 OD1      -292.1700 -328.8500 -188.8300 O.co2     2 ASP3        0.0000 
     30 OD1      -284.7500 -332.9400 -190.4000 O.co2     2 ASP3        0.0000 
     31 OD1      -285.5300 -331.8700 -191.1200 O.co2     2 ASP3        0.0000 
     32 OD1      -286.3100 -330.8100 -191.8300 O.co2     2 ASP3        0.0000 
     33 OD1      -285.5800 -332.7200 -189.1700 O.co2     2 ASP3        0.0000 
     34 OD1      -286.3600 -331.6600 -189.8900 O.co2     2 ASP3        0.0000 
     35 OD1      -287.1400 -330.5900 -190.6000 O.co2     2 ASP3        0.0000 
     36 OD1      -287.1900 -331.4400 -188.6600 O.co2     2 ASP3        0.0000 
     37 OD1      -289.5800 -329.0900 -188.8600 O.co2     2 ASP3        0.0000 
     38 OD1      -291.1900 -327.8100 -188.3500 O.co2     2 ASP3        0.0000 
     39 OD1      -288.6100 -328.0600 -188.3800 O.co2     2 ASP3        0.0000 
     40 OD1      -288.6600 -328.9100 -186.4400 O.co2     2 ASP3        0.0000 
     41 OD1      -289.4400 -327.8400 -187.1500 O.co2     2 ASP3        0.0000 
     42 OD1      -283.5200 -328.9600 -192.1000 O.co2     2 ASP3        0.0000 
     43 OD1      -287.6300 -327.0300 -187.9000 O.co2     2 ASP3        0.0000 
     44 OD1      -288.4600 -326.8100 -186.6700 O.co2     2 ASP3        0.0000 
     45 NZ       -284.6600 -332.5400 -186.7500 N.4       3 LYS4        0.0000 
     46 NZ       -285.4400 -331.4700 -187.4700 N.4       3 LYS4        0.0000 
     47 NZ       -286.2200 -330.4100 -188.1800 N.4       3 LYS4        0.0000 
     48 NZ       -287.0000 -329.3400 -188.9000 N.4       3 LYS4        0.0000 
     49 NZ       -287.0500 -330.1900 -186.9500 N.4       3 LYS4        0.0000 
     50 NZ       -287.8300 -329.1200 -187.6700 N.4       3 LYS4        0.0000 
     51 NZ       -287.8900 -329.9700 -185.7200 N.4       3 LYS4        0.0000 
     52 NZ       -283.6900 -331.5000 -186.2700 N.4       3 LYS4        0.0000 
     53 NZ       -286.0200 -328.3100 -188.4200 N.4       3 LYS4        0.0000 
     54 NZ       -282.7100 -330.4700 -185.7900 N.4       3 LYS4        0.0000 
     55 CA       -289.8700 -331.6000 -192.2800 C.3       4 GLY6        0.0000 
     56 CA       -290.8100 -333.0700 -187.1600 C.3       4 GLY6        0.0000 
     57 CA       -288.8900 -330.5600 -191.8000 C.3       4 GLY6        0.0000 
     58 CA       -289.8400 -332.0400 -186.6800 C.3       4 GLY6        0.0000 
     59 CA       -290.6100 -330.9800 -187.4000 C.3       4 GLY6        0.0000 
     60 CA       -284.7000 -332.0900 -192.3400 C.3       4 GLY6        0.0000 
     61 CA       -283.9700 -334.0000 -189.6900 C.3       4 GLY6        0.0000 
     62 CA       -287.9200 -329.5300 -191.3200 C.3       4 GLY6        0.0000 
     63 CA       -288.7500 -329.3100 -190.0900 C.3       4 GLY6        0.0000 
     64 CA       -285.7000 -334.4200 -185.2900 C.3       4 GLY6        0.0000 
     65 CA       -289.6400 -329.9400 -186.9200 C.3       4 GLY6        0.0000 
     66 CA       -290.4200 -328.8800 -187.6300 C.3       4 GLY6        0.0000 
     67 CA       -283.7200 -331.0600 -191.8700 C.3       4 GLY6        0.0000 
     68 CA       -285.3300 -329.7800 -191.3500 C.3       4 GLY6        0.0000 
     69 CA       -286.1100 -328.7100 -192.0700 C.3       4 GLY6        0.0000 
     70 CA       -286.9400 -328.4900 -190.8400 C.3       4 GLY6        0.0000 
     71 CA       -287.7700 -328.2800 -189.6100 C.3       4 GLY6        0.0000 
     72 CA       -284.7200 -333.3800 -184.8100 C.3       4 GLY6        0.0000 
     73 CA       -285.5000 -332.3200 -185.5200 C.3       4 GLY6        0.0000 
     74 CA       -290.2700 -327.6300 -185.9300 C.3       4 GLY6        0.0000 
     75 CA       -285.9700 -327.4600 -190.3600 C.3       4 GLY6        0.0000 
     76 CA       -286.8000 -327.2400 -189.1300 C.3       4 GLY6        0.0000 
     77 DU       -291.7300 -333.2600 -189.5800 H         5 CUB7        0.0000 
     78 DU       -289.9800 -333.2900 -188.3900 H         5 CUB7        0.0000 
     79 DU       -290.7600 -332.2300 -189.1000 H         5 CUB7        0.0000 
     80 DU       -289.0000 -332.2600 -187.9100 H         5 CUB7        0.0000 
     81 DU       -289.7800 -331.1900 -188.6300 H         5 CUB7        0.0000 
     82 DU       -284.8100 -333.7900 -188.4600 H         5 CUB7        0.0000 
     83 DU       -286.4200 -332.5100 -187.9400 H         5 CUB7        0.0000 
     84 DU       -287.9700 -330.3800 -189.3700 H         5 CUB7        0.0000 
     85 DU       -288.0300 -331.2200 -187.4300 H         5 CUB7        0.0000 
     86 DU       -288.8100 -330.1600 -188.1500 H         5 CUB7        0.0000 
     87 DU       -283.0000 -332.9700 -189.2100 H         5 CUB7        0.0000 
     88 DU       -283.7800 -331.9100 -189.9200 H         5 CUB7        0.0000 
     89 DU       -284.5500 -330.8400 -190.6400 H         5 CUB7        0.0000 
     90 DU       -283.8300 -332.7500 -187.9800 H         5 CUB7        0.0000 
     91 DU       -284.6100 -331.6900 -188.6900 H         5 CUB7        0.0000 
     92 DU       -285.3900 -330.6200 -189.4100 H         5 CUB7        0.0000 
     93 DU       -286.1600 -329.5600 -190.1200 H         5 CUB7        0.0000 
     94 DU       -285.1900 -328.5200 -189.6400 H         5 CUB7        0.0000 
@<TRIPOS>BOND
@<TRIPOS>SUBSTRUCTURE
     1 ALA2        1 GROUP   
     2 ASP3       15 GROUP   
     3 LYS4       45 GROUP   
     4 GLY6       55 GROUP   
     5 CUB7       77 GROUP   
@<TRIPOS>SET

