#    Name: 6k32_1_UTP
#    Modification time : Fri May 22 19:27:29 2020

@<TRIPOS>MOLECULE
6k32_1_UTP
   29    30     1     0     0
SMALL
NO_CHARGES


@<TRIPOS>ATOM
      1 PA       -289.2170 -325.1530 -186.0690 P.3       1 UTP1306     0.0000 
      2 O1A      -287.7210 -325.2890 -185.9570 O.co2     1 UTP1306     0.0000 
      3 O2A      -289.8930 -325.3690 -184.7440 O.co2     1 UTP1306     0.0000 
      4 O3A      -289.8060 -326.1900 -187.1330 O.3       1 UTP1306     0.0000 
      5 O5'      -289.5870 -323.7050 -186.6330 O.3       1 UTP1306     0.0000 
      6 PB       -289.8180 -327.7340 -186.7050 P.3       1 UTP1306     0.0000 
      7 O1B      -290.8040 -328.2790 -185.4460 O.co2     1 UTP1306     0.0000 
      8 O2B      -288.3260 -327.8380 -186.4360 O.co2     1 UTP1306     0.0000 
      9 O3B      -290.0770 -328.4850 -188.1060 O.3       1 UTP1306     0.0000 
     10 PG       -289.4780 -329.9540 -188.3750 P.3       1 UTP1306     0.0000 
     11 O1G      -289.9060 -330.8790 -187.2630 O.co2     1 UTP1306     0.0000 
     12 O2G      -289.9860 -330.4660 -189.6990 O.co2     1 UTP1306     0.0000 
     13 O3G      -287.9750 -329.8980 -188.4420 O.co2     1 UTP1306     0.0000 
     14 C5'      -289.7360 -322.6270 -185.8410 C.3       1 UTP1306     0.0000 
     15 C4'      -288.4690 -321.7910 -185.8950 C.3       1 UTP1306     0.0000 
     16 O4'      -288.0960 -321.4910 -187.2310 O.3       1 UTP1306     0.0000 
     17 C1'      -287.2010 -320.3800 -187.1850 C.3       1 UTP1306     0.0000 
     18 C2'      -287.5150 -319.6340 -185.8860 C.3       1 UTP1306     0.0000 
     19 O2'      -286.7830 -319.0480 -185.1270 O.3       1 UTP1306     0.0000 
     20 C3'      -288.6300 -320.4320 -185.2570 C.3       1 UTP1306     0.0000 
     21 O3'      -288.4640 -320.5020 -183.8450 O.3       1 UTP1306     0.0000 
     22 N1       -287.1910 -319.6880 -188.4960 N.am      1 UTP1306     0.0000 
     23 C6       -286.6270 -320.4360 -189.4580 C.2       1 UTP1306     0.0000 
     24 C2       -287.6960 -318.4020 -188.8420 C.2       1 UTP1306     0.0000 
     25 O2       -288.2470 -317.5810 -188.0810 O.2       1 UTP1306     0.0000 
     26 N3       -287.5910 -317.9600 -190.0870 N.am      1 UTP1306     0.0000 
     27 C4       -287.0430 -318.6620 -191.0710 C.2       1 UTP1306     0.0000 
     28 O4       -286.9770 -318.1690 -192.2230 O.2       1 UTP1306     0.0000 
     29 C5       -286.5140 -319.9930 -190.7690 C.2       1 UTP1306     0.0000 
@<TRIPOS>BOND
     1    1    2 ar   
     2    1    3 ar   
     3    1    4 1    
     4    1    5 1    
     5    4    6 1    
     6    5   14 1    
     7    6    7 ar   
     8    6    8 ar   
     9    6    9 1    
    10    9   10 1    
    11   10   11 ar   
    12   10   12 ar   
    13   10   13 ar   
    14   14   15 1    
    15   15   16 1    
    16   15   20 1    
    17   16   17 1    
    18   17   18 1    
    19   17   22 1    
    20   18   19 1    
    21   18   20 1    
    22   20   21 1    
    23   22   23 1    
    24   22   24 1    
    25   23   29 2    
    26   24   25 2    
    27   24   26 1    
    28   26   27 1    
    29   27   28 2    
    30   27   29 1    
@<TRIPOS>SUBSTRUCTURE
     1 UTP1306     1 GROUP   
@<TRIPOS>SET

