#    Name: 6ffx_2_NAD
#    Modification time : Fri May 22 19:26:54 2020

@<TRIPOS>MOLECULE
6ffx_2_NAD
   44    48     1     0     1
SMALL
NO_CHARGES


@<TRIPOS>ATOM
      1 PA         96.8880  -33.8900  141.5050 P.3       1 NAD503      0.0000 
      2 O1A        96.6980  -35.3970  141.3340 O.co2     1 NAD503      0.0000 
      3 O2A        97.8330  -33.1660  140.5720 O.co2     1 NAD503      0.0000 
      4 O5B        97.3910  -33.5030  143.0070 O.3       1 NAD503      0.0000 
      5 C5B        96.6200  -32.8850  144.0570 C.3       1 NAD503      0.0000 
      6 C4B        97.4420  -32.1590  145.1430 C.3       1 NAD503      0.0000 
      7 O4B        96.7110  -32.1510  146.3790 O.3       1 NAD503      0.0000 
      8 C3B        98.8140  -32.7540  145.5080 C.3       1 NAD503      0.0000 
      9 O3B        99.7910  -31.6970  145.5770 O.3       1 NAD503      0.0000 
     10 C2B        98.6510  -33.4590  146.8590 C.3       1 NAD503      0.0000 
     11 O2B        99.8650  -33.4760  147.6300 O.3       1 NAD503      0.0000 
     12 C1B        97.5340  -32.6110  147.4830 C.3       1 NAD503      0.0000 
     13 N9A        96.6990  -33.2410  148.5620 N.pl3     1 NAD503      0.0000 
     14 C8A        96.1690  -34.4920  148.6190 C.2       1 NAD503      0.0000 
     15 N7A        95.4550  -34.6410  149.7690 N.2       1 NAD503      0.0000 
     16 C5A        95.5290  -33.4870  150.4750 C.ar      1 NAD503      0.0000 
     17 C6A        95.0150  -32.9320  151.7620 C.ar      1 NAD503      0.0000 
     18 N6A        94.2550  -33.6770  152.5860 N.pl3     1 NAD503      0.0000 
     19 N1A        95.3180  -31.6640  152.1260 N.ar      1 NAD503      0.0000 
     20 C2A        96.0810  -30.8800  151.3360 C.ar      1 NAD503      0.0000 
     21 N3A        96.5860  -31.3150  150.1510 N.ar      1 NAD503      0.0000 
     22 C4A        96.3530  -32.5730  149.6730 C.ar      1 NAD503      0.0000 
     23 O3         95.4290  -33.2060  141.3530 O.3       1 NAD503      0.0000 
     24 PN         94.8350  -32.3840  140.0790 P.3       1 NAD503      0.0000 
     25 O1N        95.0660  -33.1100  138.7870 O.co2     1 NAD503      0.0000 
     26 O2N        95.2700  -30.9330  140.2260 O.co2     1 NAD503      0.0000 
     27 O5D        93.2250  -32.4900  140.3110 O.3       1 NAD503      0.0000 
     28 C5D        92.6400  -32.2500  141.6080 C.3       1 NAD503      0.0000 
     29 C4D        91.1470  -32.6010  141.6920 C.3       1 NAD503      0.0000 
     30 O4D        90.3810  -31.7360  140.8310 O.3       1 NAD503      0.0000 
     31 C3D        90.7960  -34.0360  141.3010 C.3       1 NAD503      0.0000 
     32 O3D        89.9300  -34.6150  142.2880 O.3       1 NAD503      0.0000 
     33 C2D        90.1130  -33.9090  139.9440 C.3       1 NAD503      0.0000 
     34 O2D        89.1800  -34.9710  139.6740 O.3       1 NAD503      0.0000 
     35 C1D        89.4680  -32.5230  140.0460 C.3       1 NAD503      0.0000 
     36 N1N        89.1230  -31.8120  138.7870 N.pl3     1 NAD503      0.0000 
     37 C2N        87.9250  -31.1930  138.7560 C.ar      1 NAD503      0.0000 
     38 C3N        87.4670  -30.4870  137.6470 C.ar      1 NAD503      0.0000 
     39 C7N        86.0990  -29.8290  137.7070 C.2       1 NAD503      0.0000 
     40 O7N        85.3740  -29.8070  136.7170 O.2       1 NAD503      0.0000 
     41 N7N        85.6830  -29.2550  138.8440 N.am      1 NAD503      0.0000 
     42 C4N        88.3060  -30.4100  136.5260 C.ar      1 NAD503      0.0000 
     43 C5N        89.5560  -31.0460  136.5660 C.ar      1 NAD503      0.0000 
     44 C6N        89.9450  -31.7430  137.7130 C.ar      1 NAD503      0.0000 
@<TRIPOS>BOND
     1    1    2 ar   
     2    1    3 ar   
     3    1    4 1    
     4    1   23 1    
     5    4    5 1    
     6    5    6 1    
     7    6    7 1    
     8    6    8 1    
     9    7   12 1    
    10    8    9 1    
    11    8   10 1    
    12   10   11 1    
    13   10   12 1    
    14   12   13 1    
    15   13   14 1    
    16   13   22 1    
    17   14   15 2    
    18   15   16 1    
    19   16   17 ar   
    20   16   22 ar   
    21   17   18 1    
    22   17   19 ar   
    23   19   20 ar   
    24   20   21 ar   
    25   21   22 ar   
    26   23   24 1    
    27   24   25 ar   
    28   24   26 ar   
    29   24   27 1    
    30   27   28 1    
    31   28   29 1    
    32   29   30 1    
    33   29   31 1    
    34   30   35 1    
    35   31   32 1    
    36   31   33 1    
    37   33   34 1    
    38   33   35 1    
    39   35   36 1    
    40   36   37 ar   
    41   36   44 ar   
    42   37   38 ar   
    43   38   39 1    
    44   38   42 ar   
    45   39   40 2    
    46   39   41 am   
    47   42   43 ar   
    48   43   44 ar   
@<TRIPOS>SUBSTRUCTURE
     1 NAD503      1 GROUP   
@<TRIPOS>SET
ATOM$ORANGE STATIC     ATOMS   COLORGROUP SYSTEM 
42 5 5 6 6 8 8 10 10 12 12 14 14 16 16 17 17 20 \
20 22 22 28 28 29 29 31 31 33 33 35 35 37 37 38 38 39 \
39 42 42 43 43 44 44 

