#    Name: 6ffx_4_NAD
#    Modification time : Fri May 22 19:27:11 2020

@<TRIPOS>MOLECULE
6ffx_4_NAD
   44    48     1     0     1
SMALL
NO_CHARGES


@<TRIPOS>ATOM
      1 PA         60.6920    5.3410  114.6070 P.3       1 NAD503      0.0000 
      2 O1A        60.7760    6.2240  113.3810 O.co2     1 NAD503      0.0000 
      3 O2A        59.9060    4.0590  114.4980 O.co2     1 NAD503      0.0000 
      4 O5B        60.1510    6.2790  115.8050 O.3       1 NAD503      0.0000 
      5 C5B        60.8340    7.4820  116.1990 C.3       1 NAD503      0.0000 
      6 C4B        60.2120    8.1280  117.4460 C.3       1 NAD503      0.0000 
      7 O4B        61.0210    9.2170  117.9340 O.3       1 NAD503      0.0000 
      8 C3B        58.8430    8.7220  117.1580 C.3       1 NAD503      0.0000 
      9 O3B        57.9580    8.4790  118.2600 O.3       1 NAD503      0.0000 
     10 C2B        59.1390   10.2030  117.0030 C.3       1 NAD503      0.0000 
     11 O2B        57.9730   11.0180  117.1890 O.3       1 NAD503      0.0000 
     12 C1B        60.2400   10.4050  118.0530 C.3       1 NAD503      0.0000 
     13 N9A        61.0120   11.6770  117.9020 N.pl3     1 NAD503      0.0000 
     14 C8A        61.4540   12.2730  116.7630 C.2       1 NAD503      0.0000 
     15 N7A        62.0870   13.4500  117.0420 N.2       1 NAD503      0.0000 
     16 C5A        62.0620   13.6310  118.3830 C.ar      1 NAD503      0.0000 
     17 C6A        62.5420   14.6480  119.3770 C.ar      1 NAD503      0.0000 
     18 N6A        63.2130   15.7760  119.0330 N.pl3     1 NAD503      0.0000 
     19 N1A        62.2800   14.4290  120.6830 N.ar      1 NAD503      0.0000 
     20 C2A        61.6090   13.3360  121.0910 C.ar      1 NAD503      0.0000 
     21 N3A        61.1510   12.3850  120.2530 N.ar      1 NAD503      0.0000 
     22 C4A        61.3420   12.4600  118.9250 C.ar      1 NAD503      0.0000 
     23 O3         62.1760    5.0060  115.1450 O.3       1 NAD503      0.0000 
     24 PN         62.6200    3.6160  115.8270 P.3       1 NAD503      0.0000 
     25 O1N        62.4850    2.4880  114.8210 O.co2     1 NAD503      0.0000 
     26 O2N        62.0620    3.5590  117.2480 O.co2     1 NAD503      0.0000 
     27 O5D        64.2010    3.8750  115.8980 O.3       1 NAD503      0.0000 
     28 C5D        64.7520    4.9750  116.6260 C.3       1 NAD503      0.0000 
     29 C4D        66.1970    5.2510  116.1800 C.3       1 NAD503      0.0000 
     30 O4D        67.0570    4.1900  116.6270 O.3       1 NAD503      0.0000 
     31 C3D        66.3550    5.4150  114.6620 C.3       1 NAD503      0.0000 
     32 O3D        66.7690    6.7630  114.3390 O.3       1 NAD503      0.0000 
     33 C2D        67.3300    4.2960  114.2700 C.3       1 NAD503      0.0000 
     34 O2D        68.3130    4.7360  113.3180 O.3       1 NAD503      0.0000 
     35 C1D        67.9660    3.8310  115.5920 C.3       1 NAD503      0.0000 
     36 N1N        68.2840    2.3980  115.7720 N.pl3     1 NAD503      0.0000 
     37 C2N        69.4620    2.1040  116.3670 C.ar      1 NAD503      0.0000 
     38 C3N        69.8870    0.7950  116.5930 C.ar      1 NAD503      0.0000 
     39 C7N        71.2140    0.5140  117.2620 C.2       1 NAD503      0.0000 
     40 O7N        71.8060   -0.5220  116.9810 O.2       1 NAD503      0.0000 
     41 N7N        71.7170    1.3650  118.1800 N.am      1 NAD503      0.0000 
     42 C4N        69.0430   -0.2470  116.2050 C.ar      1 NAD503      0.0000 
     43 C5N        67.8170    0.0600  115.6080 C.ar      1 NAD503      0.0000 
     44 C6N        67.4540    1.3980  115.4030 C.ar      1 NAD503      0.0000 
@<TRIPOS>BOND
     1    1    2 ar   
     2    1    3 ar   
     3    1    4 1    
     4    1   23 1    
     5    4    5 1    
     6    5    6 1    
     7    6    7 1    
     8    6    8 1    
     9    7   12 1    
    10    8    9 1    
    11    8   10 1    
    12   10   11 1    
    13   10   12 1    
    14   12   13 1    
    15   13   14 1    
    16   13   22 1    
    17   14   15 2    
    18   15   16 1    
    19   16   17 ar   
    20   16   22 ar   
    21   17   18 1    
    22   17   19 ar   
    23   19   20 ar   
    24   20   21 ar   
    25   21   22 ar   
    26   23   24 1    
    27   24   25 ar   
    28   24   26 ar   
    29   24   27 1    
    30   27   28 1    
    31   28   29 1    
    32   29   30 1    
    33   29   31 1    
    34   30   35 1    
    35   31   32 1    
    36   31   33 1    
    37   33   34 1    
    38   33   35 1    
    39   35   36 1    
    40   36   37 ar   
    41   36   44 ar   
    42   37   38 ar   
    43   38   39 1    
    44   38   42 ar   
    45   39   40 2    
    46   39   41 am   
    47   42   43 ar   
    48   43   44 ar   
@<TRIPOS>SUBSTRUCTURE
     1 NAD503      1 GROUP   
@<TRIPOS>SET
ATOM$ORANGE STATIC     ATOMS   COLORGROUP SYSTEM 
42 5 5 6 6 8 8 10 10 12 12 14 14 16 16 17 17 20 \
20 22 22 28 28 29 29 31 31 33 33 35 35 37 37 38 38 39 \
39 42 42 43 43 44 44 

