#    Name: 6ffx_3_NAD
#    Modification time : Fri May 22 19:27:02 2020

@<TRIPOS>MOLECULE
6ffx_3_NAD
   44    48     1     0     1
SMALL
NO_CHARGES


@<TRIPOS>ATOM
      1 PA         56.6280  -16.9610  159.6740 P.3       1 NAD503      0.0000 
      2 O1A        56.2740  -17.8230  160.8750 O.co2     1 NAD503      0.0000 
      3 O2A        56.0590  -15.5610  159.5520 O.co2     1 NAD503      0.0000 
      4 O5B        56.2300  -17.7940  158.3590 O.3       1 NAD503      0.0000 
      5 C5B        56.4450  -19.1920  158.2390 C.3       1 NAD503      0.0000 
      6 C4B        55.9280  -19.6290  156.8760 C.3       1 NAD503      0.0000 
      7 O4B        56.6390  -20.7860  156.4180 O.3       1 NAD503      0.0000 
      8 C3B        54.4620  -20.0320  156.9230 C.3       1 NAD503      0.0000 
      9 O3B        53.8300  -19.6220  155.7130 O.3       1 NAD503      0.0000 
     10 C2B        54.5010  -21.5420  157.0260 C.3       1 NAD503      0.0000 
     11 O2B        53.2790  -22.1420  156.5940 O.3       1 NAD503      0.0000 
     12 C1B        55.7180  -21.8450  156.1400 C.3       1 NAD503      0.0000 
     13 N9A        56.2880  -23.1950  156.3500 N.pl3     1 NAD503      0.0000 
     14 C8A        56.5430  -23.8060  157.5280 C.2       1 NAD503      0.0000 
     15 N7A        57.0330  -25.0630  157.3280 N.2       1 NAD503      0.0000 
     16 C5A        57.1070  -25.2690  156.0010 C.ar      1 NAD503      0.0000 
     17 C6A        57.5430  -26.3700  155.1020 C.ar      1 NAD503      0.0000 
     18 N6A        58.0120  -27.5440  155.5730 N.pl3     1 NAD503      0.0000 
     19 N1A        57.4490  -26.1740  153.7780 N.ar      1 NAD503      0.0000 
     20 C2A        56.9790  -25.0180  153.2740 C.ar      1 NAD503      0.0000 
     21 N3A        56.5680  -23.9750  154.0330 N.ar      1 NAD503      0.0000 
     22 C4A        56.6010  -24.0350  155.3730 C.ar      1 NAD503      0.0000 
     23 O3         58.2360  -16.8330  159.5000 O.3       1 NAD503      0.0000 
     24 PN         58.9950  -15.4810  158.9910 P.3       1 NAD503      0.0000 
     25 O1N        58.8980  -14.3990  160.0490 O.co2     1 NAD503      0.0000 
     26 O2N        58.6200  -15.2080  157.5390 O.co2     1 NAD503      0.0000 
     27 O5D        60.5520  -15.8950  159.0540 O.3       1 NAD503      0.0000 
     28 C5D        61.0760  -17.0630  158.4120 C.3       1 NAD503      0.0000 
     29 C4D        62.4740  -17.3850  158.9440 C.3       1 NAD503      0.0000 
     30 O4D        63.3690  -16.3160  158.6000 O.3       1 NAD503      0.0000 
     31 C3D        62.5360  -17.5820  160.4650 C.3       1 NAD503      0.0000 
     32 O3D        63.0170  -18.8940  160.7940 O.3       1 NAD503      0.0000 
     33 C2D        63.4460  -16.4540  160.9520 C.3       1 NAD503      0.0000 
     34 O2D        64.2600  -16.8300  162.0790 O.3       1 NAD503      0.0000 
     35 C1D        64.2560  -16.0870  159.6950 C.3       1 NAD503      0.0000 
     36 N1N        64.8330  -14.7190  159.6600 N.pl3     1 NAD503      0.0000 
     37 C2N        66.1300  -14.5730  159.2990 C.ar      1 NAD503      0.0000 
     38 C3N        66.7300  -13.3100  159.2650 C.ar      1 NAD503      0.0000 
     39 C7N        68.1610  -13.1520  158.8630 C.2       1 NAD503      0.0000 
     40 O7N        68.8520  -12.3490  159.4880 O.2       1 NAD503      0.0000 
     41 N7N        68.6060  -13.8800  157.8230 N.am      1 NAD503      0.0000 
     42 C4N        65.9970  -12.1790  159.5920 C.ar      1 NAD503      0.0000 
     43 C5N        64.6650  -12.3440  159.9520 C.ar      1 NAD503      0.0000 
     44 C6N        64.1030  -13.6230  159.9790 C.ar      1 NAD503      0.0000 
@<TRIPOS>BOND
     1    1    2 ar   
     2    1    3 ar   
     3    1    4 1    
     4    1   23 1    
     5    4    5 1    
     6    5    6 1    
     7    6    7 1    
     8    6    8 1    
     9    7   12 1    
    10    8    9 1    
    11    8   10 1    
    12   10   11 1    
    13   10   12 1    
    14   12   13 1    
    15   13   14 1    
    16   13   22 1    
    17   14   15 2    
    18   15   16 1    
    19   16   17 ar   
    20   16   22 ar   
    21   17   18 1    
    22   17   19 ar   
    23   19   20 ar   
    24   20   21 ar   
    25   21   22 ar   
    26   23   24 1    
    27   24   25 ar   
    28   24   26 ar   
    29   24   27 1    
    30   27   28 1    
    31   28   29 1    
    32   29   30 1    
    33   29   31 1    
    34   30   35 1    
    35   31   32 1    
    36   31   33 1    
    37   33   34 1    
    38   33   35 1    
    39   35   36 1    
    40   36   37 ar   
    41   36   44 ar   
    42   37   38 ar   
    43   38   39 1    
    44   38   42 ar   
    45   39   40 2    
    46   39   41 am   
    47   42   43 ar   
    48   43   44 ar   
@<TRIPOS>SUBSTRUCTURE
     1 NAD503      1 GROUP   
@<TRIPOS>SET
ATOM$ORANGE STATIC     ATOMS   COLORGROUP SYSTEM 
42 5 5 6 6 8 8 10 10 12 12 14 14 16 16 17 17 20 \
20 22 22 28 28 29 29 31 31 33 33 35 35 37 37 38 38 39 \
39 42 42 43 43 44 44 

