#    Name: 6ffx_1_NAD
#    Modification time : Fri May 22 19:26:45 2020

@<TRIPOS>MOLECULE
6ffx_1_NAD
   44    48     1     0     1
SMALL
NO_CHARGES


@<TRIPOS>ATOM
      1 PA        100.9900   16.0680  137.0950 P.3       1 NAD503      0.0000 
      2 O1A       101.2020   17.5600  136.8520 O.co2     1 NAD503      0.0000 
      3 O2A       101.5050   15.4320  138.3640 O.co2     1 NAD503      0.0000 
      4 O5B       101.5450   15.2400  135.8390 O.3       1 NAD503      0.0000 
      5 C5B       101.1750   15.5700  134.5060 C.3       1 NAD503      0.0000 
      6 C4B       101.7580   14.5580  133.5200 C.3       1 NAD503      0.0000 
      7 O4B       100.9990   14.6370  132.3160 O.3       1 NAD503      0.0000 
      8 C3B       103.2140   14.8390  133.1480 C.3       1 NAD503      0.0000 
      9 O3B       103.9700   13.6180  133.1410 O.3       1 NAD503      0.0000 
     10 C2B       103.1410   15.4700  131.7660 C.3       1 NAD503      0.0000 
     11 O2B       104.3080   15.2610  130.9580 O.3       1 NAD503      0.0000 
     12 C1B       101.8900   14.7970  131.2030 C.3       1 NAD503      0.0000 
     13 N9A       101.3030   15.5110  130.0250 N.pl3     1 NAD503      0.0000 
     14 C8A       101.0400   16.8440  129.8710 C.2       1 NAD503      0.0000 
     15 N7A       100.5230   17.0930  128.6320 N.2       1 NAD503      0.0000 
     16 C5A       100.4520   15.8990  127.9760 C.ar      1 NAD503      0.0000 
     17 C6A       100.0100   15.4070  126.6430 C.ar      1 NAD503      0.0000 
     18 N6A        99.5270   16.2510  125.7130 N.pl3     1 NAD503      0.0000 
     19 N1A       100.1040   14.0890  126.3650 N.ar      1 NAD503      0.0000 
     20 C2A       100.5820   13.2030  127.2660 C.ar      1 NAD503      0.0000 
     21 N3A       101.0110   13.5600  128.4950 N.ar      1 NAD503      0.0000 
     22 C4A       100.9690   14.8640  128.8990 C.ar      1 NAD503      0.0000 
     23 O3         99.4160   15.7390  136.9950 O.3       1 NAD503      0.0000 
     24 PN         98.5340   15.0770  138.1780 P.3       1 NAD503      0.0000 
     25 O1N        98.6840   15.8480  139.4740 O.co2     1 NAD503      0.0000 
     26 O2N        98.7760   13.5950  138.0780 O.co2     1 NAD503      0.0000 
     27 O5D        97.0240   15.3160  137.6700 O.3       1 NAD503      0.0000 
     28 C5D        96.6890   15.2050  136.2820 C.3       1 NAD503      0.0000 
     29 C4D        95.2690   15.7020  136.0610 C.3       1 NAD503      0.0000 
     30 O4D        94.3670   14.9400  136.8780 O.3       1 NAD503      0.0000 
     31 C3D        95.1120   17.1800  136.4230 C.3       1 NAD503      0.0000 
     32 O3D        94.4710   17.8760  135.3400 O.3       1 NAD503      0.0000 
     33 C2D        94.2970   17.1380  137.7160 C.3       1 NAD503      0.0000 
     34 O2D        93.5070   18.3160  137.9370 O.3       1 NAD503      0.0000 
     35 C1D        93.4710   15.8580  137.5160 C.3       1 NAD503      0.0000 
     36 N1N        92.8690   15.2380  138.7140 N.pl3     1 NAD503      0.0000 
     37 C2N        91.5770   14.8420  138.6460 C.ar      1 NAD503      0.0000 
     38 C3N        90.9290   14.2490  139.7310 C.ar      1 NAD503      0.0000 
     39 C7N        89.4850   13.8170  139.6180 C.2       1 NAD503      0.0000 
     40 O7N        88.7780   13.9420  140.5990 O.2       1 NAD503      0.0000 
     41 N7N        88.9870   13.2910  138.4820 N.am      1 NAD503      0.0000 
     42 C4N        91.6400   14.0550  140.9220 C.ar      1 NAD503      0.0000 
     43 C5N        92.9850   14.4420  140.9740 C.ar      1 NAD503      0.0000 
     44 C6N        93.5790   15.0380  139.8510 C.ar      1 NAD503      0.0000 
@<TRIPOS>BOND
     1    1    2 ar   
     2    1    3 ar   
     3    1    4 1    
     4    1   23 1    
     5    4    5 1    
     6    5    6 1    
     7    6    7 1    
     8    6    8 1    
     9    7   12 1    
    10    8    9 1    
    11    8   10 1    
    12   10   11 1    
    13   10   12 1    
    14   12   13 1    
    15   13   14 1    
    16   13   22 1    
    17   14   15 2    
    18   15   16 1    
    19   16   17 ar   
    20   16   22 ar   
    21   17   18 1    
    22   17   19 ar   
    23   19   20 ar   
    24   20   21 ar   
    25   21   22 ar   
    26   23   24 1    
    27   24   25 ar   
    28   24   26 ar   
    29   24   27 1    
    30   27   28 1    
    31   28   29 1    
    32   29   30 1    
    33   29   31 1    
    34   30   35 1    
    35   31   32 1    
    36   31   33 1    
    37   33   34 1    
    38   33   35 1    
    39   35   36 1    
    40   36   37 ar   
    41   36   44 ar   
    42   37   38 ar   
    43   38   39 1    
    44   38   42 ar   
    45   39   40 2    
    46   39   41 am   
    47   42   43 ar   
    48   43   44 ar   
@<TRIPOS>SUBSTRUCTURE
     1 NAD503      1 GROUP   
@<TRIPOS>SET
ATOM$ORANGE STATIC     ATOMS   COLORGROUP SYSTEM 
42 5 5 6 6 8 8 10 10 12 12 14 14 16 16 17 17 20 \
20 22 22 28 28 29 29 31 31 33 33 35 35 37 37 38 38 39 \
39 42 42 43 43 44 44 

