#    Name: 6i7p_6_SAH
#    Modification time : Fri May 22 19:32:10 2020

@<TRIPOS>MOLECULE
6i7p_6_SAH
   26    28     1     0     0
SMALL
NO_CHARGES


@<TRIPOS>ATOM
      1 N         -36.8010   45.9230   -2.9970 N.4       1 SAH1001     0.0000 
      2 CA        -38.0960   46.5870   -3.0830 C.3       1 SAH1001     0.0000 
      3 CB        -37.8900   48.0030   -3.6190 C.3       1 SAH1001     0.0000 
      4 CG        -36.8010   48.7840   -2.8810 C.3       1 SAH1001     0.0000 
      5 SD        -36.1180   50.1980   -3.7980 S.3       1 SAH1001     0.0000 
      6 C         -39.1010   45.7990   -3.9300 C.2       1 SAH1001     0.0000 
      7 O         -38.7400   45.1010   -4.8930 O.co2     1 SAH1001     0.0000 
      8 OXT       -40.3100   45.8430   -3.6450 O.co2     1 SAH1001     0.0000 
      9 C5'       -37.3130   51.3930   -3.1090 C.3       1 SAH1001     0.0000 
     10 C4'       -38.2640   52.0840   -4.1080 C.3       1 SAH1001     0.0000 
     11 O4'       -39.2590   52.8450   -3.4340 O.3       1 SAH1001     0.0000 
     12 C3'       -37.5780   53.0490   -5.0760 C.3       1 SAH1001     0.0000 
     13 O3'       -37.5520   52.5030   -6.3780 O.3       1 SAH1001     0.0000 
     14 C2'       -38.3950   54.3320   -5.0680 C.3       1 SAH1001     0.0000 
     15 O2'       -38.8440   54.6660   -6.3690 O.3       1 SAH1001     0.0000 
     16 C1'       -39.5510   54.0590   -4.1140 C.3       1 SAH1001     0.0000 
     17 N9        -39.6480   55.1730   -3.1460 N.pl3     1 SAH1001     0.0000 
     18 C8        -38.5790   55.7880   -2.5480 C.2       1 SAH1001     0.0000 
     19 N7        -39.0430   56.7570   -1.7250 N.2       1 SAH1001     0.0000 
     20 C5        -40.3940   56.7830   -1.7820 C.ar      1 SAH1001     0.0000 
     21 C6        -41.3510   57.5770   -1.1450 C.ar      1 SAH1001     0.0000 
     22 N6        -40.9850   58.5330   -0.2900 N.pl3     1 SAH1001     0.0000 
     23 N1        -42.6920   57.3670   -1.4030 N.ar      1 SAH1001     0.0000 
     24 C2        -43.0670   56.3760   -2.2870 C.ar      1 SAH1001     0.0000 
     25 N3        -42.1150   55.5960   -2.9210 N.ar      1 SAH1001     0.0000 
     26 C4        -40.7920   55.7900   -2.6750 C.ar      1 SAH1001     0.0000 
@<TRIPOS>BOND
     1    1    2 1    
     2    2    3 1    
     3    2    6 1    
     4    3    4 1    
     5    4    5 1    
     6    5    9 1    
     7    6    7 ar   
     8    6    8 ar   
     9    9   10 1    
    10   10   11 1    
    11   10   12 1    
    12   11   16 1    
    13   12   13 1    
    14   12   14 1    
    15   14   15 1    
    16   14   16 1    
    17   16   17 1    
    18   17   18 1    
    19   17   26 1    
    20   18   19 2    
    21   19   20 1    
    22   20   21 ar   
    23   20   26 ar   
    24   21   22 1    
    25   21   23 ar   
    26   23   24 ar   
    27   24   25 ar   
    28   25   26 ar   
@<TRIPOS>SUBSTRUCTURE
     1 SAH1001     1 GROUP   
@<TRIPOS>SET

