#    Name: 6i7p_2_SAH
#    Modification time : Fri May 22 19:31:15 2020

@<TRIPOS>MOLECULE
6i7p_2_SAH
   26    28     1     0     0
SMALL
NO_CHARGES


@<TRIPOS>ATOM
      1 N         -13.2890  130.2490 -136.9550 N.4       1 SAH1001     0.0000 
      2 CA        -13.3740  130.9890 -138.2110 C.3       1 SAH1001     0.0000 
      3 CB        -14.8070  131.4950 -138.4450 C.3       1 SAH1001     0.0000 
      4 CG        -15.8580  131.1240 -137.3860 C.3       1 SAH1001     0.0000 
      5 SD        -17.5900  131.3420 -137.9050 S.3       1 SAH1001     0.0000 
      6 C         -12.3590  132.1350 -138.2190 C.2       1 SAH1001     0.0000 
      7 O         -12.7130  133.3140 -138.2550 O.co2     1 SAH1001     0.0000 
      8 OXT       -11.1490  131.8990 -138.1890 O.co2     1 SAH1001     0.0000 
      9 C5'       -17.9550  129.5680 -137.7000 C.3       1 SAH1001     0.0000 
     10 C4'       -18.3070  128.7290 -138.9430 C.3       1 SAH1001     0.0000 
     11 O4'       -18.6980  127.4130 -138.5510 O.3       1 SAH1001     0.0000 
     12 C3'       -19.4610  129.2990 -139.7650 C.3       1 SAH1001     0.0000 
     13 O3'       -19.0140  129.7260 -141.0340 O.3       1 SAH1001     0.0000 
     14 C2'       -20.4750  128.1740 -139.9080 C.3       1 SAH1001     0.0000 
     15 O2'       -20.7690  127.9230 -141.2640 O.3       1 SAH1001     0.0000 
     16 C1'       -19.8610  126.9520 -139.2310 C.3       1 SAH1001     0.0000 
     17 N9        -20.8810  126.4040 -138.3010 N.pl3     1 SAH1001     0.0000 
     18 C8        -22.0430  127.0540 -137.9480 C.2       1 SAH1001     0.0000 
     19 N7        -22.7560  126.2850 -137.0880 N.2       1 SAH1001     0.0000 
     20 C5        -22.0690  125.1360 -136.8760 C.ar      1 SAH1001     0.0000 
     21 C6        -22.3480  124.0170 -136.0850 C.ar      1 SAH1001     0.0000 
     22 N6        -23.4680  123.9580 -135.3640 N.pl3     1 SAH1001     0.0000 
     23 N1        -21.4470  122.9680 -136.0590 N.ar      1 SAH1001     0.0000 
     24 C2        -20.2850  123.0400 -136.8130 C.ar      1 SAH1001     0.0000 
     25 N3        -20.0100  124.1500 -137.5950 N.ar      1 SAH1001     0.0000 
     26 C4        -20.8880  125.1900 -137.6340 C.ar      1 SAH1001     0.0000 
@<TRIPOS>BOND
     1    1    2 1    
     2    2    3 1    
     3    2    6 1    
     4    3    4 1    
     5    4    5 1    
     6    5    9 1    
     7    6    7 ar   
     8    6    8 ar   
     9    9   10 1    
    10   10   11 1    
    11   10   12 1    
    12   11   16 1    
    13   12   13 1    
    14   12   14 1    
    15   14   15 1    
    16   14   16 1    
    17   16   17 1    
    18   17   18 1    
    19   17   26 1    
    20   18   19 2    
    21   19   20 1    
    22   20   21 ar   
    23   20   26 ar   
    24   21   22 1    
    25   21   23 ar   
    26   23   24 ar   
    27   24   25 ar   
    28   25   26 ar   
@<TRIPOS>SUBSTRUCTURE
     1 SAH1001     1 GROUP   
@<TRIPOS>SET

