#    Name: 6i7p_3_SAH
#    Modification time : Fri May 22 19:31:30 2020

@<TRIPOS>MOLECULE
6i7p_3_SAH
   26    28     1     0     0
SMALL
NO_CHARGES


@<TRIPOS>ATOM
      1 N          -3.6940  101.9280  -98.8520 N.4       1 SAH1001     0.0000 
      2 CA         -3.8030  100.9380  -97.7770 C.3       1 SAH1001     0.0000 
      3 CB         -5.0450  100.0420  -97.9080 C.3       1 SAH1001     0.0000 
      4 CG         -5.4100   99.5200  -99.3000 C.3       1 SAH1001     0.0000 
      5 SD         -6.0210   97.8060  -99.3480 S.3       1 SAH1001     0.0000 
      6 C          -2.5340  100.1080  -97.7680 C.2       1 SAH1001     0.0000 
      7 O          -1.5060  100.5650  -98.2700 O.co2     1 SAH1001     0.0000 
      8 OXT        -2.4990   98.9910  -97.2490 O.co2     1 SAH1001     0.0000 
      9 C5'        -7.7310   98.3550  -99.6270 C.3       1 SAH1001     0.0000 
     10 C4'        -8.5630   98.5490  -98.3640 C.3       1 SAH1001     0.0000 
     11 O4'        -9.7220   99.3160  -98.6530 O.3       1 SAH1001     0.0000 
     12 C3'        -9.0410   97.2370  -97.7590 C.3       1 SAH1001     0.0000 
     13 O3'        -8.2540   96.8690  -96.6440 O.3       1 SAH1001     0.0000 
     14 C2'       -10.4750   97.5110  -97.3340 C.3       1 SAH1001     0.0000 
     15 O2'       -10.5670   97.4480  -95.9230 O.3       1 SAH1001     0.0000 
     16 C1'       -10.8300   98.9020  -97.8690 C.3       1 SAH1001     0.0000 
     17 N9        -12.0770   98.8590  -98.6890 N.pl3     1 SAH1001     0.0000 
     18 C8        -12.6850   97.7320  -99.1980 C.2       1 SAH1001     0.0000 
     19 N7        -13.8020   98.0780  -99.8860 N.2       1 SAH1001     0.0000 
     20 C5        -13.9280   99.4260  -99.8330 C.ar      1 SAH1001     0.0000 
     21 C6        -14.8810  100.3070 -100.3650 C.ar      1 SAH1001     0.0000 
     22 N6        -15.9210   99.8670 -101.0820 N.pl3     1 SAH1001     0.0000 
     23 N1        -14.7460  101.6630 -100.1400 N.ar      1 SAH1001     0.0000 
     24 C2        -13.6780  102.1250  -99.3990 C.ar      1 SAH1001     0.0000 
     25 N3        -12.7420  101.2540  -98.8720 N.ar      1 SAH1001     0.0000 
     26 C4        -12.8580   99.9240  -99.0830 C.ar      1 SAH1001     0.0000 
@<TRIPOS>BOND
     1    1    2 1    
     2    2    3 1    
     3    2    6 1    
     4    3    4 1    
     5    4    5 1    
     6    5    9 1    
     7    6    7 ar   
     8    6    8 ar   
     9    9   10 1    
    10   10   11 1    
    11   10   12 1    
    12   11   16 1    
    13   12   13 1    
    14   12   14 1    
    15   14   15 1    
    16   14   16 1    
    17   16   17 1    
    18   17   18 1    
    19   17   26 1    
    20   18   19 2    
    21   19   20 1    
    22   20   21 ar   
    23   20   26 ar   
    24   21   22 1    
    25   21   23 ar   
    26   23   24 ar   
    27   24   25 ar   
    28   25   26 ar   
@<TRIPOS>SUBSTRUCTURE
     1 SAH1001     1 GROUP   
@<TRIPOS>SET

