#    Name: 6i7p_5_SAH
#    Modification time : Fri May 22 19:31:57 2020

@<TRIPOS>MOLECULE
6i7p_5_SAH
   26    28     1     0     0
SMALL
NO_CHARGES


@<TRIPOS>ATOM
      1 N         -23.2720   54.0480  -32.2260 N.4       1 SAH1001     0.0000 
      2 CA        -22.7210   55.3980  -32.1150 C.3       1 SAH1001     0.0000 
      3 CB        -23.8010   56.3500  -31.5860 C.3       1 SAH1001     0.0000 
      4 CG        -25.0180   56.4880  -32.5020 C.3       1 SAH1001     0.0000 
      5 SD        -26.6300   56.1680  -31.7420 S.3       1 SAH1001     0.0000 
      6 C         -21.4640   55.4340  -31.2320 C.2       1 SAH1001     0.0000 
      7 O         -20.4400   56.0340  -31.5730 O.co2     1 SAH1001     0.0000 
      8 OXT       -21.4330   54.8540  -30.1460 O.co2     1 SAH1001     0.0000 
      9 C5'       -27.0540   57.9140  -31.9580 C.3       1 SAH1001     0.0000 
     10 C4'       -27.0010   58.7260  -30.6670 C.3       1 SAH1001     0.0000 
     11 O4'       -26.9850   60.1070  -30.9760 O.3       1 SAH1001     0.0000 
     12 C3'       -28.2220   58.4780  -29.7920 C.3       1 SAH1001     0.0000 
     13 O3'       -27.8270   57.8710  -28.5800 O.3       1 SAH1001     0.0000 
     14 C2'       -28.8720   59.8460  -29.5930 C.3       1 SAH1001     0.0000 
     15 O2'       -29.1360   60.1940  -28.2540 O.3       1 SAH1001     0.0000 
     16 C1'       -27.9040   60.8470  -30.1900 C.3       1 SAH1001     0.0000 
     17 N9        -28.7120   61.7530  -31.0250 N.pl3     1 SAH1001     0.0000 
     18 C8        -30.0340   61.5760  -31.3490 C.2       1 SAH1001     0.0000 
     19 N7        -30.4430   62.6020  -32.1340 N.2       1 SAH1001     0.0000 
     20 C5        -29.3970   63.4320  -32.3150 C.ar      1 SAH1001     0.0000 
     21 C6        -29.2680   64.6130  -33.0250 C.ar      1 SAH1001     0.0000 
     22 N6        -30.3200   65.0900  -33.6740 N.pl3     1 SAH1001     0.0000 
     23 N1        -28.0590   65.2790  -33.0560 N.ar      1 SAH1001     0.0000 
     24 C2        -26.9800   64.7540  -32.3700 C.ar      1 SAH1001     0.0000 
     25 N3        -27.1100   63.5710  -31.6600 N.ar      1 SAH1001     0.0000 
     26 C4        -28.3030   62.9180  -31.6280 C.ar      1 SAH1001     0.0000 
@<TRIPOS>BOND
     1    1    2 1    
     2    2    3 1    
     3    2    6 1    
     4    3    4 1    
     5    4    5 1    
     6    5    9 1    
     7    6    7 ar   
     8    6    8 ar   
     9    9   10 1    
    10   10   11 1    
    11   10   12 1    
    12   11   16 1    
    13   12   13 1    
    14   12   14 1    
    15   14   15 1    
    16   14   16 1    
    17   16   17 1    
    18   17   18 1    
    19   17   26 1    
    20   18   19 2    
    21   19   20 1    
    22   20   21 ar   
    23   20   26 ar   
    24   21   22 1    
    25   21   23 ar   
    26   23   24 ar   
    27   24   25 ar   
    28   25   26 ar   
@<TRIPOS>SUBSTRUCTURE
     1 SAH1001     1 GROUP   
@<TRIPOS>SET

