#    Name: 6i7p_4_SAH
#    Modification time : Fri May 22 19:31:44 2020

@<TRIPOS>MOLECULE
6i7p_4_SAH
   26    28     1     0     0
SMALL
NO_CHARGES


@<TRIPOS>ATOM
      1 N          -6.7370   81.8870  -71.2370 N.4       1 SAH1001     0.0000 
      2 CA         -5.6920   82.5870  -71.9790 C.3       1 SAH1001     0.0000 
      3 CB         -5.8730   84.1140  -71.9190 C.3       1 SAH1001     0.0000 
      4 CG         -6.4440   84.7400  -70.6410 C.3       1 SAH1001     0.0000 
      5 SD         -6.9850   86.4560  -70.8730 S.3       1 SAH1001     0.0000 
      6 C          -4.3350   82.1480  -71.4300 C.2       1 SAH1001     0.0000 
      7 O          -4.0090   80.9600  -71.4860 O.co2     1 SAH1001     0.0000 
      8 OXT        -3.5390   82.9360  -70.9150 O.co2     1 SAH1001     0.0000 
      9 C5'        -8.6720   86.0590  -70.3220 C.3       1 SAH1001     0.0000 
     10 C4'        -9.6730   85.6760  -71.4190 C.3       1 SAH1001     0.0000 
     11 O4'       -10.9210   85.3150  -70.8410 O.3       1 SAH1001     0.0000 
     12 C3'        -9.9730   86.7990  -72.4030 C.3       1 SAH1001     0.0000 
     13 O3'        -9.2930   86.5640  -73.6130 O.3       1 SAH1001     0.0000 
     14 C2'       -11.4840   86.7850  -72.6010 C.3       1 SAH1001     0.0000 
     15 O2'       -11.8410   86.4710  -73.9280 O.3       1 SAH1001     0.0000 
     16 C1'       -12.0180   85.7040  -71.6670 C.3       1 SAH1001     0.0000 
     17 N9        -13.2110   86.2180  -70.9220 N.pl3     1 SAH1001     0.0000 
     18 C8        -13.3440   87.4930  -70.4170 C.2       1 SAH1001     0.0000 
     19 N7        -14.5510   87.6250  -69.8180 N.2       1 SAH1001     0.0000 
     20 C5        -15.2120   86.4550  -69.9300 C.ar      1 SAH1001     0.0000 
     21 C6        -16.4760   86.0720  -69.4910 C.ar      1 SAH1001     0.0000 
     22 N6        -17.2320   86.9550  -68.8350 N.pl3     1 SAH1001     0.0000 
     23 N1        -16.9270   84.7860  -69.7410 N.ar      1 SAH1001     0.0000 
     24 C2        -16.1130   83.9000  -70.4200 C.ar      1 SAH1001     0.0000 
     25 N3        -14.8600   84.2920  -70.8600 N.ar      1 SAH1001     0.0000 
     26 C4        -14.3980   85.5540  -70.6210 C.ar      1 SAH1001     0.0000 
@<TRIPOS>BOND
     1    1    2 1    
     2    2    3 1    
     3    2    6 1    
     4    3    4 1    
     5    4    5 1    
     6    5    9 1    
     7    6    7 ar   
     8    6    8 ar   
     9    9   10 1    
    10   10   11 1    
    11   10   12 1    
    12   11   16 1    
    13   12   13 1    
    14   12   14 1    
    15   14   15 1    
    16   14   16 1    
    17   16   17 1    
    18   17   18 1    
    19   17   26 1    
    20   18   19 2    
    21   19   20 1    
    22   20   21 ar   
    23   20   26 ar   
    24   21   22 1    
    25   21   23 ar   
    26   23   24 ar   
    27   24   25 ar   
    28   25   26 ar   
@<TRIPOS>SUBSTRUCTURE
     1 SAH1001     1 GROUP   
@<TRIPOS>SET

