#    Name: 6i7p_1_SAH
#    Modification time : Fri May 22 19:31:01 2020

@<TRIPOS>MOLECULE
6i7p_1_SAH
   26    28     1     0     0
SMALL
NO_CHARGES


@<TRIPOS>ATOM
      1 N         -27.7940  143.0650 -168.0370 N.4       1 SAH1001     0.0000 
      2 CA        -27.1900  142.7920 -166.7420 C.3       1 SAH1001     0.0000 
      3 CB        -26.1780  141.6550 -166.8290 C.3       1 SAH1001     0.0000 
      4 CG        -26.6910  140.3090 -166.3210 C.3       1 SAH1001     0.0000 
      5 SD        -25.5340  138.9660 -166.6830 S.3       1 SAH1001     0.0000 
      6 C         -26.5590  144.0820 -166.2520 C.2       1 SAH1001     0.0000 
      7 O         -27.2360  145.0970 -166.3080 O.co2     1 SAH1001     0.0000 
      8 OXT       -25.4090  144.1580 -165.8120 O.co2     1 SAH1001     0.0000 
      9 C5'       -26.9110  137.8100 -166.8720 C.3       1 SAH1001     0.0000 
     10 C4'       -27.6130  137.4000 -165.5770 C.3       1 SAH1001     0.0000 
     11 O4'       -28.9060  136.9490 -165.9500 O.3       1 SAH1001     0.0000 
     12 C3'       -26.9300  136.2580 -164.8140 C.3       1 SAH1001     0.0000 
     13 O3'       -26.3960  136.6640 -163.5660 O.3       1 SAH1001     0.0000 
     14 C2'       -28.0160  135.2210 -164.5810 C.3       1 SAH1001     0.0000 
     15 O2'       -28.2360  135.0640 -163.1910 O.3       1 SAH1001     0.0000 
     16 C1'       -29.2650  135.7450 -165.2920 C.3       1 SAH1001     0.0000 
     17 N9        -29.7170  134.7740 -166.3100 N.pl3     1 SAH1001     0.0000 
     18 C8        -28.9540  133.7620 -166.8270 C.2       1 SAH1001     0.0000 
     19 N7        -29.6960  133.0820 -167.7260 N.2       1 SAH1001     0.0000 
     20 C5        -30.9160  133.6440 -167.8020 C.ar      1 SAH1001     0.0000 
     21 C6        -32.0280  133.3310 -168.5610 C.ar      1 SAH1001     0.0000 
     22 N6        -31.9860  132.3080 -169.4060 N.pl3     1 SAH1001     0.0000 
     23 N1        -33.1720  134.0810 -168.4350 N.ar      1 SAH1001     0.0000 
     24 C2        -33.1940  135.1350 -167.5570 C.ar      1 SAH1001     0.0000 
     25 N3        -32.0800  135.4370 -166.8030 N.ar      1 SAH1001     0.0000 
     26 C4        -30.9500  134.7070 -166.9190 C.ar      1 SAH1001     0.0000 
@<TRIPOS>BOND
     1    1    2 1    
     2    2    3 1    
     3    2    6 1    
     4    3    4 1    
     5    4    5 1    
     6    5    9 1    
     7    6    7 ar   
     8    6    8 ar   
     9    9   10 1    
    10   10   11 1    
    11   10   12 1    
    12   11   16 1    
    13   12   13 1    
    14   12   14 1    
    15   14   15 1    
    16   14   16 1    
    17   16   17 1    
    18   17   18 1    
    19   17   26 1    
    20   18   19 2    
    21   19   20 1    
    22   20   21 ar   
    23   20   26 ar   
    24   21   22 1    
    25   21   23 ar   
    26   23   24 ar   
    27   24   25 ar   
    28   25   26 ar   
@<TRIPOS>SUBSTRUCTURE
     1 SAH1001     1 GROUP   
@<TRIPOS>SET

