#    Name: 5ywb_11_ADP
#    Modification time : Fri May 22 19:33:34 2020

@<TRIPOS>MOLECULE
5ywb_11_ADP
   27    29     1     0     1
SMALL
NO_CHARGES


@<TRIPOS>ATOM
      1 PB         93.8870  207.7200  125.6320 P.3       1 ADP2501     0.0000 
      2 O1B        93.6440  208.5090  124.3680 O.co2     1 ADP2501     0.0000 
      3 O2B        94.4500  206.3570  125.3050 O.co2     1 ADP2501     0.0000 
      4 O3B        94.8260  208.4810  126.5380 O.co2     1 ADP2501     0.0000 
      5 PA         92.1450  206.2880  127.3460 P.3       1 ADP2501     0.0000 
      6 O1A        93.1370  206.2200  128.4820 O.co2     1 ADP2501     0.0000 
      7 O2A        92.1520  205.0010  126.5530 O.co2     1 ADP2501     0.0000 
      8 O3A        92.4760  207.5350  126.3830 O.3       1 ADP2501     0.0000 
      9 O5'        90.6700  206.5590  127.9290 O.3       1 ADP2501     0.0000 
     10 C5'        89.9690  205.6130  128.7270 C.3       1 ADP2501     0.0000 
     11 C4'        88.5780  206.1690  129.0030 C.3       1 ADP2501     0.0000 
     12 O4'        87.9240  205.3460  129.9700 O.3       1 ADP2501     0.0000 
     13 C3'        88.6560  207.5760  129.5700 C.3       1 ADP2501     0.0000 
     14 O3'        87.7260  208.4230  128.8910 O.3       1 ADP2501     0.0000 
     15 C2'        88.2720  207.4560  131.0290 C.3       1 ADP2501     0.0000 
     16 O2'        87.2330  208.3910  131.3330 O.3       1 ADP2501     0.0000 
     17 C1'        87.7760  206.0290  131.2160 C.3       1 ADP2501     0.0000 
     18 N9         88.5990  205.3470  132.2440 N.pl3     1 ADP2501     0.0000 
     19 C8         89.7410  204.6650  132.0280 C.2       1 ADP2501     0.0000 
     20 N7         90.2420  204.1700  133.1870 N.2       1 ADP2501     0.0000 
     21 C5         89.4010  204.5340  134.1730 C.ar      1 ADP2501     0.0000 
     22 C6         89.3290  204.3460  135.6400 C.ar      1 ADP2501     0.0000 
     23 N6         90.2800  203.6520  136.3050 N.pl3     1 ADP2501     0.0000 
     24 N1         88.2890  204.9000  136.2970 N.ar      1 ADP2501     0.0000 
     25 C2         87.3380  205.5990  135.6530 C.ar      1 ADP2501     0.0000 
     26 N3         87.3400  205.8080  134.3270 N.ar      1 ADP2501     0.0000 
     27 C4         88.3270  205.3130  133.5460 C.ar      1 ADP2501     0.0000 
@<TRIPOS>BOND
     1    1    2 ar   
     2    1    3 ar   
     3    1    4 ar   
     4    1    8 1    
     5    5    6 ar   
     6    5    7 ar   
     7    5    8 1    
     8    5    9 1    
     9    9   10 1    
    10   10   11 1    
    11   11   12 1    
    12   11   13 1    
    13   12   17 1    
    14   13   14 1    
    15   13   15 1    
    16   15   16 1    
    17   15   17 1    
    18   17   18 1    
    19   18   19 1    
    20   18   27 1    
    21   19   20 2    
    22   20   21 1    
    23   21   22 ar   
    24   21   27 ar   
    25   22   23 1    
    26   22   24 ar   
    27   24   25 ar   
    28   25   26 ar   
    29   26   27 ar   
@<TRIPOS>SUBSTRUCTURE
     1 ADP2501     1 GROUP   
@<TRIPOS>SET
ATOM$ORANGE STATIC     ATOMS   COLORGROUP SYSTEM 
20 10 10 11 11 13 13 15 15 17 17 19 19 21 21 22 22 25 \
25 27 27 

