#    Name: 5ywb_3_ADP_CAVITY_N1_8
#    Modification time : Fri May 22 19:31:57 2020

@<TRIPOS>MOLECULE
5ywb_3_ADP_CAVITY_N1_8
  100     0     7     0     0
SMALL
NO_CHARGES


@<TRIPOS>ATOM
      1 OG        106.5500  111.8100  130.4700 O.3       1 SER1        0.0000 
      2 OG        107.5200  110.7100  130.7700 O.3       1 SER1        0.0000 
      3 OG        105.6500  114.1800  127.0700 O.3       1 SER1        0.0000 
      4 OG        107.1400  113.1600  125.9600 O.3       1 SER1        0.0000 
      5 OG        106.5900  113.9200  130.6100 O.3       1 SER1        0.0000 
      6 OG        107.5600  112.8200  130.9100 O.3       1 SER1        0.0000 
      7 OG        105.1600  116.2100  128.6100 O.3       1 SER1        0.0000 
      8 OG        106.1400  115.1100  128.9100 O.3       1 SER1        0.0000 
      9 OG        107.1100  114.0100  129.2100 O.3       1 SER1        0.0000 
     10 OG        108.0800  112.9100  129.5000 O.3       1 SER1        0.0000 
     11 OG        106.6600  115.1900  127.5000 O.3       1 SER1        0.0000 
     12 OG        107.6300  114.0900  127.8000 O.3       1 SER1        0.0000 
     13 OG        109.6500  113.1500  125.2900 O.3       1 SER1        0.0000 
     14 OG        106.6300  116.0400  130.7500 O.3       1 SER1        0.0000 
     15 OG        110.6000  112.9000  128.8400 O.3       1 SER1        0.0000 
     16 OG        110.1400  114.0800  127.1300 O.3       1 SER1        0.0000 
     17 OG        111.1200  112.9800  127.4300 O.3       1 SER1        0.0000 
     18 OG        110.6700  114.1700  125.7300 O.3       1 SER1        0.0000 
     19 OG        111.6400  113.0600  126.0300 O.3       1 SER1        0.0000 
     20 OG        112.1600  113.1500  124.6200 O.3       1 SER1        0.0000 
     21 OG        111.1600  115.1000  127.5700 O.3       1 SER1        0.0000 
     22 OG        110.7100  116.2800  125.8700 O.3       1 SER1        0.0000 
     23 OG        111.6800  115.1800  126.1700 O.3       1 SER1        0.0000 
     24 OG        112.6600  114.0800  126.4700 O.3       1 SER1        0.0000 
     25 OG        112.1700  116.1100  128.0100 O.3       1 SER1        0.0000 
     26 OG        111.7200  117.3000  126.3100 O.3       1 SER1        0.0000 
     27 OG        112.7000  116.2000  126.6000 O.3       1 SER1        0.0000 
     28 O         107.4400  106.4700  130.4900 O.2       2 ALA2        0.0000 
     29 N         108.9800  107.5700  129.5200 N.am      2 ALA2        0.0000 
     30 N         109.9900  108.5900  129.9600 N.am      2 ALA2        0.0000 
     31 N         110.9600  107.4800  130.2600 N.am      2 ALA2        0.0000 
     32 N         110.5800  109.9300  125.4500 N.am      2 ALA2        0.0000 
     33 O         109.5100  110.6200  131.5000 O.2       2 ALA2        0.0000 
     34 O         110.4800  109.5200  131.8000 O.2       2 ALA2        0.0000 
     35 O         110.0300  110.7000  130.1000 O.2       2 ALA2        0.0000 
     36 O         108.1600  114.1700  126.4000 O.2       2 ALA2        0.0000 
     37 O         112.0500  109.7600  127.5900 O.2       2 ALA2        0.0000 
     38 N         111.6000  110.9500  125.8900 N.am      2 ALA2        0.0000 
     39 N         112.5700  109.8500  126.1900 N.am      2 ALA2        0.0000 
     40 N         112.1200  111.0300  124.4900 N.am      2 ALA2        0.0000 
     41 O         110.5200  111.6300  131.9400 O.2       2 ALA2        0.0000 
     42 O         109.1700  115.1900  126.8400 O.2       2 ALA2        0.0000 
     43 O         112.0900  111.8800  127.7300 O.2       2 ALA2        0.0000 
     44 O         112.6100  111.9600  126.3300 O.2       2 ALA2        0.0000 
     45 N         113.1400  112.0400  124.9200 N.am      2 ALA2        0.0000 
     46 O         111.2000  117.2100  127.7100 O.2       2 ALA2        0.0000 
     47 OD1       105.9400  107.4900  131.6000 O.co2     3 ASP3        0.0000 
     48 OD1       105.9800  109.6100  131.7400 O.co2     3 ASP3        0.0000 
     49 OD1       106.9600  108.5100  132.0300 O.co2     3 ASP3        0.0000 
     50 OD1       107.4800  108.5900  130.6300 O.co2     3 ASP3        0.0000 
     51 OD1       108.0000  108.6700  129.2300 O.co2     3 ASP3        0.0000 
     52 OD1       107.0000  110.6200  132.1700 O.co2     3 ASP3        0.0000 
     53 OD1       107.9700  109.5200  132.4700 O.co2     3 ASP3        0.0000 
     54 OD1       108.9400  108.4200  132.7700 O.co2     3 ASP3        0.0000 
     55 OD1       109.0200  109.6900  129.6600 O.co2     3 ASP3        0.0000 
     56 OD1       109.6100  111.0400  125.1500 O.co2     3 ASP3        0.0000 
     57 OD1       110.1300  111.1200  123.7500 O.co2     3 ASP3        0.0000 
     58 OD1       109.0600  111.8000  129.8000 O.co2     3 ASP3        0.0000 
     59 OD1       108.6100  112.9900  128.1000 O.co2     3 ASP3        0.0000 
     60 OD1       109.5800  111.8900  128.4000 O.co2     3 ASP3        0.0000 
     61 OD1       110.5500  110.7800  128.7000 O.co2     3 ASP3        0.0000 
     62 OD1       109.1300  113.0700  126.7000 O.co2     3 ASP3        0.0000 
     63 OD1       110.1000  111.9700  126.9900 O.co2     3 ASP3        0.0000 
     64 OD1       111.0800  110.8700  127.2900 O.co2     3 ASP3        0.0000 
     65 OD1       110.6300  112.0500  125.5900 O.co2     3 ASP3        0.0000 
     66 NZ        106.4600  107.5800  130.1900 N.4       4 LYS4        0.0000 
     67 NZ        111.1100  110.0200  124.0500 N.4       4 LYS4        0.0000 
     68 NZ        111.1500  112.1300  124.1900 N.4       4 LYS4        0.0000 
     69 CZ        105.6600  117.1400  130.4500 C.ar      5 PHE5        0.0000 
     70 CA        105.4900  108.6800  129.8900 C.3       6 GLY6        0.0000 
     71 CA        106.5100  109.6900  130.3300 C.3       6 GLY6        0.0000 
     72 CA        108.4500  107.4900  130.9300 C.3       6 GLY6        0.0000 
     73 CA        111.0000  109.6000  130.4000 C.3       6 GLY6        0.0000 
     74 CA        105.6900  116.2900  127.2100 C.3       6 GLY6        0.0000 
     75 CA        111.5300  109.6800  128.9900 C.3       6 GLY6        0.0000 
     76 CA        107.1800  115.2700  126.1000 C.3       6 GLY6        0.0000 
     77 CA        110.0000  111.5500  133.3400 C.3       6 GLY6        0.0000 
     78 CA        109.5500  112.7400  131.6400 C.3       6 GLY6        0.0000 
     79 CA        109.1000  113.9200  129.9400 C.3       6 GLY6        0.0000 
     80 CA        110.0700  112.8200  130.2400 C.3       6 GLY6        0.0000 
     81 CA        106.7000  117.3100  127.6400 C.3       6 GLY6        0.0000 
     82 CA        107.6800  116.2100  127.9400 C.3       6 GLY6        0.0000 
     83 CA        109.6200  114.0000  128.5400 C.3       6 GLY6        0.0000 
     84 CA        109.5900  114.8500  131.7800 C.3       6 GLY6        0.0000 
     85 CA        107.7200  118.3200  128.0800 C.3       6 GLY6        0.0000 
     86 CA        109.6600  116.1200  128.6800 C.3       6 GLY6        0.0000 
     87 CA        110.6400  115.0200  128.9700 C.3       6 GLY6        0.0000 
     88 CA        110.1900  116.2000  127.2700 C.3       6 GLY6        0.0000 
     89 CA        113.6300  112.9800  126.7600 C.3       6 GLY6        0.0000 
     90 CA        110.2300  118.3200  127.4100 C.3       6 GLY6        0.0000 
     91 CA        110.7500  118.4000  126.0100 C.3       6 GLY6        0.0000 
     92 DU        108.4900  109.6000  131.0700 H         7 CUB7        0.0000 
     93 DU        109.4700  108.5000  131.3600 H         7 CUB7        0.0000 
     94 DU        108.5400  111.7200  131.2100 H         7 CUB7        0.0000 
     95 DU        106.1800  117.2200  129.0500 H         7 CUB7        0.0000 
     96 DU        107.1500  116.1200  129.3500 H         7 CUB7        0.0000 
     97 DU        108.1300  115.0200  129.6400 H         7 CUB7        0.0000 
     98 DU        108.6500  115.1000  128.2400 H         7 CUB7        0.0000 
     99 DU        108.6900  117.2200  128.3800 H         7 CUB7        0.0000 
    100 DU        108.7300  119.3400  128.5200 H         7 CUB7        0.0000 
@<TRIPOS>BOND
@<TRIPOS>SUBSTRUCTURE
     1 SER1        1 GROUP   
     2 ALA2       28 GROUP   
     3 ASP3       47 GROUP   
     4 LYS4       66 GROUP   
     5 PHE5       69 GROUP   
     6 GLY6       70 GROUP   
     7 CUB7       92 GROUP   
@<TRIPOS>SET

