#    Name: 5ywb_6_ADP
#    Modification time : Fri May 22 19:32:35 2020

@<TRIPOS>MOLECULE
5ywb_6_ADP
   27    29     1     0     1
SMALL
NO_CHARGES


@<TRIPOS>ATOM
      1 PB        215.5250  107.0420  125.7490 P.3       1 ADP2502     0.0000 
      2 O1B       215.4550  107.0440  124.2410 O.co2     1 ADP2502     0.0000 
      3 O2B       216.7960  106.3710  126.2130 O.co2     1 ADP2502     0.0000 
      4 O3B       215.4690  108.4580  126.2730 O.co2     1 ADP2502     0.0000 
      5 PA        214.0560  105.9770  127.8900 P.3       1 ADP2502     0.0000 
      6 O1A       214.9980  104.8840  128.3370 O.co2     1 ADP2502     0.0000 
      7 O2A       214.3410  107.2560  128.6450 O.co2     1 ADP2502     0.0000 
      8 O3A       214.2560  106.2250  126.3120 O.3       1 ADP2502     0.0000 
      9 O5'       212.5380  105.5150  128.1660 O.3       1 ADP2502     0.0000 
     10 C5'       211.4640  106.0670  127.4080 C.3       1 ADP2502     0.0000 
     11 C4'       210.2640  106.3120  128.3140 C.3       1 ADP2502     0.0000 
     12 O4'       210.5250  105.7790  129.6150 O.3       1 ADP2502     0.0000 
     13 C3'       209.9880  107.7980  128.4790 C.3       1 ADP2502     0.0000 
     14 O3'       208.6360  108.0710  128.1030 O.3       1 ADP2502     0.0000 
     15 C2'       210.1980  108.0920  129.9500 C.3       1 ADP2502     0.0000 
     16 O2'       209.1290  108.8960  130.4560 O.3       1 ADP2502     0.0000 
     17 C1'       210.1950  106.7320  130.6260 C.3       1 ADP2502     0.0000 
     18 N9        211.2090  106.6820  131.7080 N.pl3     1 ADP2502     0.0000 
     19 C8        212.5420  106.6150  131.5310 C.2       1 ADP2502     0.0000 
     20 N7        213.1920  106.5780  132.7200 N.2       1 ADP2502     0.0000 
     21 C5        212.2610  106.6140  133.6880 C.ar      1 ADP2502     0.0000 
     22 C6        212.2630  106.6060  135.1660 C.ar      1 ADP2502     0.0000 
     23 N6        213.4290  106.5420  135.8490 N.pl3     1 ADP2502     0.0000 
     24 N1        211.0730  106.6580  135.8010 N.ar      1 ADP2502     0.0000 
     25 C2        209.9130  106.7180  135.1200 C.ar      1 ADP2502     0.0000 
     26 N3        209.8360  106.7310  133.7780 N.ar      1 ADP2502     0.0000 
     27 C4        210.9550  106.6820  133.0180 C.ar      1 ADP2502     0.0000 
@<TRIPOS>BOND
     1    1    2 ar   
     2    1    3 ar   
     3    1    4 ar   
     4    1    8 1    
     5    5    6 ar   
     6    5    7 ar   
     7    5    8 1    
     8    5    9 1    
     9    9   10 1    
    10   10   11 1    
    11   11   12 1    
    12   11   13 1    
    13   12   17 1    
    14   13   14 1    
    15   13   15 1    
    16   15   16 1    
    17   15   17 1    
    18   17   18 1    
    19   18   19 1    
    20   18   27 1    
    21   19   20 2    
    22   20   21 1    
    23   21   22 ar   
    24   21   27 ar   
    25   22   23 1    
    26   22   24 ar   
    27   24   25 ar   
    28   25   26 ar   
    29   26   27 ar   
@<TRIPOS>SUBSTRUCTURE
     1 ADP2502     1 GROUP   
@<TRIPOS>SET
ATOM$ORANGE STATIC     ATOMS   COLORGROUP SYSTEM 
20 10 10 11 11 13 13 15 15 17 17 19 19 21 21 22 22 25 \
25 27 27 

