#    Name: 5ywb_12_ADP_CAVITY_N1_4
#    Modification time : Fri May 22 19:33:53 2020

@<TRIPOS>MOLECULE
5ywb_12_ADP_CAVITY_N1_4
   61     0     7     0     0
SMALL
NO_CHARGES


@<TRIPOS>ATOM
      1 OG        112.2700  218.2000  127.6100 O.3       1 SER1        0.0000 
      2 OG        112.7900  218.2800  126.2000 O.3       1 SER1        0.0000 
      3 OG        113.7700  217.1800  126.5000 O.3       1 SER1        0.0000 
      4 OG        113.3100  218.3600  124.8000 O.3       1 SER1        0.0000 
      5 OG        113.2800  219.2200  128.0400 O.3       1 SER1        0.0000 
      6 OG        113.8100  219.3000  126.6400 O.3       1 SER1        0.0000 
      7 OG        114.7800  218.2000  126.9400 O.3       1 SER1        0.0000 
      8 OG        112.2800  221.1700  130.9900 O.3       1 SER1        0.0000 
      9 OG        112.8000  221.2500  129.5900 O.3       1 SER1        0.0000 
     10 OG        113.3300  221.3300  128.1800 O.3       1 SER1        0.0000 
     11 OG        113.8500  221.4100  126.7800 O.3       1 SER1        0.0000 
     12 OG        113.2900  222.1800  131.4300 O.3       1 SER1        0.0000 
     13 OG        113.8200  222.2600  130.0200 O.3       1 SER1        0.0000 
     14 OG        114.3400  222.3500  128.6200 O.3       1 SER1        0.0000 
     15 OG        114.8600  222.4300  127.2200 O.3       1 SER1        0.0000 
     16 OG        113.7900  223.1100  133.2700 O.3       1 SER1        0.0000 
     17 OG        115.2800  222.0900  132.1600 O.3       1 SER1        0.0000 
     18 OG        115.8100  222.1800  130.7600 O.3       1 SER1        0.0000 
     19 N         111.7800  217.2700  125.7600 N.am      2 ALA2        0.0000 
     20 O         114.3300  219.3800  125.2400 O.2       2 ALA2        0.0000 
     21 O         114.8200  220.3100  127.0800 O.2       2 ALA2        0.0000 
     22 O         114.3700  221.5000  125.3700 O.2       2 ALA2        0.0000 
     23 OD1       110.8000  218.3700  125.4700 O.co2     3 ASP3        0.0000 
     24 OD1       111.3300  218.4500  124.0600 O.co2     3 ASP3        0.0000 
     25 OD1       111.8200  219.3800  125.9000 O.co2     3 ASP3        0.0000 
     26 OD1       112.3400  219.4700  124.5000 O.co2     3 ASP3        0.0000 
     27 OD1       111.7900  220.2300  129.1500 O.co2     3 ASP3        0.0000 
     28 OD1       112.8300  220.4000  126.3400 O.co2     3 ASP3        0.0000 
     29 OD1       113.3600  220.4800  124.9400 O.co2     3 ASP3        0.0000 
     30 OD1       112.2500  222.0200  134.2300 O.co2     3 ASP3        0.0000 
     31 NZ        112.7000  220.8300  135.9300 N.4       4 LYS4        0.0000 
     32 NZ        113.2200  220.9200  134.5300 N.4       4 LYS4        0.0000 
     33 NZ        112.7400  222.9500  136.0700 N.4       4 LYS4        0.0000 
     34 NZ        113.2600  223.0300  134.6700 N.4       4 LYS4        0.0000 
     35 NZ        114.2400  221.9300  134.9700 N.4       4 LYS4        0.0000 
     36 NZ        115.7300  220.9100  133.8600 N.4       4 LYS4        0.0000 
     37 NZ        114.2500  224.9000  138.3500 N.4       4 LYS4        0.0000 
     38 CZ        114.7600  222.0100  133.5600 C.ar      5 PHE5        0.0000 
     39 CZ        116.3000  223.1100  132.6000 C.ar      5 PHE5        0.0000 
     40 CZ        114.7700  224.9800  136.9500 C.ar      5 PHE5        0.0000 
     41 CA        112.7600  219.1300  129.4500 C.3       6 GLY6        0.0000 
     42 CA        113.2500  220.0700  131.2900 C.3       6 GLY6        0.0000 
     43 CA        113.7800  220.1500  129.8800 C.3       6 GLY6        0.0000 
     44 CA        115.2700  219.1300  128.7800 C.3       6 GLY6        0.0000 
     45 CA        115.7900  219.2100  127.3700 C.3       6 GLY6        0.0000 
     46 CA        114.7200  219.9000  133.4300 C.3       6 GLY6        0.0000 
     47 CA        115.2400  219.9800  132.0200 C.3       6 GLY6        0.0000 
     48 CA        116.2100  218.8800  132.3200 C.3       6 GLY6        0.0000 
     49 CA        115.7600  220.0600  130.6200 C.3       6 GLY6        0.0000 
     50 CA        115.8400  221.3300  127.5100 C.3       6 GLY6        0.0000 
     51 CA        116.8100  220.2200  127.8100 C.3       6 GLY6        0.0000 
     52 CA        115.3900  222.5100  125.8100 C.3       6 GLY6        0.0000 
     53 CA        112.7800  225.0700  136.2100 C.3       6 GLY6        0.0000 
     54 DU        114.3000  220.2300  128.4800 H         7 CUB7        0.0000 
     55 DU        112.7700  222.1000  132.8300 H         7 CUB7        0.0000 
     56 DU        113.7500  221.0000  133.1300 H         7 CUB7        0.0000 
     57 DU        114.2700  221.0800  131.7200 H         7 CUB7        0.0000 
     58 DU        114.7900  221.1600  130.3200 H         7 CUB7        0.0000 
     59 DU        115.3100  221.2400  128.9200 H         7 CUB7        0.0000 
     60 DU        116.2900  220.1400  129.2100 H         7 CUB7        0.0000 
     61 DU        116.2600  220.9900  132.4600 H         7 CUB7        0.0000 
@<TRIPOS>BOND
@<TRIPOS>SUBSTRUCTURE
     1 SER1        1 GROUP   
     2 ALA2       19 GROUP   
     3 ASP3       23 GROUP   
     4 LYS4       31 GROUP   
     5 PHE5       38 GROUP   
     6 GLY6       41 GROUP   
     7 CUB7       54 GROUP   
@<TRIPOS>SET

