#    Name: 5ywb_5_ADP
#    Modification time : Fri May 22 19:32:16 2020

@<TRIPOS>MOLECULE
5ywb_5_ADP
   27    29     1     0     1
SMALL
NO_CHARGES


@<TRIPOS>ATOM
      1 PB        235.2730  121.4400  125.6320 P.3       1 ADP2501     0.0000 
      2 O1B       235.5160  120.6510  124.3680 O.co2     1 ADP2501     0.0000 
      3 O2B       234.7100  122.8030  125.3050 O.co2     1 ADP2501     0.0000 
      4 O3B       234.3340  120.6790  126.5380 O.co2     1 ADP2501     0.0000 
      5 PA        237.0150  122.8720  127.3460 P.3       1 ADP2501     0.0000 
      6 O1A       236.0230  122.9400  128.4820 O.co2     1 ADP2501     0.0000 
      7 O2A       237.0080  124.1590  126.5530 O.co2     1 ADP2501     0.0000 
      8 O3A       236.6840  121.6250  126.3830 O.3       1 ADP2501     0.0000 
      9 O5'       238.4900  122.6010  127.9290 O.3       1 ADP2501     0.0000 
     10 C5'       239.1910  123.5470  128.7270 C.3       1 ADP2501     0.0000 
     11 C4'       240.5820  122.9910  129.0030 C.3       1 ADP2501     0.0000 
     12 O4'       241.2360  123.8140  129.9700 O.3       1 ADP2501     0.0000 
     13 C3'       240.5040  121.5840  129.5700 C.3       1 ADP2501     0.0000 
     14 O3'       241.4340  120.7370  128.8910 O.3       1 ADP2501     0.0000 
     15 C2'       240.8880  121.7040  131.0290 C.3       1 ADP2501     0.0000 
     16 O2'       241.9270  120.7690  131.3330 O.3       1 ADP2501     0.0000 
     17 C1'       241.3840  123.1310  131.2160 C.3       1 ADP2501     0.0000 
     18 N9        240.5610  123.8130  132.2440 N.pl3     1 ADP2501     0.0000 
     19 C8        239.4190  124.4950  132.0280 C.2       1 ADP2501     0.0000 
     20 N7        238.9180  124.9900  133.1870 N.2       1 ADP2501     0.0000 
     21 C5        239.7590  124.6260  134.1730 C.ar      1 ADP2501     0.0000 
     22 C6        239.8310  124.8140  135.6400 C.ar      1 ADP2501     0.0000 
     23 N6        238.8800  125.5080  136.3050 N.pl3     1 ADP2501     0.0000 
     24 N1        240.8710  124.2600  136.2970 N.ar      1 ADP2501     0.0000 
     25 C2        241.8220  123.5610  135.6530 C.ar      1 ADP2501     0.0000 
     26 N3        241.8200  123.3520  134.3270 N.ar      1 ADP2501     0.0000 
     27 C4        240.8330  123.8470  133.5460 C.ar      1 ADP2501     0.0000 
@<TRIPOS>BOND
     1    1    2 ar   
     2    1    3 ar   
     3    1    4 ar   
     4    1    8 1    
     5    5    6 ar   
     6    5    7 ar   
     7    5    8 1    
     8    5    9 1    
     9    9   10 1    
    10   10   11 1    
    11   11   12 1    
    12   11   13 1    
    13   12   17 1    
    14   13   14 1    
    15   13   15 1    
    16   15   16 1    
    17   15   17 1    
    18   17   18 1    
    19   18   19 1    
    20   18   27 1    
    21   19   20 2    
    22   20   21 1    
    23   21   22 ar   
    24   21   27 ar   
    25   22   23 1    
    26   22   24 ar   
    27   24   25 ar   
    28   25   26 ar   
    29   26   27 ar   
@<TRIPOS>SUBSTRUCTURE
     1 ADP2501     1 GROUP   
@<TRIPOS>SET
ATOM$ORANGE STATIC     ATOMS   COLORGROUP SYSTEM 
20 10 10 11 11 13 13 15 15 17 17 19 19 21 21 22 22 25 \
25 27 27 

