#    Name: 5ywb_9_ADP_CAVITY_N1_4
#    Modification time : Fri May 22 19:33:16 2020

@<TRIPOS>MOLECULE
5ywb_9_ADP_CAVITY_N1_4
   87     0     7     0     0
SMALL
NO_CHARGES


@<TRIPOS>ATOM
      1 OG        218.2100  213.9600  128.3300 O.3       1 SER1        0.0000 
      2 OG        217.7600  215.1400  126.6300 O.3       1 SER1        0.0000 
      3 OG        218.7300  214.0400  126.9300 O.3       1 SER1        0.0000 
      4 OG        217.3000  216.3300  124.9300 O.3       1 SER1        0.0000 
      5 OG        218.2500  216.0800  128.4700 O.3       1 SER1        0.0000 
      6 OG        219.2900  216.2400  125.6600 O.3       1 SER1        0.0000 
      7 OG        221.6600  213.7000  131.2100 O.3       1 SER1        0.0000 
      8 OG        221.2100  214.8900  129.5000 O.3       1 SER1        0.0000 
      9 OG        222.1800  213.7900  129.8000 O.3       1 SER1        0.0000 
     10 OG        223.1600  212.6800  130.1000 O.3       1 SER1        0.0000 
     11 OG        221.7300  214.9700  128.1000 O.3       1 SER1        0.0000 
     12 OG        222.7000  213.8700  128.4000 O.3       1 SER1        0.0000 
     13 OG        223.6800  212.7700  128.7000 O.3       1 SER1        0.0000 
     14 OG        222.2500  215.0500  126.7000 O.3       1 SER1        0.0000 
     15 OG        223.2300  213.9500  127.0000 O.3       1 SER1        0.0000 
     16 OG        222.1500  214.6400  133.0500 O.3       1 SER1        0.0000 
     17 OG        222.6700  214.7200  131.6400 O.3       1 SER1        0.0000 
     18 OG        221.2500  217.0000  129.6400 O.3       1 SER1        0.0000 
     19 OG        222.2200  215.9000  129.9400 O.3       1 SER1        0.0000 
     20 OG        223.2000  214.8000  130.2400 O.3       1 SER1        0.0000 
     21 OG        224.6900  213.7800  129.1300 O.3       1 SER1        0.0000 
     22 OG        223.1700  215.6500  133.4800 O.3       1 SER1        0.0000 
     23 OG        222.7200  216.8400  131.7800 O.3       1 SER1        0.0000 
     24 OG        222.2600  218.0200  130.0800 O.3       1 SER1        0.0000 
     25 O         217.5700  210.5000  132.7000 O.2       2 ALA2        0.0000 
     26 O         218.0900  210.5800  131.3000 O.2       2 ALA2        0.0000 
     27 O         216.7800  216.2500  126.3300 O.2       2 ALA2        0.0000 
     28 O         217.8000  217.2600  126.7700 O.2       2 ALA2        0.0000 
     29 O         220.2700  215.1400  125.9600 O.2       2 ALA2        0.0000 
     30 O         222.7800  215.1300  125.2900 O.2       2 ALA2        0.0000 
     31 OD1       218.7700  216.1600  127.0700 O.co2     3 ASP3        0.0000 
     32 OD1       218.3200  217.3400  125.3700 O.co2     3 ASP3        0.0000 
     33 OD1       218.8400  217.4200  123.9600 O.co2     3 ASP3        0.0000 
     34 OD1       219.8200  216.3200  124.2600 O.co2     3 ASP3        0.0000 
     35 OD1       219.2600  217.0900  128.9100 O.co2     3 ASP3        0.0000 
     36 OD1       220.2400  215.9900  129.2100 O.co2     3 ASP3        0.0000 
     37 OD1       218.8100  218.2800  127.2100 O.co2     3 ASP3        0.0000 
     38 OD1       220.7600  216.0700  127.8000 O.co2     3 ASP3        0.0000 
     39 OD1       221.2800  216.1500  126.4000 O.co2     3 ASP3        0.0000 
     40 OD1       221.8000  216.2400  125.0000 O.co2     3 ASP3        0.0000 
     41 OD1       222.1900  216.7500  133.1900 O.co2     3 ASP3        0.0000 
     42 NZ        219.1200  214.5600  135.1200 N.4       4 LYS4        0.0000 
     43 NZ        220.1300  215.5700  135.5600 N.4       4 LYS4        0.0000 
     44 NZ        220.6600  215.6600  134.1500 N.4       4 LYS4        0.0000 
     45 NZ        221.6300  214.5500  134.4500 N.4       4 LYS4        0.0000 
     46 NZ        221.1500  216.5900  135.9900 N.4       4 LYS4        0.0000 
     47 NZ        224.0700  213.2800  136.8900 N.4       4 LYS4        0.0000 
     48 NZ        221.6700  216.6700  134.5900 N.4       4 LYS4        0.0000 
     49 NZ        222.6400  215.5700  134.8900 N.4       4 LYS4        0.0000 
     50 NZ        224.5600  214.2200  138.7300 N.4       4 LYS4        0.0000 
     51 NZ        225.0800  214.3000  137.3200 N.4       4 LYS4        0.0000 
     52 NZ        223.6600  216.5800  135.3200 N.4       4 LYS4        0.0000 
     53 CZ        222.5900  210.4900  131.3600 C.ar      5 PHE5        0.0000 
     54 CZ        223.1100  210.5700  129.9600 C.ar      5 PHE5        0.0000 
     55 CZ        222.6300  212.6000  131.5000 C.ar      5 PHE5        0.0000 
     56 CZ        223.6200  214.4700  135.1900 C.ar      5 PHE5        0.0000 
     57 CZ        226.0600  213.2000  137.6200 C.ar      5 PHE5        0.0000 
     58 CZ        224.6300  215.4800  135.6200 C.ar      5 PHE5        0.0000 
     59 CA        218.6600  212.7800  130.0300 C.3       6 GLY6        0.0000 
     60 CA        219.1800  212.8600  128.6300 C.3       6 GLY6        0.0000 
     61 CA        219.7000  212.9400  127.2300 C.3       6 GLY6        0.0000 
     62 CA        220.6800  211.8400  127.5200 C.3       6 GLY6        0.0000 
     63 CA        221.6500  210.7400  127.8200 C.3       6 GLY6        0.0000 
     64 CA        219.1500  213.7100  131.8700 C.3       6 GLY6        0.0000 
     65 CA        219.6700  213.7900  130.4700 C.3       6 GLY6        0.0000 
     66 CA        219.2200  214.9800  128.7700 C.3       6 GLY6        0.0000 
     67 CA        220.1900  213.8700  129.0700 C.3       6 GLY6        0.0000 
     68 CA        220.7200  213.9600  127.6600 C.3       6 GLY6        0.0000 
     69 CA        221.6900  212.8500  127.9600 C.3       6 GLY6        0.0000 
     70 CA        221.2400  214.0400  126.2600 C.3       6 GLY6        0.0000 
     71 CA        222.2100  212.9400  126.5600 C.3       6 GLY6        0.0000 
     72 CA        219.6400  214.6400  133.7200 C.3       6 GLY6        0.0000 
     73 CA        220.1600  214.7200  132.3100 C.3       6 GLY6        0.0000 
     74 CA        219.7100  215.9100  130.6100 C.3       6 GLY6        0.0000 
     75 CA        220.6900  214.8100  130.9100 C.3       6 GLY6        0.0000 
     76 DU        218.5800  211.5100  133.1400 H         7 CUB7        0.0000 
     77 DU        220.1500  211.7600  128.9300 H         7 CUB7        0.0000 
     78 DU        220.6400  212.6900  130.7700 H         7 CUB7        0.0000 
     79 DU        221.6200  211.5900  131.0700 H         7 CUB7        0.0000 
     80 DU        221.1700  212.7700  129.3700 H         7 CUB7        0.0000 
     81 DU        222.1400  211.6700  129.6600 H         7 CUB7        0.0000 
     82 DU        219.7400  215.0600  127.3700 H         7 CUB7        0.0000 
     83 DU        222.6600  211.7500  128.2600 H         7 CUB7        0.0000 
     84 DU        221.1400  213.6200  132.6100 H         7 CUB7        0.0000 
     85 DU        221.1800  215.7400  132.7500 H         7 CUB7        0.0000 
     86 DU        220.7300  216.9200  131.0500 H         7 CUB7        0.0000 
     87 DU        221.7000  215.8200  131.3500 H         7 CUB7        0.0000 
@<TRIPOS>BOND
@<TRIPOS>SUBSTRUCTURE
     1 SER1        1 GROUP   
     2 ALA2       25 GROUP   
     3 ASP3       31 GROUP   
     4 LYS4       42 GROUP   
     5 PHE5       53 GROUP   
     6 GLY6       59 GROUP   
     7 CUB7       76 GROUP   
@<TRIPOS>SET

