#    Name: 5ywb_2_ADP_CAVITY_N1_4
#    Modification time : Fri May 22 19:31:38 2020

@<TRIPOS>MOLECULE
5ywb_2_ADP_CAVITY_N1_4
  112     0     7     0     0
SMALL
NO_CHARGES


@<TRIPOS>ATOM
      1 OG        123.0300   85.0300  128.6300 O.3       1 SER1        0.0000 
      2 OG        123.5500   85.1100  127.2300 O.3       1 SER1        0.0000 
      3 OG        123.5200   85.9600  130.4700 O.3       1 SER1        0.0000 
      4 OG        123.0700   87.1500  128.7700 O.3       1 SER1        0.0000 
      5 OG        124.0500   86.0400  129.0700 O.3       1 SER1        0.0000 
      6 OG        124.0900   88.1600  129.2100 O.3       1 SER1        0.0000 
      7 OG        125.0600   87.0600  129.5000 O.3       1 SER1        0.0000 
      8 OG        120.7200   92.6500  126.6100 O.3       1 SER1        0.0000 
      9 OG        118.3200   96.0400  124.3100 O.3       1 SER1        0.0000 
     10 OG        119.2900   94.9300  124.6100 O.3       1 SER1        0.0000 
     11 OG        120.2700   93.8300  124.9100 O.3       1 SER1        0.0000 
     12 OG        123.6100   90.1900  130.7500 O.3       1 SER1        0.0000 
     13 OG        124.5800   89.0900  131.0500 O.3       1 SER1        0.0000 
     14 OG        123.1600   91.3800  129.0500 O.3       1 SER1        0.0000 
     15 OG        124.1300   90.2800  129.3500 O.3       1 SER1        0.0000 
     16 OG        124.6500   90.3600  127.9400 O.3       1 SER1        0.0000 
     17 OG        121.7000   94.5100  130.2900 O.3       1 SER1        0.0000 
     18 OG        123.6500   92.3100  130.8900 O.3       1 SER1        0.0000 
     19 OG        124.6200   91.2100  131.1900 O.3       1 SER1        0.0000 
     20 OG        124.1700   92.3900  129.4800 O.3       1 SER1        0.0000 
     21 OG        124.6900   92.4700  128.0800 O.3       1 SER1        0.0000 
     22 OG        124.6600   93.3300  131.3300 O.3       1 SER1        0.0000 
     23 OG        125.6400   92.2200  131.6200 O.3       1 SER1        0.0000 
     24 N         120.0700   86.2200  127.6000 N.am      2 ALA2        0.0000 
     25 N         121.0400   85.1200  127.8900 N.am      2 ALA2        0.0000 
     26 N         121.5700   85.2000  126.4900 N.am      2 ALA2        0.0000 
     27 N         120.4900   85.8800  132.5400 N.am      2 ALA2        0.0000 
     28 N         120.0400   87.0700  130.8400 N.am      2 ALA2        0.0000 
     29 N         120.5600   87.1500  129.4400 N.am      2 ALA2        0.0000 
     30 N         122.0600   86.1300  128.3300 N.am      2 ALA2        0.0000 
     31 N         122.5800   86.2100  126.9300 N.am      2 ALA2        0.0000 
     32 N         120.5300   88.0000  132.6800 N.am      2 ALA2        0.0000 
     33 N         121.5100   86.9000  132.9800 N.am      2 ALA2        0.0000 
     34 N         120.0800   89.1800  130.9800 N.am      2 ALA2        0.0000 
     35 N         121.0500   88.0800  131.2800 N.am      2 ALA2        0.0000 
     36 N         120.6000   89.2700  129.5800 N.am      2 ALA2        0.0000 
     37 N         123.6000   87.2300  127.3700 N.am      2 ALA2        0.0000 
     38 N         122.9700   86.7300  135.1200 N.am      2 ALA2        0.0000 
     39 N         122.5200   87.9100  133.4200 N.am      2 ALA2        0.0000 
     40 N         123.4900   86.8100  133.7200 N.am      2 ALA2        0.0000 
     41 N         121.1000   90.2000  131.4200 N.am      2 ALA2        0.0000 
     42 N         122.0700   89.1000  131.7200 N.am      2 ALA2        0.0000 
     43 N         123.0400   88.0000  132.0100 N.am      2 ALA2        0.0000 
     44 O         123.6400   89.3400  127.5000 O.2       2 ALA2        0.0000 
     45 O         124.6100   88.2400  127.8000 O.2       2 ALA2        0.0000 
     46 O         121.2400   92.7300  125.2100 O.2       2 ALA2        0.0000 
     47 O         122.2100   91.6300  125.5100 O.2       2 ALA2        0.0000 
     48 N         122.1100   91.2100  131.8500 N.am      2 ALA2        0.0000 
     49 N         123.0800   90.1100  132.1500 N.am      2 ALA2        0.0000 
     50 N         124.0600   89.0100  132.4500 N.am      2 ALA2        0.0000 
     51 O         125.0300   87.9100  132.7500 O.2       2 ALA2        0.0000 
     52 O         123.6800   91.4600  127.6400 O.2       2 ALA2        0.0000 
     53 O         119.3300   97.0500  124.7500 O.2       2 ALA2        0.0000 
     54 O         120.3100   95.9500  125.0500 O.2       2 ALA2        0.0000 
     55 O         123.2300   92.6400  125.9400 O.2       2 ALA2        0.0000 
     56 O         121.8400   97.0500  124.0800 O.2       2 ALA2        0.0000 
     57 N         122.7200   95.5300  130.7300 N.am      2 ALA2        0.0000 
     58 OD1       119.8200   95.0200  123.2100 O.co2     3 ASP3        0.0000 
     59 OD1       122.7000   92.5600  127.3500 O.co2     3 ASP3        0.0000 
     60 OD1       122.2500   93.7500  125.6400 O.co2     3 ASP3        0.0000 
     61 OD1       120.8300   96.0300  123.6400 O.co2     3 ASP3        0.0000 
     62 NZ        118.8000   94.0000  122.7700 N.4       4 LYS4        0.0000 
     63 CZ        124.4700   85.7100  134.0100 C.ar      5 PHE5        0.0000 
     64 CZ        124.0200   86.8900  132.3100 C.ar      5 PHE5        0.0000 
     65 CZ        118.8400   96.1200  122.9100 C.ar      5 PHE5        0.0000 
     66 CZ        124.5100   87.8300  134.1500 C.ar      5 PHE5        0.0000 
     67 CZ        119.8600   97.1300  123.3500 C.ar      5 PHE5        0.0000 
     68 CZ        125.5200   88.8400  134.5900 C.ar      5 PHE5        0.0000 
     69 CZ        125.0700   90.0300  132.8900 C.ar      5 PHE5        0.0000 
     70 CZ        126.6500   93.2400  132.0600 C.ar      5 PHE5        0.0000 
     71 CA        119.0600   85.2000  127.1600 C.3       6 GLY6        0.0000 
     72 CA        119.5500   86.1400  129.0000 C.3       6 GLY6        0.0000 
     73 CA        121.0900   87.2300  128.0300 C.3       6 GLY6        0.0000 
     74 CA        124.5000   84.8600  130.7700 C.3       6 GLY6        0.0000 
     75 CA        121.1300   89.3500  128.1700 C.3       6 GLY6        0.0000 
     76 CA        122.1000   88.2500  128.4700 C.3       6 GLY6        0.0000 
     77 CA        118.2800   93.9200  124.1700 C.3       6 GLY6        0.0000 
     78 CA        121.6200   90.2800  130.0100 C.3       6 GLY6        0.0000 
     79 CA        124.5400   86.9800  130.9100 C.3       6 GLY6        0.0000 
     80 CA        121.1700   91.4700  128.3100 C.3       6 GLY6        0.0000 
     81 CA        122.1400   90.3600  128.6100 C.3       6 GLY6        0.0000 
     82 CA        121.6900   91.5500  126.9100 C.3       6 GLY6        0.0000 
     83 CA        122.6600   90.4500  127.2100 C.3       6 GLY6        0.0000 
     84 CA        120.7900   93.9200  123.5100 C.3       6 GLY6        0.0000 
     85 CA        121.1400   92.3200  131.5600 C.3       6 GLY6        0.0000 
     86 CA        121.6600   92.4000  130.1500 C.3       6 GLY6        0.0000 
     87 CA        122.1800   92.4800  128.7500 C.3       6 GLY6        0.0000 
     88 CA        124.5500   89.9400  134.2900 C.3       6 GLY6        0.0000 
     89 CA        121.1800   94.4300  131.7000 C.3       6 GLY6        0.0000 
     90 CA        122.1500   93.3300  131.9900 C.3       6 GLY6        0.0000 
     91 CA        123.1200   92.2300  132.2900 C.3       6 GLY6        0.0000 
     92 CA        124.1000   91.1300  132.5900 C.3       6 GLY6        0.0000 
     93 CA        122.6700   93.4100  130.5900 C.3       6 GLY6        0.0000 
     94 CA        123.2000   93.4900  129.1900 C.3       6 GLY6        0.0000 
     95 CA        123.7200   93.5800  127.7800 C.3       6 GLY6        0.0000 
     96 CA        124.1400   93.2400  132.7300 C.3       6 GLY6        0.0000 
     97 CA        125.1100   92.1400  133.0300 C.3       6 GLY6        0.0000 
     98 CA        123.6900   94.4300  131.0300 C.3       6 GLY6        0.0000 
     99 CA        125.1800   93.4100  129.9200 C.3       6 GLY6        0.0000 
    100 DU        120.5200   85.0300  129.3000 H         7 CUB7        0.0000 
    101 DU        121.0100   85.9700  131.1400 H         7 CUB7        0.0000 
    102 DU        122.5100   84.9500  130.0300 H         7 CUB7        0.0000 
    103 DU        123.4500   84.7000  133.5800 H         7 CUB7        0.0000 
    104 DU        122.0300   86.9800  131.5800 H         7 CUB7        0.0000 
    105 DU        123.0000   85.8800  131.8700 H         7 CUB7        0.0000 
    106 DU        123.9700   84.7800  132.1700 H         7 CUB7        0.0000 
    107 DU        121.5800   88.1700  129.8700 H         7 CUB7        0.0000 
    108 DU        122.5500   87.0600  130.1700 H         7 CUB7        0.0000 
    109 DU        122.5900   89.1800  130.3100 H         7 CUB7        0.0000 
    110 DU        123.5600   88.0800  130.6100 H         7 CUB7        0.0000 
    111 DU        123.1100   89.2600  128.9100 H         7 CUB7        0.0000 
    112 DU        122.6300   91.3000  130.4500 H         7 CUB7        0.0000 
@<TRIPOS>BOND
@<TRIPOS>SUBSTRUCTURE
     1 SER1        1 GROUP   
     2 ALA2       24 GROUP   
     3 ASP3       58 GROUP   
     4 LYS4       62 GROUP   
     5 PHE5       63 GROUP   
     6 GLY6       71 GROUP   
     7 CUB7      100 GROUP   
@<TRIPOS>SET

