#    Name: 5ywb_3_ADP_CAVITY_N1_4
#    Modification time : Fri May 22 19:31:57 2020

@<TRIPOS>MOLECULE
5ywb_3_ADP_CAVITY_N1_4
   54     0     7     0     0
SMALL
NO_CHARGES


@<TRIPOS>ATOM
      1 OG        106.5500  111.8100  130.4700 O.3       1 SER1        0.0000 
      2 OG        105.6500  114.1800  127.0700 O.3       1 SER1        0.0000 
      3 OG        107.1400  113.1600  125.9600 O.3       1 SER1        0.0000 
      4 OG        106.5900  113.9200  130.6100 O.3       1 SER1        0.0000 
      5 OG        107.5600  112.8200  130.9100 O.3       1 SER1        0.0000 
      6 OG        105.1600  116.2100  128.6100 O.3       1 SER1        0.0000 
      7 OG        106.1400  115.1100  128.9100 O.3       1 SER1        0.0000 
      8 OG        107.1100  114.0100  129.2100 O.3       1 SER1        0.0000 
      9 OG        108.0800  112.9100  129.5000 O.3       1 SER1        0.0000 
     10 OG        106.6600  115.1900  127.5000 O.3       1 SER1        0.0000 
     11 OG        107.6300  114.0900  127.8000 O.3       1 SER1        0.0000 
     12 OG        109.6500  113.1500  125.2900 O.3       1 SER1        0.0000 
     13 OG        106.6300  116.0400  130.7500 O.3       1 SER1        0.0000 
     14 OG        110.6000  112.9000  128.8400 O.3       1 SER1        0.0000 
     15 OG        110.1400  114.0800  127.1300 O.3       1 SER1        0.0000 
     16 OG        111.1200  112.9800  127.4300 O.3       1 SER1        0.0000 
     17 OG        110.6700  114.1700  125.7300 O.3       1 SER1        0.0000 
     18 OG        111.6400  113.0600  126.0300 O.3       1 SER1        0.0000 
     19 OG        111.1600  115.1000  127.5700 O.3       1 SER1        0.0000 
     20 OG        110.7100  116.2800  125.8700 O.3       1 SER1        0.0000 
     21 OG        111.6800  115.1800  126.1700 O.3       1 SER1        0.0000 
     22 O         108.1600  114.1700  126.4000 O.2       2 ALA2        0.0000 
     23 O         109.1700  115.1900  126.8400 O.2       2 ALA2        0.0000 
     24 OD1       109.6100  111.0400  125.1500 O.co2     3 ASP3        0.0000 
     25 OD1       110.1300  111.1200  123.7500 O.co2     3 ASP3        0.0000 
     26 OD1       109.0600  111.8000  129.8000 O.co2     3 ASP3        0.0000 
     27 OD1       108.6100  112.9900  128.1000 O.co2     3 ASP3        0.0000 
     28 OD1       109.5800  111.8900  128.4000 O.co2     3 ASP3        0.0000 
     29 OD1       109.1300  113.0700  126.7000 O.co2     3 ASP3        0.0000 
     30 OD1       110.1000  111.9700  126.9900 O.co2     3 ASP3        0.0000 
     31 OD1       111.0800  110.8700  127.2900 O.co2     3 ASP3        0.0000 
     32 OD1       110.6300  112.0500  125.5900 O.co2     3 ASP3        0.0000 
     33 NZ        111.1500  112.1300  124.1900 N.4       4 LYS4        0.0000 
     34 CZ        105.6600  117.1400  130.4500 C.ar      5 PHE5        0.0000 
     35 CA        105.6900  116.2900  127.2100 C.3       6 GLY6        0.0000 
     36 CA        107.1800  115.2700  126.1000 C.3       6 GLY6        0.0000 
     37 CA        109.1000  113.9200  129.9400 C.3       6 GLY6        0.0000 
     38 CA        110.0700  112.8200  130.2400 C.3       6 GLY6        0.0000 
     39 CA        106.7000  117.3100  127.6400 C.3       6 GLY6        0.0000 
     40 CA        107.6800  116.2100  127.9400 C.3       6 GLY6        0.0000 
     41 CA        109.6200  114.0000  128.5400 C.3       6 GLY6        0.0000 
     42 CA        109.5900  114.8500  131.7800 C.3       6 GLY6        0.0000 
     43 CA        107.7200  118.3200  128.0800 C.3       6 GLY6        0.0000 
     44 CA        109.6600  116.1200  128.6800 C.3       6 GLY6        0.0000 
     45 CA        110.6400  115.0200  128.9700 C.3       6 GLY6        0.0000 
     46 CA        110.1900  116.2000  127.2700 C.3       6 GLY6        0.0000 
     47 CA        110.2300  118.3200  127.4100 C.3       6 GLY6        0.0000 
     48 CA        110.7500  118.4000  126.0100 C.3       6 GLY6        0.0000 
     49 DU        106.1800  117.2200  129.0500 H         7 CUB7        0.0000 
     50 DU        107.1500  116.1200  129.3500 H         7 CUB7        0.0000 
     51 DU        108.1300  115.0200  129.6400 H         7 CUB7        0.0000 
     52 DU        108.6500  115.1000  128.2400 H         7 CUB7        0.0000 
     53 DU        108.6900  117.2200  128.3800 H         7 CUB7        0.0000 
     54 DU        108.7300  119.3400  128.5200 H         7 CUB7        0.0000 
@<TRIPOS>BOND
@<TRIPOS>SUBSTRUCTURE
     1 SER1        1 GROUP   
     2 ALA2       22 GROUP   
     3 ASP3       24 GROUP   
     4 LYS4       33 GROUP   
     5 PHE5       34 GROUP   
     6 GLY6       35 GROUP   
     7 CUB7       49 GROUP   
@<TRIPOS>SET

