#    Name: 5ywb_6_ADP_CAVITY_N1_4
#    Modification time : Fri May 22 19:32:36 2020

@<TRIPOS>MOLECULE
5ywb_6_ADP_CAVITY_N1_4
   92     0     7     0     0
SMALL
NO_CHARGES


@<TRIPOS>ATOM
      1 OG        212.9700  105.5300  129.6500 O.3       1 SER1        0.0000 
      2 OG        213.4900  105.6200  128.2500 O.3       1 SER1        0.0000 
      3 OG        213.4600  106.4700  131.5000 O.3       1 SER1        0.0000 
      4 OG        213.9800  106.5500  130.0900 O.3       1 SER1        0.0000 
      5 OG        214.5000  106.6300  128.6900 O.3       1 SER1        0.0000 
      6 OG        215.0200  106.7100  127.2800 O.3       1 SER1        0.0000 
      7 OG        215.5500  106.8000  125.8800 O.3       1 SER1        0.0000 
      8 OG        214.4700  107.4800  131.9300 O.3       1 SER1        0.0000 
      9 OG        215.4400  106.3800  132.2300 O.3       1 SER1        0.0000 
     10 OG        216.4200  105.2800  132.5300 O.3       1 SER1        0.0000 
     11 OG        214.9900  107.5600  130.5300 O.3       1 SER1        0.0000 
     12 OG        215.9700  106.4600  130.8300 O.3       1 SER1        0.0000 
     13 OG        216.9400  105.3600  131.1300 O.3       1 SER1        0.0000 
     14 OG        215.5200  107.6500  129.1300 O.3       1 SER1        0.0000 
     15 OG        213.1200  111.0300  126.8300 O.3       1 SER1        0.0000 
     16 OG        216.0400  107.7300  127.7200 O.3       1 SER1        0.0000 
     17 OG        214.6200  110.0100  125.7200 O.3       1 SER1        0.0000 
     18 OG        216.9800  107.4800  131.2600 O.3       1 SER1        0.0000 
     19 OG        216.5300  108.6600  129.5600 O.3       1 SER1        0.0000 
     20 OG        217.5000  107.5600  129.8600 O.3       1 SER1        0.0000 
     21 OG        214.1300  112.0500  127.2700 O.3       1 SER1        0.0000 
     22 OG        215.1100  110.9500  127.5600 O.3       1 SER1        0.0000 
     23 OG        215.6300  111.0300  126.1600 O.3       1 SER1        0.0000 
     24 OG        216.1500  111.1100  124.7600 O.3       1 SER1        0.0000 
     25 OG        217.1000  110.8600  128.3000 O.3       1 SER1        0.0000 
     26 N         209.5100  105.7900  126.7800 N.am      2 ALA2        0.0000 
     27 N         210.5300  106.8100  127.2200 N.am      2 ALA2        0.0000 
     28 N         212.0200  105.7900  126.1100 N.am      2 ALA2        0.0000 
     29 O         214.4600  104.5100  128.5500 O.2       2 ALA2        0.0000 
     30 O         214.0100  105.7000  126.8500 O.2       2 ALA2        0.0000 
     31 O         214.5700  107.9000  125.5800 O.2       2 ALA2        0.0000 
     32 O         214.0900  109.9300  127.1300 O.2       2 ALA2        0.0000 
     33 O         215.5900  108.9100  126.0200 O.2       2 ALA2        0.0000 
     34 O         216.6400  112.0400  126.6000 O.2       2 ALA2        0.0000 
     35 OD1       216.5600  107.8100  126.3200 O.co2     3 ASP3        0.0000 
     36 OD1       216.1100  108.9900  124.6200 O.co2     3 ASP3        0.0000 
     37 OD1       216.9100  106.2100  134.3700 O.co2     3 ASP3        0.0000 
     38 OD1       216.0800  109.8400  127.8600 O.co2     3 ASP3        0.0000 
     39 OD1       216.6000  109.9300  126.4600 O.co2     3 ASP3        0.0000 
     40 OD1       217.1300  110.0100  125.0500 O.co2     3 ASP3        0.0000 
     41 OD1       217.6500  110.0900  123.6500 O.co2     3 ASP3        0.0000 
     42 OD1       218.0700  109.7600  128.6000 O.co2     3 ASP3        0.0000 
     43 OD1       217.6200  110.9400  126.8900 O.co2     3 ASP3        0.0000 
     44 OD1       218.1400  111.0200  125.4900 O.co2     3 ASP3        0.0000 
     45 NZ        215.8200  103.9300  137.0400 N.4       4 LYS4        0.0000 
     46 NZ        213.4300  107.3200  134.7400 N.4       4 LYS4        0.0000 
     47 NZ        214.4000  106.2200  135.0400 N.4       4 LYS4        0.0000 
     48 NZ        215.4100  107.2300  135.4800 N.4       4 LYS4        0.0000 
     49 NZ        216.3900  106.1300  135.7700 N.4       4 LYS4        0.0000 
     50 NZ        214.9600  108.4100  133.7700 N.4       4 LYS4        0.0000 
     51 NZ        216.4300  108.2400  135.9100 N.4       4 LYS4        0.0000 
     52 CZ        211.4700  106.5500  130.7600 C.ar      5 PHE5        0.0000 
     53 CZ        212.9300  106.3800  132.9000 C.ar      5 PHE5        0.0000 
     54 CZ        215.3700  105.1100  135.3400 C.ar      5 PHE5        0.0000 
     55 CZ        213.9500  107.4000  133.3400 C.ar      5 PHE5        0.0000 
     56 CZ        214.9200  106.3000  133.6300 C.ar      5 PHE5        0.0000 
     57 CZ        215.9000  105.2000  133.9300 C.ar      5 PHE5        0.0000 
     58 CA        210.4900  104.6900  127.0800 C.3       6 GLY6        0.0000 
     59 CA        210.9800  105.6200  128.9200 C.3       6 GLY6        0.0000 
     60 CA        211.9500  104.5200  129.2200 C.3       6 GLY6        0.0000 
     61 CA        212.4700  104.6000  127.8100 C.3       6 GLY6        0.0000 
     62 CA        210.5700  108.9200  127.3600 C.3       6 GLY6        0.0000 
     63 CA        211.5400  107.8200  127.6600 C.3       6 GLY6        0.0000 
     64 CA        212.5100  106.7200  127.9500 C.3       6 GLY6        0.0000 
     65 CA        213.0400  106.8000  126.5500 C.3       6 GLY6        0.0000 
     66 CA        211.5800  109.9400  127.7900 C.3       6 GLY6        0.0000 
     67 CA        212.5600  108.8300  128.0900 C.3       6 GLY6        0.0000 
     68 CA        212.1000  110.0200  126.3900 C.3       6 GLY6        0.0000 
     69 CA        213.0800  108.9200  126.6900 C.3       6 GLY6        0.0000 
     70 CA        214.0500  107.8100  126.9900 C.3       6 GLY6        0.0000 
     71 CA        216.3500  104.0100  135.6300 C.3       6 GLY6        0.0000 
     72 CA        213.5000  108.5800  131.6300 C.3       6 GLY6        0.0000 
     73 CA        213.0500  109.7700  129.9300 C.3       6 GLY6        0.0000 
     74 CA        214.0200  108.6700  130.2300 C.3       6 GLY6        0.0000 
     75 CA        213.5700  109.8500  128.5300 C.3       6 GLY6        0.0000 
     76 CA        213.9900  109.5200  133.4800 C.3       6 GLY6        0.0000 
     77 CA        214.5100  109.6000  132.0700 C.3       6 GLY6        0.0000 
     78 CA        215.0400  109.6800  130.6700 C.3       6 GLY6        0.0000 
     79 CA        216.0100  108.5800  130.9700 C.3       6 GLY6        0.0000 
     80 CA        215.5600  109.7600  129.2600 C.3       6 GLY6        0.0000 
     81 DU        211.0200  107.7400  129.0600 H         7 CUB7        0.0000 
     82 DU        211.9900  106.6400  129.3600 H         7 CUB7        0.0000 
     83 DU        212.4800  107.5700  131.2000 H         7 CUB7        0.0000 
     84 DU        212.0300  108.7500  129.5000 H         7 CUB7        0.0000 
     85 DU        213.0100  107.6500  129.7900 H         7 CUB7        0.0000 
     86 DU        213.5300  107.7300  128.3900 H         7 CUB7        0.0000 
     87 DU        212.9800  108.5000  133.0400 H         7 CUB7        0.0000 
     88 DU        214.5400  108.7500  128.8300 H         7 CUB7        0.0000 
     89 DU        215.0700  108.8300  127.4200 H         7 CUB7        0.0000 
     90 DU        215.9400  107.3100  134.0700 H         7 CUB7        0.0000 
     91 DU        215.4900  108.5000  132.3700 H         7 CUB7        0.0000 
     92 DU        216.4600  107.3900  132.6700 H         7 CUB7        0.0000 
@<TRIPOS>BOND
@<TRIPOS>SUBSTRUCTURE
     1 SER1        1 GROUP   
     2 ALA2       26 GROUP   
     3 ASP3       35 GROUP   
     4 LYS4       45 GROUP   
     5 PHE5       52 GROUP   
     6 GLY6       58 GROUP   
     7 CUB7       81 GROUP   
@<TRIPOS>SET

