#    Name: 5ywb_11_ADP_CAVITY_N1_4
#    Modification time : Fri May 22 19:33:35 2020

@<TRIPOS>MOLECULE
5ywb_11_ADP_CAVITY_N1_4
  126     0     7     0     0
SMALL
NO_CHARGES


@<TRIPOS>ATOM
      1 OG         84.9600  204.7900  129.4700 O.3       1 SER1        0.0000 
      2 OG         86.0000  204.9500  126.6700 O.3       1 SER1        0.0000 
      3 OG         85.9700  205.8000  129.9100 O.3       1 SER1        0.0000 
      4 OG         86.9500  204.7000  130.2100 O.3       1 SER1        0.0000 
      5 OG         86.5000  205.8900  128.5100 O.3       1 SER1        0.0000 
      6 OG         87.4700  204.7800  128.8100 O.3       1 SER1        0.0000 
      7 OG         88.4400  203.6800  129.1000 O.3       1 SER1        0.0000 
      8 OG         88.9300  204.6100  130.9500 O.3       1 SER1        0.0000 
      9 OG         89.4600  204.7000  129.5400 O.3       1 SER1        0.0000 
     10 OG         89.9800  204.7800  128.1400 O.3       1 SER1        0.0000 
     11 OG         87.3400  205.2200  138.4000 O.3       1 SER1        0.0000 
     12 OG         88.3100  204.1200  138.7000 O.3       1 SER1        0.0000 
     13 OG         88.8300  204.2000  137.2900 O.3       1 SER1        0.0000 
     14 OG         90.9200  204.5300  131.6800 O.3       1 SER1        0.0000 
     15 OG         91.9000  203.4300  131.9800 O.3       1 SER1        0.0000 
     16 OG         90.4700  205.7100  129.9800 O.3       1 SER1        0.0000 
     17 OG         90.9900  205.7900  128.5800 O.3       1 SER1        0.0000 
     18 OG         91.9700  204.6900  128.8700 O.3       1 SER1        0.0000 
     19 OG         92.4600  205.6200  130.7100 O.3       1 SER1        0.0000 
     20 OG         92.5300  206.8900  127.6100 O.3       1 SER1        0.0000 
     21 OG         93.6200  209.1700  124.9400 O.3       1 SER1        0.0000 
     22 OG         94.6300  210.1900  125.3800 O.3       1 SER1        0.0000 
     23 OG         97.1400  210.1800  124.7100 O.3       1 SER1        0.0000 
     24 N          84.3300  204.2900  137.2300 N.am      2 ALA2        0.0000 
     25 O          87.9200  203.6000  130.5100 O.2       2 ALA2        0.0000 
     26 N          85.5200  206.9900  128.2100 N.am      2 ALA2        0.0000 
     27 N          87.0200  205.9700  127.1000 N.am      2 ALA2        0.0000 
     28 O          87.9900  204.8700  127.4000 O.2       2 ALA2        0.0000 
     29 N          86.3200  204.2000  137.9600 N.am      2 ALA2        0.0000 
     30 N          86.9200  205.5500  133.4500 N.am      2 ALA2        0.0000 
     31 O          88.4100  204.5300  132.3500 O.2       2 ALA2        0.0000 
     32 N          86.5400  208.0000  128.6500 N.am      2 ALA2        0.0000 
     33 N          86.0900  209.1900  126.9500 N.am      2 ALA2        0.0000 
     34 O          89.0100  205.8800  127.8400 O.2       2 ALA2        0.0000 
     35 O          85.3900  207.4200  137.8000 O.2       2 ALA2        0.0000 
     36 O          86.3600  206.3200  138.1000 O.2       2 ALA2        0.0000 
     37 O          85.9100  207.5000  136.4000 O.2       2 ALA2        0.0000 
     38 O          86.8900  206.4000  136.7000 O.2       2 ALA2        0.0000 
     39 N          85.4600  208.6900  134.7000 N.am      2 ALA2        0.0000 
     40 N          87.4100  206.4800  135.3000 N.am      2 ALA2        0.0000 
     41 N          88.3800  205.3800  135.5900 N.am      2 ALA2        0.0000 
     42 N          88.9000  205.4700  134.1900 N.am      2 ALA2        0.0000 
     43 N          87.4800  207.7500  132.1900 N.am      2 ALA2        0.0000 
     44 N          88.4500  206.6500  132.4900 N.am      2 ALA2        0.0000 
     45 N          89.4300  205.5500  132.7900 N.am      2 ALA2        0.0000 
     46 N          87.0300  208.9300  130.4900 N.am      2 ALA2        0.0000 
     47 N          88.9800  206.7300  131.0800 N.am      2 ALA2        0.0000 
     48 N          89.9500  205.6300  131.3800 N.am      2 ALA2        0.0000 
     49 N          87.5500  209.0200  129.0800 N.am      2 ALA2        0.0000 
     50 O          91.5200  205.8800  127.1700 O.2       2 ALA2        0.0000 
     51 O          92.4900  204.7700  127.4700 O.2       2 ALA2        0.0000 
     52 O          92.0400  205.9600  125.7700 O.2       2 ALA2        0.0000 
     53 O          88.3500  206.2300  138.8400 O.2       2 ALA2        0.0000 
     54 O          88.8700  206.3200  137.4300 O.2       2 ALA2        0.0000 
     55 N          89.0200  208.8500  131.2200 N.am      2 ALA2        0.0000 
     56 N          89.9900  207.7500  131.5200 N.am      2 ALA2        0.0000 
     57 N          90.9600  206.6400  131.8200 N.am      2 ALA2        0.0000 
     58 N          89.5400  208.9300  129.8200 N.am      2 ALA2        0.0000 
     59 O          92.0800  208.0700  125.9100 O.2       2 ALA2        0.0000 
     60 O          91.0100  208.7600  131.9600 O.2       2 ALA2        0.0000 
     61 N          91.9800  207.6600  132.2600 N.am      2 ALA2        0.0000 
     62 N          95.0100  207.7400  130.1800 N.am      2 ALA2        0.0000 
     63 N          95.1600  210.2700  123.9700 N.am      2 ALA2        0.0000 
     64 O          96.1300  209.1700  124.2700 O.2       2 ALA2        0.0000 
     65 N          96.1700  211.2800  124.4100 N.am      2 ALA2        0.0000 
     66 OD1        93.0500  206.9700  126.2100 O.co2     3 ASP3        0.0000 
     67 OD1        94.0000  206.7200  129.7500 O.co2     3 ASP3        0.0000 
     68 OD1        94.5900  208.0700  125.2400 O.co2     3 ASP3        0.0000 
     69 OD1        94.1400  209.2500  123.5400 O.co2     3 ASP3        0.0000 
     70 OD1        96.0900  207.0500  124.1300 O.co2     3 ASP3        0.0000 
     71 OD1        95.6100  209.0800  125.6800 O.co2     3 ASP3        0.0000 
     72 OD1        96.6500  209.2500  122.8700 O.co2     3 ASP3        0.0000 
     73 NZ         89.3500  204.2800  135.8900 N.4       4 LYS4        0.0000 
     74 NZ         93.8800  203.3400  132.7100 N.4       4 LYS4        0.0000 
     75 CZ         85.9000  204.5400  133.0200 C.ar      5 PHE5        0.0000 
     76 CZ         87.3700  204.3700  135.1600 C.ar      5 PHE5        0.0000 
     77 CZ         87.8900  204.4500  133.7500 C.ar      5 PHE5        0.0000 
     78 CZ         95.6800  210.3500  122.5700 C.ar      5 PHE5        0.0000 
     79 CA         86.4200  204.6200  131.6100 C.3       6 GLY6        0.0000 
     80 CA         86.8400  204.2900  136.5600 C.3       6 GLY6        0.0000 
     81 CA         88.0300  206.9800  127.5400 C.3       6 GLY6        0.0000 
     82 CA         86.8100  205.1400  139.8000 C.3       6 GLY6        0.0000 
     83 CA         84.9400  208.6100  136.1000 C.3       6 GLY6        0.0000 
     84 CA         86.4300  207.5900  135.0000 C.3       6 GLY6        0.0000 
     85 CA         89.8800  204.3600  134.4900 C.3       6 GLY6        0.0000 
     86 CA         90.4000  204.4500  133.0800 C.3       6 GLY6        0.0000 
     87 CA         88.5300  207.9200  129.3800 C.3       6 GLY6        0.0000 
     88 CA         90.0200  206.9000  128.2800 C.3       6 GLY6        0.0000 
     89 CA         90.5400  206.9800  126.8700 C.3       6 GLY6        0.0000 
     90 CA         91.9400  205.5400  132.1200 C.3       6 GLY6        0.0000 
     91 CA         92.9100  204.4400  132.4200 C.3       6 GLY6        0.0000 
     92 CA         90.5100  207.8300  130.1200 C.3       6 GLY6        0.0000 
     93 CA         91.4900  206.7300  130.4200 C.3       6 GLY6        0.0000 
     94 CA         93.4300  204.5200  131.0100 C.3       6 GLY6        0.0000 
     95 CA         90.0600  209.0100  128.4200 C.3       6 GLY6        0.0000 
     96 CA         91.0400  207.9100  128.7100 C.3       6 GLY6        0.0000 
     97 CA         92.0100  206.8100  129.0100 C.3       6 GLY6        0.0000 
     98 CA         92.9800  205.7100  129.3100 C.3       6 GLY6        0.0000 
     99 CA         91.5600  207.9900  127.3100 C.3       6 GLY6        0.0000 
    100 CA         93.5800  207.0500  124.8000 C.3       6 GLY6        0.0000 
    101 CA         92.9500  206.5600  132.5500 C.3       6 GLY6        0.0000 
    102 CA         92.5000  207.7400  130.8500 C.3       6 GLY6        0.0000 
    103 CA         94.4500  205.5400  131.4500 C.3       6 GLY6        0.0000 
    104 CA         94.9700  205.6200  130.0500 C.3       6 GLY6        0.0000 
    105 CA         95.1100  208.1500  123.8400 C.3       6 GLY6        0.0000 
    106 CA         94.4900  207.6500  131.5900 C.3       6 GLY6        0.0000 
    107 CA         94.1800  211.3700  123.6800 C.3       6 GLY6        0.0000 
    108 DU         84.4100  205.5600  134.1200 H         7 CUB7        0.0000 
    109 DU         85.4500  205.7200  131.3200 H         7 CUB7        0.0000 
    110 DU         85.0000  206.9100  129.6100 H         7 CUB7        0.0000 
    111 DU         84.3700  206.4100  137.3700 H         7 CUB7        0.0000 
    112 DU         85.3500  205.3100  137.6700 H         7 CUB7        0.0000 
    113 DU         85.8700  205.3900  136.2600 H         7 CUB7        0.0000 
    114 DU         84.4500  207.6700  134.2600 H         7 CUB7        0.0000 
    115 DU         86.3900  205.4700  134.8600 H         7 CUB7        0.0000 
    116 DU         84.9700  207.7600  132.8600 H         7 CUB7        0.0000 
    117 DU         85.9400  206.6500  133.1600 H         7 CUB7        0.0000 
    118 DU         86.4700  206.7400  131.7500 H         7 CUB7        0.0000 
    119 DU         87.4400  205.6300  132.0500 H         7 CUB7        0.0000 
    120 DU         87.9600  205.7200  130.6500 H         7 CUB7        0.0000 
    121 DU         87.5100  206.9000  128.9500 H         7 CUB7        0.0000 
    122 DU         88.4800  205.8000  129.2400 H         7 CUB7        0.0000 
    123 DU         87.8600  205.3000  137.0000 H         7 CUB7        0.0000 
    124 DU         88.0000  207.8300  130.7900 H         7 CUB7        0.0000 
    125 DU         89.5000  206.8100  129.6800 H         7 CUB7        0.0000 
    126 DU         93.4700  206.6400  131.1500 H         7 CUB7        0.0000 
@<TRIPOS>BOND
@<TRIPOS>SUBSTRUCTURE
     1 SER1        1 GROUP   
     2 ALA2       24 GROUP   
     3 ASP3       66 GROUP   
     4 LYS4       73 GROUP   
     5 PHE5       75 GROUP   
     6 GLY6       79 GROUP   
     7 CUB7      108 GROUP   
@<TRIPOS>SET

