#    Name: 5ywb_9_ADP
#    Modification time : Fri May 22 19:33:15 2020

@<TRIPOS>MOLECULE
5ywb_9_ADP
   27    29     1     0     1
SMALL
NO_CHARGES


@<TRIPOS>ATOM
      1 PB        222.1180  215.5250  125.7490 P.3       1 ADP2502     0.0000 
      2 O1B       222.1160  215.4550  124.2410 O.co2     1 ADP2502     0.0000 
      3 O2B       222.7890  216.7960  126.2130 O.co2     1 ADP2502     0.0000 
      4 O3B       220.7020  215.4690  126.2730 O.co2     1 ADP2502     0.0000 
      5 PA        223.1830  214.0560  127.8900 P.3       1 ADP2502     0.0000 
      6 O1A       224.2760  214.9980  128.3370 O.co2     1 ADP2502     0.0000 
      7 O2A       221.9040  214.3410  128.6450 O.co2     1 ADP2502     0.0000 
      8 O3A       222.9350  214.2560  126.3120 O.3       1 ADP2502     0.0000 
      9 O5'       223.6450  212.5380  128.1660 O.3       1 ADP2502     0.0000 
     10 C5'       223.0930  211.4640  127.4080 C.3       1 ADP2502     0.0000 
     11 C4'       222.8480  210.2640  128.3140 C.3       1 ADP2502     0.0000 
     12 O4'       223.3810  210.5250  129.6150 O.3       1 ADP2502     0.0000 
     13 C3'       221.3620  209.9880  128.4790 C.3       1 ADP2502     0.0000 
     14 O3'       221.0890  208.6360  128.1030 O.3       1 ADP2502     0.0000 
     15 C2'       221.0680  210.1980  129.9500 C.3       1 ADP2502     0.0000 
     16 O2'       220.2640  209.1290  130.4560 O.3       1 ADP2502     0.0000 
     17 C1'       222.4280  210.1950  130.6260 C.3       1 ADP2502     0.0000 
     18 N9        222.4780  211.2090  131.7080 N.pl3     1 ADP2502     0.0000 
     19 C8        222.5450  212.5420  131.5310 C.2       1 ADP2502     0.0000 
     20 N7        222.5820  213.1920  132.7200 N.2       1 ADP2502     0.0000 
     21 C5        222.5460  212.2610  133.6880 C.ar      1 ADP2502     0.0000 
     22 C6        222.5540  212.2630  135.1660 C.ar      1 ADP2502     0.0000 
     23 N6        222.6180  213.4290  135.8490 N.pl3     1 ADP2502     0.0000 
     24 N1        222.5020  211.0730  135.8010 N.ar      1 ADP2502     0.0000 
     25 C2        222.4420  209.9130  135.1200 C.ar      1 ADP2502     0.0000 
     26 N3        222.4290  209.8360  133.7780 N.ar      1 ADP2502     0.0000 
     27 C4        222.4780  210.9550  133.0180 C.ar      1 ADP2502     0.0000 
@<TRIPOS>BOND
     1    1    2 ar   
     2    1    3 ar   
     3    1    4 ar   
     4    1    8 1    
     5    5    6 ar   
     6    5    7 ar   
     7    5    8 1    
     8    5    9 1    
     9    9   10 1    
    10   10   11 1    
    11   11   12 1    
    12   11   13 1    
    13   12   17 1    
    14   13   14 1    
    15   13   15 1    
    16   15   16 1    
    17   15   17 1    
    18   17   18 1    
    19   18   19 1    
    20   18   27 1    
    21   19   20 2    
    22   20   21 1    
    23   21   22 ar   
    24   21   27 ar   
    25   22   23 1    
    26   22   24 ar   
    27   24   25 ar   
    28   25   26 ar   
    29   26   27 ar   
@<TRIPOS>SUBSTRUCTURE
     1 ADP2502     1 GROUP   
@<TRIPOS>SET
ATOM$ORANGE STATIC     ATOMS   COLORGROUP SYSTEM 
20 10 10 11 11 13 13 15 15 17 17 19 19 21 21 22 22 25 \
25 27 27 

