#    Name: 6a1a_3_FMN
#    Modification time : Fri May 22 19:25:42 2020

@<TRIPOS>MOLECULE
6a1a_3_FMN
   31    33     1     0     1
SMALL
NO_CHARGES


@<TRIPOS>ATOM
      1 N1         -9.0750  -29.5760  -33.6100 N.2       1 FMN401      0.0000 
      2 C2         -9.1030  -30.7890  -34.1900 C.2       1 FMN401      0.0000 
      3 O2         -9.1380  -30.8570  -35.4330 O.2       1 FMN401      0.0000 
      4 N3         -9.1130  -31.9150  -33.4420 N.am      1 FMN401      0.0000 
      5 C4         -9.0680  -31.9100  -32.1060 C.2       1 FMN401      0.0000 
      6 O4         -9.0620  -32.9780  -31.4170 O.2       1 FMN401      0.0000 
      7 C4A        -9.0400  -30.6260  -31.4120 C.2       1 FMN401      0.0000 
      8 N5         -8.9950  -30.5180  -30.0700 N.2       1 FMN401      0.0000 
      9 C5A        -8.9560  -29.3000  -29.4810 C.ar      1 FMN401      0.0000 
     10 C6         -8.9200  -29.1900  -28.1020 C.ar      1 FMN401      0.0000 
     11 C7         -8.9360  -27.9520  -27.4840 C.ar      1 FMN401      0.0000 
     12 C7M        -8.9060  -27.8390  -25.9760 C.3       1 FMN401      0.0000 
     13 C8         -8.9750  -26.7370  -28.2940 C.ar      1 FMN401      0.0000 
     14 C8M        -8.9810  -25.3820  -27.6440 C.3       1 FMN401      0.0000 
     15 C9         -9.0060  -26.8420  -29.6640 C.ar      1 FMN401      0.0000 
     16 C9A        -8.9930  -28.0700  -30.2980 C.ar      1 FMN401      0.0000 
     17 N10        -9.0230  -28.1960  -31.6950 N.pl3     1 FMN401      0.0000 
     18 C10        -9.0350  -29.4410  -32.2810 C.2       1 FMN401      0.0000 
     19 C1'        -9.0280  -27.0090  -32.5650 C.3       1 FMN401      0.0000 
     20 C2'       -10.4390  -26.4900  -32.7450 C.3       1 FMN401      0.0000 
     21 O2'       -11.1840  -27.3780  -33.5540 O.3       1 FMN401      0.0000 
     22 C3'       -10.4820  -25.1370  -33.4280 C.3       1 FMN401      0.0000 
     23 O3'        -9.6750  -25.1400  -34.6160 O.3       1 FMN401      0.0000 
     24 C4'       -10.0460  -23.9890  -32.5570 C.3       1 FMN401      0.0000 
     25 O4'       -10.3860  -24.2370  -31.1730 O.3       1 FMN401      0.0000 
     26 C5'       -10.8410  -22.8000  -33.0790 C.3       1 FMN401      0.0000 
     27 O5'       -10.4980  -21.6760  -32.3950 O.3       1 FMN401      0.0000 
     28 P         -11.3990  -21.1050  -31.1870 P.3       1 FMN401      0.0000 
     29 O1P       -11.1320  -22.0120  -30.0160 O.co2     1 FMN401      0.0000 
     30 O2P       -10.6530  -19.8020  -31.0930 O.co2     1 FMN401      0.0000 
     31 O3P       -12.8490  -20.9490  -31.5070 O.co2     1 FMN401      0.0000 
@<TRIPOS>BOND
     1    1    2 1    
     2    1   18 2    
     3    2    3 2    
     4    2    4 am   
     5    4    5 am   
     6    5    6 2    
     7    5    7 1    
     8    7    8 2    
     9    7   18 1    
    10    8    9 1    
    11    9   10 ar   
    12    9   16 ar   
    13   10   11 ar   
    14   11   12 1    
    15   11   13 ar   
    16   13   14 1    
    17   13   15 ar   
    18   15   16 ar   
    19   16   17 1    
    20   17   18 1    
    21   17   19 1    
    22   19   20 1    
    23   20   21 1    
    24   20   22 1    
    25   22   23 1    
    26   22   24 1    
    27   24   25 1    
    28   24   26 1    
    29   26   27 1    
    30   27   28 1    
    31   28   29 ar   
    32   28   30 ar   
    33   28   31 ar   
@<TRIPOS>SUBSTRUCTURE
     1 FMN401      1 GROUP   
@<TRIPOS>SET
ATOM$ORANGE STATIC     ATOMS   COLORGROUP SYSTEM 
34 2 2 5 5 7 7 9 9 10 10 11 11 12 12 13 13 14 \
14 15 15 16 16 18 18 19 19 20 20 22 22 24 24 26 26 

