#    Name: 6a1a_3_FMN_CAVITY_N1_8
#    Modification time : Fri May 22 19:25:44 2020

@<TRIPOS>MOLECULE
6a1a_3_FMN_CAVITY_N1_8
   84     0     7     0     0
SMALL
NO_CHARGES


@<TRIPOS>ATOM
      1 OG         -8.3900  -29.2900  -32.3300 O.3       1 SER1        0.0000 
      2 OG         -7.8400  -30.3800  -31.4600 O.3       1 SER1        0.0000 
      3 OG         -7.2900  -31.4800  -30.6000 O.3       1 SER1        0.0000 
      4 OG         -7.1300  -29.3600  -30.6200 O.3       1 SER1        0.0000 
      5 OG         -6.5800  -30.4600  -29.7600 O.3       1 SER1        0.0000 
      6 OG         -5.3800  -30.5600  -30.6500 O.3       1 SER1        0.0000 
      7 N          -9.7500  -31.3000  -31.4100 N.am      2 ALA2        0.0000 
      8 O          -9.2000  -32.4000  -30.5500 O.2       2 ALA2        0.0000 
      9 N         -10.6900  -27.0000  -33.1700 N.am      2 ALA2        0.0000 
     10 N          -9.0400  -30.2800  -30.5700 N.am      2 ALA2        0.0000 
     11 O          -8.4900  -31.3800  -29.7100 O.2       2 ALA2        0.0000 
     12 N         -11.1800  -25.8800  -31.4400 N.am      2 ALA2        0.0000 
     13 N         -10.6300  -26.9700  -30.5700 N.am      2 ALA2        0.0000 
     14 N         -10.0800  -28.0700  -29.7100 N.am      2 ALA2        0.0000 
     15 O          -8.9900  -30.2600  -27.9700 O.2       2 ALA2        0.0000 
     16 N          -9.9800  -25.9800  -32.3300 N.am      2 ALA2        0.0000 
     17 N          -9.4300  -27.0700  -31.4600 N.am      2 ALA2        0.0000 
     18 N          -8.8800  -28.1700  -30.6000 N.am      2 ALA2        0.0000 
     19 O          -7.7800  -30.3600  -28.8600 O.2       2 ALA2        0.0000 
     20 O         -11.5700  -22.6700  -32.3300 O.2       2 ALA2        0.0000 
     21 O          -8.6200  -23.9600  -33.2400 O.2       2 ALA2        0.0000 
     22 N          -8.0700  -25.0600  -32.3800 N.am      2 ALA2        0.0000 
     23 OD1        -8.7800  -26.0800  -33.2200 O.co2     3 ASP3        0.0000 
     24 OD1        -4.8300  -31.6500  -29.7800 O.co2     3 ASP3        0.0000 
     25 OD1        -4.1800  -30.6600  -31.5400 O.co2     3 ASP3        0.0000 
     26 OD1        -3.6300  -31.7500  -30.6700 O.co2     3 ASP3        0.0000 
     27 OD1        -8.8300  -28.1400  -28.0000 O.co2     3 ASP3        0.0000 
     28 OD1        -8.2800  -29.2300  -27.1300 O.co2     3 ASP3        0.0000 
     29 OD1        -8.1700  -27.1500  -29.7600 O.co2     3 ASP3        0.0000 
     30 OD1        -7.6200  -28.2400  -28.8900 O.co2     3 ASP3        0.0000 
     31 OD1        -7.0700  -29.3400  -28.0200 O.co2     3 ASP3        0.0000 
     32 OD1        -5.8700  -29.4400  -28.9200 O.co2     3 ASP3        0.0000 
     33 OD1       -10.3200  -22.7400  -30.6200 O.co2     3 ASP3        0.0000 
     34 OD1        -9.7700  -23.8400  -29.7600 O.co2     3 ASP3        0.0000 
     35 OD1        -8.6700  -26.0200  -28.0200 O.co2     3 ASP3        0.0000 
     36 OD1        -8.1200  -27.1200  -27.1600 O.co2     3 ASP3        0.0000 
     37 OD1        -8.5600  -23.9400  -30.6500 O.co2     3 ASP3        0.0000 
     38 NZ        -10.5300  -24.8800  -33.1900 N.4       4 LYS4        0.0000 
     39 NZ         -9.3300  -24.9800  -34.0800 N.4       4 LYS4        0.0000 
     40 NZ        -10.3700  -22.7700  -33.2200 N.4       4 LYS4        0.0000 
     41 CZ         -8.5500  -31.4000  -32.3000 C.ar      5 PHE5        0.0000 
     42 CZ         -8.0000  -32.5000  -31.4400 C.ar      5 PHE5        0.0000 
     43 CZ         -7.4500  -33.5900  -30.5700 C.ar      5 PHE5        0.0000 
     44 CZ         -4.4900  -34.8900  -31.4900 C.ar      5 PHE5        0.0000 
     45 CZ         -6.0900  -31.5800  -31.4900 C.ar      5 PHE5        0.0000 
     46 CZ         -5.5400  -32.6700  -30.6200 C.ar      5 PHE5        0.0000 
     47 CZ         -4.8800  -31.6800  -32.3800 C.ar      5 PHE5        0.0000 
     48 CZ         -4.3300  -32.7700  -31.5100 C.ar      5 PHE5        0.0000 
     49 CZ         -3.7800  -33.8700  -30.6500 C.ar      5 PHE5        0.0000 
     50 CZ         -2.5800  -33.9700  -31.5400 C.ar      5 PHE5        0.0000 
     51 CZ         -8.2300  -27.1700  -32.3500 C.ar      5 PHE5        0.0000 
     52 CZ         -6.5200  -30.4300  -27.1600 C.ar      5 PHE5        0.0000 
     53 CZ         -7.5200  -26.1500  -31.5100 C.ar      5 PHE5        0.0000 
     54 CA         -5.7000  -34.7900  -30.6000 C.3       6 GLY6        0.0000 
     55 CA         -6.7400  -32.5700  -29.7300 C.3       6 GLY6        0.0000 
     56 CA         -6.1900  -33.6700  -28.8700 C.3       6 GLY6        0.0000 
     57 CA         -4.9900  -33.7700  -29.7600 C.3       6 GLY6        0.0000 
     58 CA         -4.4400  -34.8600  -28.8900 C.3       6 GLY6        0.0000 
     59 CA         -3.2400  -34.9600  -29.7800 C.3       6 GLY6        0.0000 
     60 CA        -11.7300  -24.7800  -32.3000 C.3       6 GLY6        0.0000 
     61 CA         -9.5300  -29.1600  -28.8400 C.3       6 GLY6        0.0000 
     62 CA         -8.4400  -31.3500  -27.1100 C.3       6 GLY6        0.0000 
     63 CA         -7.2300  -31.4500  -28.0000 C.3       6 GLY6        0.0000 
     64 CA         -3.0800  -32.8500  -29.8100 C.3       6 GLY6        0.0000 
     65 CA        -11.6800  -24.7500  -29.7100 C.3       6 GLY6        0.0000 
     66 CA        -11.1300  -25.8500  -28.8400 C.3       6 GLY6        0.0000 
     67 CA        -10.5800  -26.9400  -27.9700 C.3       6 GLY6        0.0000 
     68 CA        -10.0300  -28.0400  -27.1100 C.3       6 GLY6        0.0000 
     69 CA         -9.4800  -29.1300  -26.2400 C.3       6 GLY6        0.0000 
     70 CA        -11.0200  -23.7600  -31.4600 C.3       6 GLY6        0.0000 
     71 CA        -10.4800  -24.8600  -30.6000 C.3       6 GLY6        0.0000 
     72 CA         -9.9300  -25.9500  -29.7300 C.3       6 GLY6        0.0000 
     73 CA         -9.3800  -27.0500  -28.8600 C.3       6 GLY6        0.0000 
     74 CA         -9.8200  -23.8600  -32.3500 C.3       6 GLY6        0.0000 
     75 CA         -8.7200  -26.0500  -30.6200 C.3       6 GLY6        0.0000 
     76 CA         -6.9700  -27.2500  -30.6500 C.3       6 GLY6        0.0000 
     77 CA        -10.9700  -23.7300  -28.8600 C.3       6 GLY6        0.0000 
     78 CA        -10.4200  -24.8300  -28.0000 C.3       6 GLY6        0.0000 
     79 CA         -9.8700  -25.9200  -27.1300 C.3       6 GLY6        0.0000 
     80 CA         -9.3200  -27.0200  -26.2700 C.3       6 GLY6        0.0000 
     81 CA         -9.2200  -24.9300  -28.8900 C.3       6 GLY6        0.0000 
     82 CA         -9.1100  -22.8400  -31.5100 C.3       6 GLY6        0.0000 
     83 DU         -8.3300  -29.2600  -29.7300 H         7 CUB7        0.0000 
     84 DU         -9.2700  -24.9600  -31.4900 H         7 CUB7        0.0000 
@<TRIPOS>BOND
@<TRIPOS>SUBSTRUCTURE
     1 SER1        1 GROUP   
     2 ALA2        7 GROUP   
     3 ASP3       23 GROUP   
     4 LYS4       38 GROUP   
     5 PHE5       41 GROUP   
     6 GLY6       54 GROUP   
     7 CUB7       83 GROUP   
@<TRIPOS>SET

