#    Name: 6gas_1_FAD
#    Modification time : Fri May 22 19:27:23 2020

@<TRIPOS>MOLECULE
6gas_1_FAD
   53    58     1     0     1
SMALL
NO_CHARGES


@<TRIPOS>ATOM
      1 PA         86.2760   76.4020   19.6690 P.3       1 FAD1001     0.0000 
      2 O1A        86.5380   76.7300   21.0790 O.co2     1 FAD1001     0.0000 
      3 O2A        86.3910   74.9620   19.2220 O.co2     1 FAD1001     0.0000 
      4 O5B        84.8100   76.9880   19.3490 O.3       1 FAD1001     0.0000 
      5 C5B        84.1610   76.7090   18.0920 C.3       1 FAD1001     0.0000 
      6 C4B        82.6640   76.8010   18.2340 C.3       1 FAD1001     0.0000 
      7 O4B        82.0460   76.6920   16.9270 O.3       1 FAD1001     0.0000 
      8 C3B        82.0440   75.7140   19.1140 C.3       1 FAD1001     0.0000 
      9 O3B        81.2910   76.3490   20.1440 O.3       1 FAD1001     0.0000 
     10 C2B        81.2730   74.8330   18.1140 C.3       1 FAD1001     0.0000 
     11 O2B        80.1110   74.2340   18.6860 O.3       1 FAD1001     0.0000 
     12 C1B        80.9260   75.8380   17.0110 C.3       1 FAD1001     0.0000 
     13 N9A        80.6940   75.2930   15.6660 N.pl3     1 FAD1001     0.0000 
     14 C8A        81.5830   74.5730   14.9120 C.2       1 FAD1001     0.0000 
     15 N7A        81.1370   74.2510   13.7190 N.2       1 FAD1001     0.0000 
     16 C5A        79.8830   74.8460   13.6690 C.ar      1 FAD1001     0.0000 
     17 C6A        78.9000   74.8990   12.6630 C.ar      1 FAD1001     0.0000 
     18 N6A        79.0270   74.2970   11.4740 N.pl3     1 FAD1001     0.0000 
     19 N1A        77.7520   75.5750   12.9360 N.ar      1 FAD1001     0.0000 
     20 C2A        77.6180   76.1600   14.1280 C.ar      1 FAD1001     0.0000 
     21 N3A        78.4680   76.1580   15.1570 N.ar      1 FAD1001     0.0000 
     22 C4A        79.5900   75.4840   14.8620 C.ar      1 FAD1001     0.0000 
     23 N1         94.4710   77.0550   24.3890 N.2       1 FAD1001     0.0000 
     24 C2         95.2850   77.9850   24.9780 C.2       1 FAD1001     0.0000 
     25 O2         95.7070   78.9530   24.3470 O.2       1 FAD1001     0.0000 
     26 N3         95.6570   77.8330   26.3180 N.am      1 FAD1001     0.0000 
     27 C4         95.2850   76.7890   27.1500 C.2       1 FAD1001     0.0000 
     28 O4         95.6710   76.7830   28.3130 O.2       1 FAD1001     0.0000 
     29 C4X        94.4260   75.7920   26.5110 C.2       1 FAD1001     0.0000 
     30 N5         94.0290   74.7380   27.2270 N.2       1 FAD1001     0.0000 
     31 C5X        93.2030   73.7910   26.5920 C.ar      1 FAD1001     0.0000 
     32 C6         92.7400   72.6860   27.3160 C.ar      1 FAD1001     0.0000 
     33 C7         91.9130   71.7280   26.7210 C.ar      1 FAD1001     0.0000 
     34 C7M        91.4370   70.5490   27.5310 C.3       1 FAD1001     0.0000 
     35 C8         91.5380   71.8750   25.3710 C.ar      1 FAD1001     0.0000 
     36 C8M        90.6490   70.8540   24.6910 C.3       1 FAD1001     0.0000 
     37 C9         91.9900   72.9770   24.6520 C.ar      1 FAD1001     0.0000 
     38 C9A        92.8190   73.9270   25.2450 C.ar      1 FAD1001     0.0000 
     39 N10        93.2890   75.0490   24.5250 N.pl3     1 FAD1001     0.0000 
     40 C10        94.0680   76.0110   25.1290 C.2       1 FAD1001     0.0000 
     41 C1'        92.8730   75.2670   23.1440 C.3       1 FAD1001     0.0000 
     42 C2'        91.7830   76.3280   23.0610 C.3       1 FAD1001     0.0000 
     43 O2'        90.6070   75.8970   23.7440 O.3       1 FAD1001     0.0000 
     44 C3'        91.4460   76.6200   21.6060 C.3       1 FAD1001     0.0000 
     45 O3'        92.5200   77.3230   21.0040 O.3       1 FAD1001     0.0000 
     46 C4'        90.2360   77.5350   21.5130 C.3       1 FAD1001     0.0000 
     47 O4'        89.0770   76.9170   22.0770 O.3       1 FAD1001     0.0000 
     48 C5'        89.9550   77.9020   20.0800 C.3       1 FAD1001     0.0000 
     49 O5'        88.7690   78.7060   20.0540 O.3       1 FAD1001     0.0000 
     50 P          87.8450   78.7200   18.8040 P.3       1 FAD1001     0.0000 
     51 O1P        86.7110   79.6620   19.2280 O.co2     1 FAD1001     0.0000 
     52 O2P        88.6840   78.9980   17.6080 O.co2     1 FAD1001     0.0000 
     53 O3P        87.2940   77.1930   18.7440 O.3       1 FAD1001     0.0000 
@<TRIPOS>BOND
     1    1    2 ar   
     2    1    3 ar   
     3    1    4 1    
     4    1   53 1    
     5    4    5 1    
     6    5    6 1    
     7    6    7 1    
     8    6    8 1    
     9    7   12 1    
    10    8    9 1    
    11    8   10 1    
    12   10   11 1    
    13   10   12 1    
    14   12   13 1    
    15   13   14 1    
    16   13   22 1    
    17   14   15 2    
    18   15   16 1    
    19   16   17 ar   
    20   16   22 ar   
    21   17   18 1    
    22   17   19 ar   
    23   19   20 ar   
    24   20   21 ar   
    25   21   22 ar   
    26   23   24 1    
    27   23   40 2    
    28   24   25 2    
    29   24   26 am   
    30   26   27 am   
    31   27   28 2    
    32   27   29 1    
    33   29   30 2    
    34   29   40 1    
    35   30   31 1    
    36   31   32 ar   
    37   31   38 ar   
    38   32   33 ar   
    39   33   34 1    
    40   33   35 ar   
    41   35   36 1    
    42   35   37 ar   
    43   37   38 ar   
    44   38   39 1    
    45   39   40 1    
    46   39   41 1    
    47   41   42 1    
    48   42   43 1    
    49   42   44 1    
    50   44   45 1    
    51   44   46 1    
    52   46   47 1    
    53   46   48 1    
    54   48   49 1    
    55   49   50 1    
    56   50   51 ar   
    57   50   52 ar   
    58   50   53 1    
@<TRIPOS>SUBSTRUCTURE
     1 FAD1001     1 GROUP   
@<TRIPOS>SET
ATOM$ORANGE STATIC     ATOMS   COLORGROUP SYSTEM 
54 5 5 6 6 8 8 10 10 12 12 14 14 16 16 17 17 20 \
20 22 22 24 24 27 27 29 29 31 31 32 32 33 33 34 34 35 \
35 36 36 37 37 38 38 40 40 41 41 42 42 44 44 46 46 48 \
48 

