#    Name: 6gas_3_FAD_CAVITY_N1_6
#    Modification time : Fri May 22 19:28:01 2020

@<TRIPOS>MOLECULE
6gas_3_FAD_CAVITY_N1_6
  142     0     6     0     0
SMALL
NO_CHARGES


@<TRIPOS>ATOM
      1 OG         86.6500  105.1800   -2.6900 O.3       1 SER1        0.0000 
      2 OG         86.9800  104.3600   -1.4900 O.3       1 SER1        0.0000 
      3 OG         88.3600  104.1300   -2.0300 O.3       1 SER1        0.0000 
      4 OG         94.9700  106.8900  -11.3000 O.3       1 SER1        0.0000 
      5 OG         86.7900  107.2400   -3.1900 O.3       1 SER1        0.0000 
      6 OG         87.8300  107.8300   -4.9400 O.3       1 SER1        0.0000 
      7 OG         88.5100  106.1900   -2.5200 O.3       1 SER1        0.0000 
      8 OG         88.8400  105.3600   -1.3200 O.3       1 SER1        0.0000 
      9 OG         89.1800  104.5400   -0.1100 O.3       1 SER1        0.0000 
     10 OG         90.2200  105.1400   -1.8600 O.3       1 SER1        0.0000 
     11 OG         94.0700  108.3500  -10.0500 O.3       1 SER1        0.0000 
     12 OG         85.5500  109.5200   -3.1500 O.3       1 SER1        0.0000 
     13 OG         86.9300  109.2900   -3.6900 O.3       1 SER1        0.0000 
     14 OG         88.3100  109.0700   -4.2300 O.3       1 SER1        0.0000 
     15 OG         88.9800  107.4200   -1.8200 O.3       1 SER1        0.0000 
     16 OG         89.6600  105.7700    0.6000 O.3       1 SER1        0.0000 
     17 OG         89.6900  108.8400   -4.7700 O.3       1 SER1        0.0000 
     18 OG         90.3600  107.1900   -2.3600 O.3       1 SER1        0.0000 
     19 OG         90.7000  106.3700   -1.1500 O.3       1 SER1        0.0000 
     20 OG         94.5500  109.5800   -9.3400 O.3       1 SER1        0.0000 
     21 OG         85.6900  111.5800   -3.6500 O.3       1 SER1        0.0000 
     22 OG         86.0300  110.7500   -2.4500 O.3       1 SER1        0.0000 
     23 OG         87.0700  111.3500   -4.1900 O.3       1 SER1        0.0000 
     24 OG         88.4500  111.1200   -4.7300 O.3       1 SER1        0.0000 
     25 OG         88.7900  110.3000   -3.5200 O.3       1 SER1        0.0000 
     26 OG         90.1300  107.0000    1.3100 O.3       1 SER1        0.0000 
     27 OG         86.1700  112.8100   -2.9500 O.3       1 SER1        0.0000 
     28 OG         88.0300  113.8200   -2.7800 O.3       1 SER1        0.0000 
     29 N          92.0200  101.3600  -12.3800 N.am      2 ALA2        0.0000 
     30 N          93.0600  101.9600  -14.1300 N.am      2 ALA2        0.0000 
     31 O          91.8200  104.2400  -14.0900 O.2       2 ALA2        0.0000 
     32 N          92.4900  102.6000  -11.6700 N.am      2 ALA2        0.0000 
     33 O          93.2000  104.0200  -14.6300 O.2       2 ALA2        0.0000 
     34 O          91.2500  104.8800  -11.6300 O.2       2 ALA2        0.0000 
     35 O          91.5900  104.0500  -10.4300 O.2       2 ALA2        0.0000 
     36 N          94.0200  104.4300  -12.7100 N.am      2 ALA2        0.0000 
     37 N          84.4500  105.0000   -4.0700 N.am      2 ALA2        0.0000 
     38 N          86.1700  103.9500   -3.4000 N.am      2 ALA2        0.0000 
     39 N          86.5000  103.1200   -2.2000 N.am      2 ALA2        0.0000 
     40 N          87.5500  103.7200   -3.9400 N.am      2 ALA2        0.0000 
     41 N          87.8900  102.9000   -2.7300 N.am      2 ALA2        0.0000 
     42 N          90.9800  101.6200   -2.6000 N.am      2 ALA2        0.0000 
     43 O          92.0700  105.2900   -9.7200 O.2       2 ALA2        0.0000 
     44 O          94.8300  104.8300  -10.8000 O.2       2 ALA2        0.0000 
     45 O          83.5500  106.4600   -2.8200 O.2       2 ALA2        0.0000 
     46 N          84.9300  106.2300   -3.3600 N.am      2 ALA2        0.0000 
     47 N          88.0300  104.9500   -3.2300 N.am      2 ALA2        0.0000 
     48 N          88.7000  103.3000   -0.8200 N.am      2 ALA2        0.0000 
     49 N          89.0400  102.4800    0.3900 N.am      2 ALA2        0.0000 
     50 N          89.7400  103.9000   -2.5600 N.am      2 ALA2        0.0000 
     51 N          91.1300  103.6800   -3.1000 N.am      2 ALA2        0.0000 
     52 O          91.1600  106.7500   -8.4700 O.2       2 ALA2        0.0000 
     53 N          92.5100  103.4500   -3.6400 N.am      2 ALA2        0.0000 
     54 O          92.5500  106.5200   -9.0100 O.2       2 ALA2        0.0000 
     55 O          95.3100  106.0700  -10.0900 O.2       2 ALA2        0.0000 
     56 N          88.1700  107.0100   -3.7300 N.am      2 ALA2        0.0000 
     57 N          89.2100  107.6100   -5.4800 N.am      2 ALA2        0.0000 
     58 N          89.5500  106.7800   -4.2700 N.am      2 ALA2        0.0000 
     59 N          89.8900  105.9600   -3.0600 N.am      2 ALA2        0.0000 
     60 N          90.2600  108.2100   -7.2300 N.am      2 ALA2        0.0000 
     61 N          90.6000  107.3800   -6.0200 N.am      2 ALA2        0.0000 
     62 N          90.9300  106.5600   -4.8100 N.am      2 ALA2        0.0000 
     63 O          91.6400  107.9800   -7.7600 O.2       2 ALA2        0.0000 
     64 O          94.4100  107.5300   -8.8400 O.2       2 ALA2        0.0000 
     65 O          95.7900  107.3000   -9.3800 O.2       2 ALA2        0.0000 
     66 N          90.0300  108.0200   -3.5600 N.am      2 ALA2        0.0000 
     67 N          90.5100  109.2500   -2.8500 N.am      2 ALA2        0.0000 
     68 N          90.8400  108.4300   -1.6500 N.am      2 ALA2        0.0000 
     69 N          91.1800  107.6000   -0.4400 N.am      2 ALA2        0.0000 
     70 O          91.5100  106.7800    0.7700 O.2       2 ALA2        0.0000 
     71 O          91.5500  109.8500   -4.6000 O.2       2 ALA2        0.0000 
     72 N          91.8900  109.0200   -3.3900 N.am      2 ALA2        0.0000 
     73 N          92.5600  107.3800   -0.9800 N.am      2 ALA2        0.0000 
     74 O          92.9000  106.5500    0.2300 O.2       2 ALA2        0.0000 
     75 O          86.5000  111.9800   -1.7400 O.2       2 ALA2        0.0000 
     76 O          87.8900  111.7600   -2.2800 O.2       2 ALA2        0.0000 
     77 N          90.9800  110.4800   -2.1500 N.am      2 ALA2        0.0000 
     78 N          91.3200  109.6600   -0.9400 N.am      2 ALA2        0.0000 
     79 O          91.6600  108.8300    0.2700 O.2       2 ALA2        0.0000 
     80 O          88.3600  112.9900   -1.5700 O.2       2 ALA2        0.0000 
     81 N          90.4200  111.1200    0.3100 N.am      2 ALA2        0.0000 
     82 NZ         92.7200  102.7800  -15.3400 N.4       3 LYS4        0.0000 
     83 NZ         91.2700  105.7300   -3.6000 N.4       3 LYS4        0.0000 
     84 NZ         91.6000  104.9100   -2.3900 N.4       3 LYS4        0.0000 
     85 NZ         92.9900  104.6800   -2.9300 N.4       3 LYS4        0.0000 
     86 NZ         93.0200  107.7500   -8.3000 N.4       3 LYS4        0.0000 
     87 NZ         91.0700  108.6100   -5.3100 N.4       3 LYS4        0.0000 
     88 NZ         91.4100  107.7900   -4.1000 N.4       3 LYS4        0.0000 
     89 NZ         91.7500  106.9700   -2.8900 N.4       3 LYS4        0.0000 
     90 NZ         92.4600  108.3900   -5.8500 N.4       3 LYS4        0.0000 
     91 NZ         93.5000  108.9900   -7.5900 N.4       3 LYS4        0.0000 
     92 NZ         94.8800  108.7600   -8.1300 N.4       3 LYS4        0.0000 
     93 NZ         88.9300  112.3600   -4.0200 N.4       3 LYS4        0.0000 
     94 NZ         89.7500  112.7700   -2.1100 N.4       3 LYS4        0.0000 
     95 CZ         91.2000  100.9500  -14.3000 C.ar      4 PHE5        0.0000 
     96 CZ         90.3000  102.4100  -13.0500 C.ar      4 PHE5        0.0000 
     97 CZ         91.6800  102.1900  -13.5900 C.ar      4 PHE5        0.0000 
     98 CZ         91.1100  102.8200  -11.1400 C.ar      4 PHE5        0.0000 
     99 CZ         83.2100  107.2800   -4.0300 C.ar      4 PHE5        0.0000 
    100 CZ         86.3100  106.0000   -3.9000 C.ar      4 PHE5        0.0000 
    101 CZ         85.0700  108.2900   -3.8600 C.ar      4 PHE5        0.0000 
    102 CZ         85.4100  107.4600   -2.6600 C.ar      4 PHE5        0.0000 
    103 CZ         86.4500  108.0600   -4.4000 C.ar      4 PHE5        0.0000 
    104 CZ         87.2700  108.4700   -2.4900 C.ar      4 PHE5        0.0000 
    105 CZ         88.6500  108.2400   -3.0200 C.ar      4 PHE5        0.0000 
    106 CZ         87.4100  110.5300   -2.9900 C.ar      4 PHE5        0.0000 
    107 CZ         89.1300  109.4800   -2.3200 C.ar      4 PHE5        0.0000 
    108 CZ         89.6000  110.7100   -1.6100 C.ar      4 PHE5        0.0000 
    109 CZ         89.9400  109.8800   -0.4000 C.ar      4 PHE5        0.0000 
    110 CA         90.7800  103.6500  -12.3400 C.3       5 GLY6        0.0000 
    111 CA         92.1600  103.4200  -12.8800 C.3       5 GLY6        0.0000 
    112 CA         92.6400  104.6500  -12.1700 C.3       5 GLY6        0.0000 
    113 CA         92.9700  103.8300  -10.9700 C.3       5 GLY6        0.0000 
    114 CA         91.7300  106.1100  -10.9300 C.3       5 GLY6        0.0000 
    115 CA         93.1100  105.8800  -11.4700 C.3       5 GLY6        0.0000 
    116 CA         93.4500  105.0600  -10.2600 C.3       5 GLY6        0.0000 
    117 CA         90.8300  107.5700   -9.6800 C.3       5 GLY6        0.0000 
    118 CA         92.2100  107.3400  -10.2200 C.3       5 GLY6        0.0000 
    119 CA         93.5900  107.1200  -10.7600 C.3       5 GLY6        0.0000 
    120 CA         93.9300  106.2900   -9.5500 C.3       5 GLY6        0.0000 
    121 CA         91.3100  108.8000   -8.9700 C.3       5 GLY6        0.0000 
    122 CA         92.6900  108.5800   -9.5100 C.3       5 GLY6        0.0000 
    123 CA         90.7400  109.4400   -6.5200 C.3       5 GLY6        0.0000 
    124 CA         92.0800  106.1400   -1.6900 C.3       5 GLY6        0.0000 
    125 CA         92.1200  109.2100   -7.0600 C.3       5 GLY6        0.0000 
    126 CA         93.4600  105.9200   -2.2300 C.3       5 GLY6        0.0000 
    127 CA         93.1700  109.8100   -8.8000 C.3       5 GLY6        0.0000 
    128 CA         89.8300  110.9000   -5.2700 C.3       5 GLY6        0.0000 
    129 CA         92.9300  109.6200   -5.1400 C.3       5 GLY6        0.0000 
    130 CA         87.5500  112.5800   -3.4800 C.3       5 GLY6        0.0000 
    131 CA         88.2200  110.9300   -1.0700 C.3       5 GLY6        0.0000 
    132 CA         88.6000  113.1800   -5.2300 C.3       5 GLY6        0.0000 
    133 CA         90.3100  112.1300   -4.5600 C.3       5 GLY6        0.0000 
    134 CA         90.6500  111.3100   -3.3500 C.3       5 GLY6        0.0000 
    135 CA         90.0800  111.9400   -0.9000 C.3       5 GLY6        0.0000 
    136 DU         90.0800  103.0800   -1.3600 H         6 CUB7        0.0000 
    137 DU         90.5600  104.3100   -0.6500 H         6 CUB7        0.0000 
    138 DU         91.9400  104.0900   -1.1900 H         6 CUB7        0.0000 
    139 DU         91.0400  105.5400    0.0600 H         6 CUB7        0.0000 
    140 DU         92.4200  105.3200   -0.4800 H         6 CUB7        0.0000 
    141 DU         90.1700  110.0700   -4.0600 H         6 CUB7        0.0000 
    142 DU         89.2700  111.5300   -2.8200 H         6 CUB7        0.0000 
@<TRIPOS>BOND
@<TRIPOS>SUBSTRUCTURE
     1 SER1        1 GROUP   
     2 ALA2       29 GROUP   
     3 LYS4       82 GROUP   
     4 PHE5       95 GROUP   
     5 GLY6      110 GROUP   
     6 CUB7      136 GROUP   
@<TRIPOS>SET

