#    Name: 6gas_2_FAD
#    Modification time : Fri May 22 19:27:40 2020

@<TRIPOS>MOLECULE
6gas_2_FAD
   53    58     1     0     1
SMALL
NO_CHARGES


@<TRIPOS>ATOM
      1 PA        105.6600   99.7590   21.9580 P.3       1 FAD1001     0.0000 
      2 O1A       104.5090  100.0360   22.8750 O.co2     1 FAD1001     0.0000 
      3 O2A       106.0220  100.9610   21.0780 O.co2     1 FAD1001     0.0000 
      4 O5B       106.9260   99.2550   22.6940 O.3       1 FAD1001     0.0000 
      5 C5B       108.1930   99.1760   22.0170 C.3       1 FAD1001     0.0000 
      6 C4B       109.2600   99.3760   23.0360 C.3       1 FAD1001     0.0000 
      7 O4B       110.5380   99.1110   22.4230 O.3       1 FAD1001     0.0000 
      8 C3B       109.3350  100.8020   23.6010 C.3       1 FAD1001     0.0000 
      9 O3B       109.3690  100.7790   25.0240 O.3       1 FAD1001     0.0000 
     10 C2B       110.6330  101.3510   22.9960 C.3       1 FAD1001     0.0000 
     11 O2B       111.2310  102.3510   23.8090 O.3       1 FAD1001     0.0000 
     12 C1B       111.4560  100.0720   22.8760 C.3       1 FAD1001     0.0000 
     13 N9A       112.5220  100.1110   21.8940 N.pl3     1 FAD1001     0.0000 
     14 C8A       112.4100  100.4400   20.5690 C.2       1 FAD1001     0.0000 
     15 N7A       113.5380  100.3470   19.8990 N.2       1 FAD1001     0.0000 
     16 C5A       114.4500   99.9400   20.8510 C.ar      1 FAD1001     0.0000 
     17 C6A       115.8320   99.6600   20.7950 C.ar      1 FAD1001     0.0000 
     18 N6A       116.5590   99.7560   19.6870 N.pl3     1 FAD1001     0.0000 
     19 N1A       116.4400   99.2500   21.9260 N.ar      1 FAD1001     0.0000 
     20 C2A       115.7140   99.1340   23.0390 C.ar      1 FAD1001     0.0000 
     21 N3A       114.4140   99.3770   23.2200 N.ar      1 FAD1001     0.0000 
     22 C4A       113.8410   99.7620   22.0870 C.ar      1 FAD1001     0.0000 
     23 N1         96.0830   99.9950   20.6110 N.2       1 FAD1001     0.0000 
     24 C2         94.9700   99.2360   20.8200 C.2       1 FAD1001     0.0000 
     25 O2         94.9030   98.0740   20.4300 O.2       1 FAD1001     0.0000 
     26 N3         93.8780   99.7740   21.4710 N.am      1 FAD1001     0.0000 
     27 C4         93.7710  101.0660   21.9550 C.2       1 FAD1001     0.0000 
     28 O4         92.7380  101.4290   22.5170 O.2       1 FAD1001     0.0000 
     29 C4X        94.9550  101.8790   21.7240 C.2       1 FAD1001     0.0000 
     30 N5         94.9470  103.1330   22.1520 N.2       1 FAD1001     0.0000 
     31 C5X        96.0900  103.9050   21.9290 C.ar      1 FAD1001     0.0000 
     32 C6         96.1040  105.2260   22.3790 C.ar      1 FAD1001     0.0000 
     33 C7         97.2210  106.0370   22.1860 C.ar      1 FAD1001     0.0000 
     34 C7M        97.1870  107.4590   22.6850 C.3       1 FAD1001     0.0000 
     35 C8         98.3570  105.5150   21.5330 C.ar      1 FAD1001     0.0000 
     36 C8M        99.5830  106.3600   21.3020 C.3       1 FAD1001     0.0000 
     37 C9         98.3470  104.1970   21.0840 C.ar      1 FAD1001     0.0000 
     38 C9A        97.2260  103.3890   21.2750 C.ar      1 FAD1001     0.0000 
     39 N10        97.1830  102.0470   20.8250 N.pl3     1 FAD1001     0.0000 
     40 C10        96.0670  101.2570   21.0490 C.2       1 FAD1001     0.0000 
     41 C1'        98.3450  101.4380   20.1600 C.3       1 FAD1001     0.0000 
     42 C2'        99.0750  100.4490   21.0600 C.3       1 FAD1001     0.0000 
     43 O2'        99.7750  101.1010   22.1170 O.3       1 FAD1001     0.0000 
     44 C3'       100.1070   99.6900   20.2420 C.3       1 FAD1001     0.0000 
     45 O3'        99.3900   98.7450   19.4540 O.3       1 FAD1001     0.0000 
     46 C4'       101.0890   98.9880   21.1750 C.3       1 FAD1001     0.0000 
     47 O4'       101.3810   99.8470   22.2720 O.3       1 FAD1001     0.0000 
     48 C5'       102.3910   98.5990   20.5180 C.3       1 FAD1001     0.0000 
     49 O5'       103.0620   97.6590   21.3650 O.3       1 FAD1001     0.0000 
     50 P         104.5160   97.2230   21.0690 P.3       1 FAD1001     0.0000 
     51 O1P       105.1040   96.4590   22.2650 O.co2     1 FAD1001     0.0000 
     52 O2P       104.5140   96.5710   19.7790 O.co2     1 FAD1001     0.0000 
     53 O3P       105.2740   98.6070   20.9360 O.3       1 FAD1001     0.0000 
@<TRIPOS>BOND
     1    1    2 ar   
     2    1    3 ar   
     3    1    4 1    
     4    1   53 1    
     5    4    5 1    
     6    5    6 1    
     7    6    7 1    
     8    6    8 1    
     9    7   12 1    
    10    8    9 1    
    11    8   10 1    
    12   10   11 1    
    13   10   12 1    
    14   12   13 1    
    15   13   14 1    
    16   13   22 1    
    17   14   15 2    
    18   15   16 1    
    19   16   17 ar   
    20   16   22 ar   
    21   17   18 1    
    22   17   19 ar   
    23   19   20 ar   
    24   20   21 ar   
    25   21   22 ar   
    26   23   24 1    
    27   23   40 2    
    28   24   25 2    
    29   24   26 am   
    30   26   27 am   
    31   27   28 2    
    32   27   29 1    
    33   29   30 2    
    34   29   40 1    
    35   30   31 1    
    36   31   32 ar   
    37   31   38 ar   
    38   32   33 ar   
    39   33   34 1    
    40   33   35 ar   
    41   35   36 1    
    42   35   37 ar   
    43   37   38 ar   
    44   38   39 1    
    45   39   40 1    
    46   39   41 1    
    47   41   42 1    
    48   42   43 1    
    49   42   44 1    
    50   44   45 1    
    51   44   46 1    
    52   46   47 1    
    53   46   48 1    
    54   48   49 1    
    55   49   50 1    
    56   50   51 ar   
    57   50   52 ar   
    58   50   53 1    
@<TRIPOS>SUBSTRUCTURE
     1 FAD1001     1 GROUP   
@<TRIPOS>SET
ATOM$ORANGE STATIC     ATOMS   COLORGROUP SYSTEM 
54 5 5 6 6 8 8 10 10 12 12 14 14 16 16 17 17 20 \
20 22 22 24 24 27 27 29 29 31 31 32 32 33 33 34 34 35 \
35 36 36 37 37 38 38 40 40 41 41 42 42 44 44 46 46 48 \
48 

