#    Name: 6gas_3_FAD
#    Modification time : Fri May 22 19:27:58 2020

@<TRIPOS>MOLECULE
6gas_3_FAD
   53    58     1     0     1
SMALL
NO_CHARGES


@<TRIPOS>ATOM
      1 PA         91.9580  104.8130  -11.0560 P.3       1 FAD1001     0.0000 
      2 O1A        90.8750  105.8290  -11.0570 O.co2     1 FAD1001     0.0000 
      3 O2A        91.8150  103.6050  -10.1220 O.co2     1 FAD1001     0.0000 
      4 O5B        92.2460  104.3820  -12.5510 O.3       1 FAD1001     0.0000 
      5 C5B        93.0390  103.2160  -12.8560 C.3       1 FAD1001     0.0000 
      6 C4B        92.6190  102.7120  -14.2140 C.3       1 FAD1001     0.0000 
      7 O4B        93.5690  101.7410  -14.7020 O.3       1 FAD1001     0.0000 
      8 C3B        91.2350  102.0620  -14.2940 C.3       1 FAD1001     0.0000 
      9 O3B        90.4570  102.7490  -15.2740 O.3       1 FAD1001     0.0000 
     10 C2B        91.5430  100.5860  -14.6150 C.3       1 FAD1001     0.0000 
     11 O2B        90.5930   99.9830  -15.4830 O.3       1 FAD1001     0.0000 
     12 C1B        92.8830  100.6890  -15.3400 C.3       1 FAD1001     0.0000 
     13 N9A        93.7440   99.4990  -15.2810 N.pl3     1 FAD1001     0.0000 
     14 C8A        94.2840   98.9280  -14.1590 C.2       1 FAD1001     0.0000 
     15 N7A        95.0710   97.9060  -14.4000 N.2       1 FAD1001     0.0000 
     16 C5A        95.0600   97.8020  -15.7840 C.ar      1 FAD1001     0.0000 
     17 C6A        95.7050   96.9220  -16.6820 C.ar      1 FAD1001     0.0000 
     18 N6A        96.5080   95.9220  -16.3120 N.pl3     1 FAD1001     0.0000 
     19 N1A        95.4970   97.1120  -18.0020 N.ar      1 FAD1001     0.0000 
     20 C2A        94.6960   98.1060  -18.3880 C.ar      1 FAD1001     0.0000 
     21 N3A        94.0370   98.9950  -17.6400 N.ar      1 FAD1001     0.0000 
     22 C4A        94.2590   98.7870  -16.3390 C.ar      1 FAD1001     0.0000 
     23 N1         89.9800  111.0550   -4.0430 N.2       1 FAD1001     0.0000 
     24 C2         90.0520  112.4020   -3.8100 C.2       1 FAD1001     0.0000 
     25 O2         91.1060  113.0340   -3.9760 O.2       1 FAD1001     0.0000 
     26 N3         88.9140  113.0810   -3.3620 N.am      1 FAD1001     0.0000 
     27 C4         87.6540  112.5160   -3.1280 C.2       1 FAD1001     0.0000 
     28 O4         86.7280  113.2230   -2.7320 O.2       1 FAD1001     0.0000 
     29 C4X        87.5910  111.0810   -3.3930 C.2       1 FAD1001     0.0000 
     30 N5         86.4240  110.4440   -3.1980 N.2       1 FAD1001     0.0000 
     31 C5X        86.3860  109.0640   -3.4530 C.ar      1 FAD1001     0.0000 
     32 C6         85.1850  108.3710   -3.2580 C.ar      1 FAD1001     0.0000 
     33 C7         85.0980  107.0030   -3.5040 C.ar      1 FAD1001     0.0000 
     34 C7M        83.7880  106.2940   -3.2920 C.3       1 FAD1001     0.0000 
     35 C8         86.2320  106.3050   -3.9540 C.ar      1 FAD1001     0.0000 
     36 C8M        86.1770  104.8250   -4.2250 C.3       1 FAD1001     0.0000 
     37 C9         87.4270  106.9910   -4.1540 C.ar      1 FAD1001     0.0000 
     38 C9A        87.5160  108.3590   -3.9100 C.ar      1 FAD1001     0.0000 
     39 N10        88.7300  109.0710   -4.0820 N.pl3     1 FAD1001     0.0000 
     40 C10        88.8000  110.4350   -3.8460 C.2       1 FAD1001     0.0000 
     41 C1'        89.9320  108.3990   -4.6030 C.3       1 FAD1001     0.0000 
     42 C2'        90.2190  108.7810   -6.0550 C.3       1 FAD1001     0.0000 
     43 O2'        89.1770  108.3470   -6.9320 O.3       1 FAD1001     0.0000 
     44 C3'        91.5720  108.2160   -6.4830 C.3       1 FAD1001     0.0000 
     45 O3'        92.5970  108.8580   -5.7260 O.3       1 FAD1001     0.0000 
     46 C4'        91.8590  108.4530   -7.9660 C.3       1 FAD1001     0.0000 
     47 O4'        90.7010  108.1530   -8.7470 O.3       1 FAD1001     0.0000 
     48 C5'        93.0690  107.6840   -8.4560 C.3       1 FAD1001     0.0000 
     49 O5'        93.1890  107.8510   -9.8830 O.3       1 FAD1001     0.0000 
     50 P          94.0420  106.8590  -10.7510 P.3       1 FAD1001     0.0000 
     51 O1P        93.8020  107.3360  -12.1910 O.co2     1 FAD1001     0.0000 
     52 O2P        95.3520  106.7870  -10.1010 O.co2     1 FAD1001     0.0000 
     53 O3P        93.3200  105.4570  -10.5770 O.3       1 FAD1001     0.0000 
@<TRIPOS>BOND
     1    1    2 ar   
     2    1    3 ar   
     3    1    4 1    
     4    1   53 1    
     5    4    5 1    
     6    5    6 1    
     7    6    7 1    
     8    6    8 1    
     9    7   12 1    
    10    8    9 1    
    11    8   10 1    
    12   10   11 1    
    13   10   12 1    
    14   12   13 1    
    15   13   14 1    
    16   13   22 1    
    17   14   15 2    
    18   15   16 1    
    19   16   17 ar   
    20   16   22 ar   
    21   17   18 1    
    22   17   19 ar   
    23   19   20 ar   
    24   20   21 ar   
    25   21   22 ar   
    26   23   24 1    
    27   23   40 2    
    28   24   25 2    
    29   24   26 am   
    30   26   27 am   
    31   27   28 2    
    32   27   29 1    
    33   29   30 2    
    34   29   40 1    
    35   30   31 1    
    36   31   32 ar   
    37   31   38 ar   
    38   32   33 ar   
    39   33   34 1    
    40   33   35 ar   
    41   35   36 1    
    42   35   37 ar   
    43   37   38 ar   
    44   38   39 1    
    45   39   40 1    
    46   39   41 1    
    47   41   42 1    
    48   42   43 1    
    49   42   44 1    
    50   44   45 1    
    51   44   46 1    
    52   46   47 1    
    53   46   48 1    
    54   48   49 1    
    55   49   50 1    
    56   50   51 ar   
    57   50   52 ar   
    58   50   53 1    
@<TRIPOS>SUBSTRUCTURE
     1 FAD1001     1 GROUP   
@<TRIPOS>SET
ATOM$ORANGE STATIC     ATOMS   COLORGROUP SYSTEM 
54 5 5 6 6 8 8 10 10 12 12 14 14 16 16 17 17 20 \
20 22 22 24 24 27 27 29 29 31 31 32 32 33 33 34 34 35 \
35 36 36 37 37 38 38 40 40 41 41 42 42 44 44 46 46 48 \
48 

