#    Name: 6qsi_1_TPP
#    Modification time : Fri May 22 19:26:39 2020

@<TRIPOS>MOLECULE
6qsi_1_TPP
   26    27     1     0     1
SMALL
NO_CHARGES


@<TRIPOS>ATOM
      1 N1'        61.6930   42.8680   88.7650 N.ar      1 TPP601      0.0000 
      2 C2'        61.0130   43.2210   87.6360 C.ar      1 TPP601      0.0000 
      3 CM2        59.5230   43.4220   87.7020 C.3       1 TPP601      0.0000 
      4 N3'        61.6160   43.3750   86.4590 N.ar      1 TPP601      0.0000 
      5 C4'        62.9680   43.2460   86.3310 C.ar      1 TPP601      0.0000 
      6 N4'        63.5490   43.4560   85.1420 N.pl3     1 TPP601      0.0000 
      7 C5'        63.7090   42.7830   87.5050 C.ar      1 TPP601      0.0000 
      8 C6'        63.0260   42.6320   88.7020 C.ar      1 TPP601      0.0000 
      9 C7'        65.2090   42.5530   87.4400 C.3       1 TPP601      0.0000 
     10 N3         65.6450   41.4290   86.5660 N.pl3     1 TPP601      0.0000 
     11 C2         66.2460   41.6180   85.3650 C.2       1 TPP601      0.0000 
     12 S1         66.7980   40.1350   84.5550 S.3       1 TPP601      0.0000 
     13 C5         66.2560   39.2390   85.9440 C.2       1 TPP601      0.0000 
     14 C4         65.6710   40.1110   86.9810 C.2       1 TPP601      0.0000 
     15 CM4        65.1100   39.6290   88.2790 C.3       1 TPP601      0.0000 
     16 C6         66.4240   37.7300   85.9720 C.3       1 TPP601      0.0000 
     17 C7         65.3620   36.9920   85.2020 C.3       1 TPP601      0.0000 
     18 O7         65.6580   35.6040   85.3910 O.3       1 TPP601      0.0000 
     19 PA         65.0730   34.5350   84.3640 P.3       1 TPP601      0.0000 
     20 O1A        63.7240   34.9820   83.8170 O.co2     1 TPP601      0.0000 
     21 O2A        65.0790   33.2730   85.1950 O.co2     1 TPP601      0.0000 
     22 O3A        66.1280   34.5280   83.1540 O.3       1 TPP601      0.0000 
     23 PB         67.7210   34.1680   83.1680 P.3       1 TPP601      0.0000 
     24 O1B        68.0120   33.7330   81.7460 O.co2     1 TPP601      0.0000 
     25 O2B        68.3680   35.5280   83.4090 O.co2     1 TPP601      0.0000 
     26 O3B        67.9250   33.1650   84.2750 O.co2     1 TPP601      0.0000 
@<TRIPOS>BOND
     1    1    2 ar   
     2    1    8 ar   
     3    2    3 1    
     4    2    4 ar   
     5    4    5 ar   
     6    5    6 1    
     7    5    7 ar   
     8    7    8 ar   
     9    7    9 1    
    10    9   10 1    
    11   10   11 2    
    12   10   14 1    
    13   11   12 1    
    14   12   13 1    
    15   13   14 2    
    16   13   16 1    
    17   14   15 1    
    18   16   17 1    
    19   17   18 1    
    20   18   19 1    
    21   19   20 ar   
    22   19   21 ar   
    23   19   22 1    
    24   22   23 1    
    25   23   24 ar   
    26   23   25 ar   
    27   23   26 ar   
@<TRIPOS>SUBSTRUCTURE
     1 TPP601      1 GROUP   
@<TRIPOS>SET
ATOM$ORANGE STATIC     ATOMS   COLORGROUP SYSTEM 
24 2 2 3 3 5 5 7 7 8 8 9 9 11 11 13 13 14 \
14 15 15 16 16 17 17 

