#    Name: 6hec_5_ATP
#    Modification time : Fri May 22 19:35:47 2020

@<TRIPOS>MOLECULE
6hec_5_ATP
   31    33     1     0     1
SMALL
NO_CHARGES


@<TRIPOS>ATOM
      1 PG        279.0700  261.7360  373.0340 P.3       1 ATP401      0.0000 
      2 O1G       278.2480  262.1800  371.8510 O.co2     1 ATP401      0.0000 
      3 O2G       278.6840  262.5390  374.2760 O.co2     1 ATP401      0.0000 
      4 O3G       279.0680  260.2540  373.1890 O.co2     1 ATP401      0.0000 
      5 PB        282.1290  263.3620  372.7700 P.3       1 ATP401      0.0000 
      6 O1B       282.5080  263.7960  371.3640 O.co2     1 ATP401      0.0000 
      7 O2B       281.7980  264.4880  373.7520 O.co2     1 ATP401      0.0000 
      8 O3B       280.7280  262.2960  372.7210 O.3       1 ATP401      0.0000 
      9 PA        284.8530  261.8130  373.5860 P.3       1 ATP401      0.0000 
     10 O1A       285.8850  262.8550  373.2670 O.co2     1 ATP401      0.0000 
     11 O2A       284.9490  261.1480  374.8930 O.co2     1 ATP401      0.0000 
     12 O3A       283.3390  262.3180  373.3760 O.3       1 ATP401      0.0000 
     13 O5'       284.8800  260.7470  372.4420 O.3       1 ATP401      0.0000 
     14 C5'       285.3440  259.4050  372.7590 C.3       1 ATP401      0.0000 
     15 C4'       286.8600  259.1860  372.7250 C.3       1 ATP401      0.0000 
     16 O4'       287.3880  259.5960  371.4590 O.3       1 ATP401      0.0000 
     17 C3'       287.8100  259.7240  373.7520 C.3       1 ATP401      0.0000 
     18 O3'       287.6630  258.9650  374.9830 O.3       1 ATP401      0.0000 
     19 C2'       289.1170  259.5890  373.0720 C.3       1 ATP401      0.0000 
     20 O2'       289.5310  258.2340  373.0560 O.3       1 ATP401      0.0000 
     21 C1'       288.7310  259.8960  371.6720 C.3       1 ATP401      0.0000 
     22 N9        289.0860  261.2110  371.2660 N.pl3     1 ATP401      0.0000 
     23 C8        288.3920  262.4220  371.1660 C.2       1 ATP401      0.0000 
     24 N7        289.0480  263.3520  370.5890 N.2       1 ATP401      0.0000 
     25 C5        290.2650  262.8020  370.2740 C.ar      1 ATP401      0.0000 
     26 C6        291.3530  263.3780  369.5590 C.ar      1 ATP401      0.0000 
     27 N6        291.3250  264.5280  368.7620 N.pl3     1 ATP401      0.0000 
     28 N1        292.4070  262.5790  369.4220 N.ar      1 ATP401      0.0000 
     29 C2        292.4590  261.4130  370.1080 C.ar      1 ATP401      0.0000 
     30 N3        291.3850  260.7130  370.6280 N.ar      1 ATP401      0.0000 
     31 C4        290.3120  261.5130  370.7590 C.ar      1 ATP401      0.0000 
@<TRIPOS>BOND
     1    1    2 ar   
     2    1    3 ar   
     3    1    4 ar   
     4    1    8 1    
     5    5    6 ar   
     6    5    7 ar   
     7    5    8 1    
     8    5   12 1    
     9    9   10 ar   
    10    9   11 ar   
    11    9   12 1    
    12    9   13 1    
    13   13   14 1    
    14   14   15 1    
    15   15   16 1    
    16   15   17 1    
    17   16   21 1    
    18   17   18 1    
    19   17   19 1    
    20   19   20 1    
    21   19   21 1    
    22   21   22 1    
    23   22   23 1    
    24   22   31 1    
    25   23   24 2    
    26   24   25 1    
    27   25   26 ar   
    28   25   31 ar   
    29   26   27 1    
    30   26   28 ar   
    31   28   29 ar   
    32   29   30 ar   
    33   30   31 ar   
@<TRIPOS>SUBSTRUCTURE
     1 ATP401      1 GROUP   
@<TRIPOS>SET
ATOM$ORANGE STATIC     ATOMS   COLORGROUP SYSTEM 
20 14 14 15 15 17 17 19 19 21 21 23 23 25 25 26 26 29 \
29 31 31 

