#    Name: 6hec_2_ATP
#    Modification time : Fri May 22 19:35:08 2020

@<TRIPOS>MOLECULE
6hec_2_ATP
   31    33     1     0     1
SMALL
NO_CHARGES


@<TRIPOS>ATOM
      1 PG        239.3470  237.3200  366.7720 P.3       1 ATP401      0.0000 
      2 O1G       240.3270  237.3360  365.6020 O.co2     1 ATP401      0.0000 
      3 O2G       239.9190  237.6500  368.1300 O.co2     1 ATP401      0.0000 
      4 O3G       238.1090  238.1620  366.4800 O.co2     1 ATP401      0.0000 
      5 PB        238.9140  234.0640  367.6280 P.3       1 ATP401      0.0000 
      6 O1B       239.5020  233.1040  366.5710 O.co2     1 ATP401      0.0000 
      7 O2B       239.5770  234.2310  368.9950 O.co2     1 ATP401      0.0000 
      8 O3B       238.8080  235.6730  367.0020 O.3       1 ATP401      0.0000 
      9 PA        235.8920  233.2290  368.8410 P.3       1 ATP401      0.0000 
     10 O1A       236.0140  231.7760  369.0000 O.co2     1 ATP401      0.0000 
     11 O2A       235.9550  234.0890  370.0840 O.co2     1 ATP401      0.0000 
     12 O3A       237.2570  233.7470  367.8730 O.3       1 ATP401      0.0000 
     13 O5'       234.5590  233.5430  368.0500 O.3       1 ATP401      0.0000 
     14 C5'       233.4050  233.7170  368.8680 C.3       1 ATP401      0.0000 
     15 C4'       232.5700  232.4770  369.2740 C.3       1 ATP401      0.0000 
     16 O4'       232.2310  231.8280  368.0780 O.3       1 ATP401      0.0000 
     17 C3'       233.0440  231.4160  370.2500 C.3       1 ATP401      0.0000 
     18 O3'       232.8520  231.8580  371.5810 O.3       1 ATP401      0.0000 
     19 C2'       232.3160  230.1340  369.7400 C.3       1 ATP401      0.0000 
     20 O2'       231.0390  229.9870  370.1970 O.3       1 ATP401      0.0000 
     21 C1'       232.2970  230.4070  368.3010 C.3       1 ATP401      0.0000 
     22 N9        233.4200  229.8360  367.5210 N.pl3     1 ATP401      0.0000 
     23 C8        234.5010  230.3050  366.8510 C.2       1 ATP401      0.0000 
     24 N7        235.2600  229.4260  366.2850 N.2       1 ATP401      0.0000 
     25 C5        234.6090  228.2590  366.5320 C.ar      1 ATP401      0.0000 
     26 C6        235.0940  226.9430  366.2580 C.ar      1 ATP401      0.0000 
     27 N6        236.2910  226.8570  365.5420 N.pl3     1 ATP401      0.0000 
     28 N1        234.3340  225.9170  366.7180 N.ar      1 ATP401      0.0000 
     29 C2        233.2700  226.2880  367.4920 C.ar      1 ATP401      0.0000 
     30 N3        232.6680  227.4670  367.7180 N.ar      1 ATP401      0.0000 
     31 C4        233.4770  228.4280  367.3020 C.ar      1 ATP401      0.0000 
@<TRIPOS>BOND
     1    1    2 ar   
     2    1    3 ar   
     3    1    4 ar   
     4    1    8 1    
     5    5    6 ar   
     6    5    7 ar   
     7    5    8 1    
     8    5   12 1    
     9    9   10 ar   
    10    9   11 ar   
    11    9   12 1    
    12    9   13 1    
    13   13   14 1    
    14   14   15 1    
    15   15   16 1    
    16   15   17 1    
    17   16   21 1    
    18   17   18 1    
    19   17   19 1    
    20   19   20 1    
    21   19   21 1    
    22   21   22 1    
    23   22   23 1    
    24   22   31 1    
    25   23   24 2    
    26   24   25 1    
    27   25   26 ar   
    28   25   31 ar   
    29   26   27 1    
    30   26   28 ar   
    31   28   29 ar   
    32   29   30 ar   
    33   30   31 ar   
@<TRIPOS>SUBSTRUCTURE
     1 ATP401      1 GROUP   
@<TRIPOS>SET
ATOM$ORANGE STATIC     ATOMS   COLORGROUP SYSTEM 
20 14 14 15 15 17 17 19 19 21 21 23 23 25 25 26 26 29 \
29 31 31 

