#    Name: 6hec_3_ADP
#    Modification time : Fri May 22 19:35:21 2020

@<TRIPOS>MOLECULE
6hec_3_ADP
   27    29     1     0     1
SMALL
NO_CHARGES


@<TRIPOS>ATOM
      1 PB        223.1280  260.1080  363.7290 P.3       1 ADP401      0.0000 
      2 O1B       223.6940  261.0000  362.6430 O.co2     1 ADP401      0.0000 
      3 O2B       222.2440  258.9710  363.2190 O.co2     1 ADP401      0.0000 
      4 O3B       224.1930  259.6340  364.7290 O.co2     1 ADP401      0.0000 
      5 PA        220.7300  261.8650  365.2130 P.3       1 ADP401      0.0000 
      6 O1A       219.8220  260.8020  365.7300 O.co2     1 ADP401      0.0000 
      7 O2A       221.2910  262.8380  366.1310 O.co2     1 ADP401      0.0000 
      8 O3A       222.0600  261.1340  364.5260 O.3       1 ADP401      0.0000 
      9 O5'       220.0120  262.5970  364.0480 O.3       1 ADP401      0.0000 
     10 C5'       219.9130  264.0360  364.0540 C.3       1 ADP401      0.0000 
     11 C4'       218.5920  264.7090  364.4470 C.3       1 ADP401      0.0000 
     12 O4'       217.5280  264.3120  363.5170 O.3       1 ADP401      0.0000 
     13 C3'       218.0390  264.4120  365.8360 C.3       1 ADP401      0.0000 
     14 O3'       217.6370  265.5810  366.5010 O.3       1 ADP401      0.0000 
     15 C2'       217.0160  263.3650  365.6230 C.3       1 ADP401      0.0000 
     16 O2'       215.9960  263.4670  366.5140 O.3       1 ADP401      0.0000 
     17 C1'       216.5400  263.6530  364.2370 C.3       1 ADP401      0.0000 
     18 N9        216.1770  262.3900  363.5660 N.pl3     1 ADP401      0.0000 
     19 C8        217.1200  261.5570  363.0630 C.2       1 ADP401      0.0000 
     20 N7        216.5740  260.4910  362.5160 N.2       1 ADP401      0.0000 
     21 C5        215.2260  260.6200  362.7330 C.ar      1 ADP401      0.0000 
     22 C6        214.2580  259.7560  362.4630 C.ar      1 ADP401      0.0000 
     23 N6        214.4250  258.7660  361.5920 N.pl3     1 ADP401      0.0000 
     24 N1        213.0740  259.9680  363.1190 N.ar      1 ADP401      0.0000 
     25 C2        212.9090  261.0570  363.8580 C.ar      1 ADP401      0.0000 
     26 N3        213.7700  261.9900  364.1460 N.ar      1 ADP401      0.0000 
     27 C4        214.9550  261.7400  363.5360 C.ar      1 ADP401      0.0000 
@<TRIPOS>BOND
     1    1    2 ar   
     2    1    3 ar   
     3    1    4 ar   
     4    1    8 1    
     5    5    6 ar   
     6    5    7 ar   
     7    5    8 1    
     8    5    9 1    
     9    9   10 1    
    10   10   11 1    
    11   11   12 1    
    12   11   13 1    
    13   12   17 1    
    14   13   14 1    
    15   13   15 1    
    16   15   16 1    
    17   15   17 1    
    18   17   18 1    
    19   18   19 1    
    20   18   27 1    
    21   19   20 2    
    22   20   21 1    
    23   21   22 ar   
    24   21   27 ar   
    25   22   23 1    
    26   22   24 ar   
    27   24   25 ar   
    28   25   26 ar   
    29   26   27 ar   
@<TRIPOS>SUBSTRUCTURE
     1 ADP401      1 GROUP   
@<TRIPOS>SET
ATOM$ORANGE STATIC     ATOMS   COLORGROUP SYSTEM 
20 10 10 11 11 13 13 15 15 17 17 19 19 21 21 22 22 25 \
25 27 27 

