#    Name: 6hec_4_ATP
#    Modification time : Fri May 22 19:35:35 2020

@<TRIPOS>MOLECULE
6hec_4_ATP
   31    33     1     0     1
SMALL
NO_CHARGES


@<TRIPOS>ATOM
      1 PG        266.1290  285.8080  373.9920 P.3       1 ATP401      0.0000 
      2 O1G       264.9540  285.4510  373.1500 O.co2     1 ATP401      0.0000 
      3 O2G       265.6610  285.9910  375.3800 O.co2     1 ATP401      0.0000 
      4 O3G       267.3850  284.9300  373.8690 O.co2     1 ATP401      0.0000 
      5 PB        266.6450  289.0390  373.4650 P.3       1 ATP401      0.0000 
      6 O1B       266.2200  289.5460  372.0730 O.co2     1 ATP401      0.0000 
      7 O2B       265.9410  289.5620  374.7690 O.co2     1 ATP401      0.0000 
      8 O3B       266.5380  287.3550  373.3980 O.3       1 ATP401      0.0000 
      9 PA        270.0570  288.7400  373.4800 P.3       1 ATP401      0.0000 
     10 O1A       270.2480  287.4450  372.7640 O.co2     1 ATP401      0.0000 
     11 O2A       270.7000  288.8660  374.8020 O.co2     1 ATP401      0.0000 
     12 O3A       268.3840  289.0600  373.6880 O.3       1 ATP401      0.0000 
     13 O5'       270.4710  289.9030  372.5030 O.3       1 ATP401      0.0000 
     14 C5'       271.1350  291.1260  372.9430 C.3       1 ATP401      0.0000 
     15 C4'       272.6650  291.1060  372.8270 C.3       1 ATP401      0.0000 
     16 O4'       272.9540  291.5530  371.4410 O.3       1 ATP401      0.0000 
     17 C3'       273.2090  292.1660  373.7830 C.3       1 ATP401      0.0000 
     18 O3'       274.5340  291.8840  374.1220 O.3       1 ATP401      0.0000 
     19 C2'       273.0560  293.4180  372.9500 C.3       1 ATP401      0.0000 
     20 O2'       274.0090  294.3850  373.3410 O.3       1 ATP401      0.0000 
     21 C1'       273.2690  292.9480  371.5280 C.3       1 ATP401      0.0000 
     22 N9        272.3480  293.7130  370.5620 N.pl3     1 ATP401      0.0000 
     23 C8        271.4040  293.2820  369.7340 C.2       1 ATP401      0.0000 
     24 N7        270.7910  294.2660  369.1480 N.2       1 ATP401      0.0000 
     25 C5        271.4000  295.4020  369.5800 C.ar      1 ATP401      0.0000 
     26 C6        271.1110  296.8000  369.2400 C.ar      1 ATP401      0.0000 
     27 N6        269.9120  296.9800  368.4890 N.pl3     1 ATP401      0.0000 
     28 N1        271.9750  297.7030  369.7860 N.ar      1 ATP401      0.0000 
     29 C2        272.9410  297.2550  370.6560 C.ar      1 ATP401      0.0000 
     30 N3        273.1930  295.9820  371.0080 N.ar      1 ATP401      0.0000 
     31 C4        272.3770  295.1170  370.4550 C.ar      1 ATP401      0.0000 
@<TRIPOS>BOND
     1    1    2 ar   
     2    1    3 ar   
     3    1    4 ar   
     4    1    8 1    
     5    5    6 ar   
     6    5    7 ar   
     7    5    8 1    
     8    5   12 1    
     9    9   10 ar   
    10    9   11 ar   
    11    9   12 1    
    12    9   13 1    
    13   13   14 1    
    14   14   15 1    
    15   15   16 1    
    16   15   17 1    
    17   16   21 1    
    18   17   18 1    
    19   17   19 1    
    20   19   20 1    
    21   19   21 1    
    22   21   22 1    
    23   22   23 1    
    24   22   31 1    
    25   23   24 2    
    26   24   25 1    
    27   25   26 ar   
    28   25   31 ar   
    29   26   27 1    
    30   26   28 ar   
    31   28   29 ar   
    32   29   30 ar   
    33   30   31 ar   
@<TRIPOS>SUBSTRUCTURE
     1 ATP401      1 GROUP   
@<TRIPOS>SET
ATOM$ORANGE STATIC     ATOMS   COLORGROUP SYSTEM 
20 14 14 15 15 17 17 19 19 21 21 23 23 25 25 26 26 29 \
29 31 31 

