#    Name: 6hec_1_ATP
#    Modification time : Fri May 22 19:34:56 2020

@<TRIPOS>MOLECULE
6hec_1_ATP
   31    33     1     0     1
SMALL
NO_CHARGES


@<TRIPOS>ATOM
      1 PG        266.2000  240.0420  371.6980 P.3       1 ATP401      0.0000 
      2 O1G       266.4610  240.9570  370.5440 O.co2     1 ATP401      0.0000 
      3 O2G       266.6690  240.5650  373.0360 O.co2     1 ATP401      0.0000 
      4 O3G       264.8250  239.4540  371.8570 O.co2     1 ATP401      0.0000 
      5 PB        268.7420  237.7680  371.5800 P.3       1 ATP401      0.0000 
      6 O1B       269.4940  237.6230  370.2480 O.co2     1 ATP401      0.0000 
      7 O2B       269.5610  238.3380  372.7440 O.co2     1 ATP401      0.0000 
      8 O3B       267.2620  238.6840  371.4920 O.3       1 ATP401      0.0000 
      9 PA        267.3840  235.0270  372.9840 P.3       1 ATP401      0.0000 
     10 O1A       265.9430  235.2490  373.0420 O.co2     1 ATP401      0.0000 
     11 O2A       268.1480  235.0460  374.2740 O.co2     1 ATP401      0.0000 
     12 O3A       268.0730  236.1940  372.0050 O.3       1 ATP401      0.0000 
     13 O5'       267.6030  233.7080  372.0850 O.3       1 ATP401      0.0000 
     14 C5'       266.6280  232.6560  371.9910 C.3       1 ATP401      0.0000 
     15 C4'       267.2470  231.2970  372.3480 C.3       1 ATP401      0.0000 
     16 O4'       268.2420  230.8430  371.3850 O.3       1 ATP401      0.0000 
     17 C3'       267.9930  231.2800  373.6450 C.3       1 ATP401      0.0000 
     18 O3'       267.6100  230.2020  374.4960 O.3       1 ATP401      0.0000 
     19 C2'       269.4470  231.2290  373.2450 C.3       1 ATP401      0.0000 
     20 O2'       270.2940  230.7050  374.2350 O.3       1 ATP401      0.0000 
     21 C1'       269.4530  230.4540  371.9900 C.3       1 ATP401      0.0000 
     22 N9        270.6520  230.6870  371.1610 N.pl3     1 ATP401      0.0000 
     23 C8        271.1650  231.8430  370.7630 C.2       1 ATP401      0.0000 
     24 N7        272.2070  231.7050  370.0360 N.2       1 ATP401      0.0000 
     25 C5        272.4770  230.3820  369.9870 C.ar      1 ATP401      0.0000 
     26 C6        273.5760  229.7420  369.4430 C.ar      1 ATP401      0.0000 
     27 N6        274.5190  230.3770  368.7110 N.pl3     1 ATP401      0.0000 
     28 N1        273.6180  228.4160  369.6680 N.ar      1 ATP401      0.0000 
     29 C2        272.6380  227.8280  370.3300 C.ar      1 ATP401      0.0000 
     30 N3        271.5280  228.4080  370.9350 N.ar      1 ATP401      0.0000 
     31 C4        271.4900  229.7360  370.6690 C.ar      1 ATP401      0.0000 
@<TRIPOS>BOND
     1    1    2 ar   
     2    1    3 ar   
     3    1    4 ar   
     4    1    8 1    
     5    5    6 ar   
     6    5    7 ar   
     7    5    8 1    
     8    5   12 1    
     9    9   10 ar   
    10    9   11 ar   
    11    9   12 1    
    12    9   13 1    
    13   13   14 1    
    14   14   15 1    
    15   15   16 1    
    16   15   17 1    
    17   16   21 1    
    18   17   18 1    
    19   17   19 1    
    20   19   20 1    
    21   19   21 1    
    22   21   22 1    
    23   22   23 1    
    24   22   31 1    
    25   23   24 2    
    26   24   25 1    
    27   25   26 ar   
    28   25   31 ar   
    29   26   27 1    
    30   26   28 ar   
    31   28   29 ar   
    32   29   30 ar   
    33   30   31 ar   
@<TRIPOS>SUBSTRUCTURE
     1 ATP401      1 GROUP   
@<TRIPOS>SET
ATOM$ORANGE STATIC     ATOMS   COLORGROUP SYSTEM 
20 14 14 15 15 17 17 19 19 21 21 23 23 25 25 26 26 29 \
29 31 31 

