#    Name: 6bwd_1_Y01
#    Modification time : Fri May 22 19:29:24 2020

@<TRIPOS>MOLECULE
6bwd_1_Y01
   35    38     1     0     0
SMALL
NO_CHARGES


@<TRIPOS>ATOM
      1 CAA       184.8730  169.0290  175.5340 C.3       1 Y011203     0.0000 
      2 CBA       184.8470  169.7870  174.2050 C.3       1 Y011203     0.0000 
      3 CAB       185.6990  169.0210  173.1940 C.3       1 Y011203     0.0000 
      4 CAN       185.3890  171.2190  174.3910 C.3       1 Y011203     0.0000 
      5 CAJ       184.2310  172.2410  174.3430 C.3       1 Y011203     0.0000 
      6 CAO       184.1330  173.0430  175.6680 C.3       1 Y011203     0.0000 
      7 CBB       182.7810  172.9010  176.4270 C.3       1 Y011203     0.0000 
      8 CAC       182.2500  171.4780  176.2240 C.3       1 Y011203     0.0000 
      9 CBE       182.9850  173.3560  177.9230 C.3       1 Y011203     0.0000 
     10 CAP       183.1000  174.8870  177.9140 C.3       1 Y011203     0.0000 
     11 CAQ       182.7040  175.3570  179.3360 C.3       1 Y011203     0.0000 
     12 CBG       182.5060  174.0410  180.0680 C.3       1 Y011203     0.0000 
     13 CBI       181.8680  173.1620  179.0140 C.3       1 Y011203     0.0000 
     14 CAE       180.5230  173.7220  178.5330 C.3       1 Y011203     0.0000 
     15 CAU       181.7340  171.7540  179.6730 C.3       1 Y011203     0.0000 
     16 CAS       180.8660  171.8030  180.8920 C.3       1 Y011203     0.0000 
     17 CBF       181.4980  172.7230  181.9140 C.3       1 Y011203     0.0000 
     18 CBD       181.6370  174.1280  181.3420 C.3       1 Y011203     0.0000 
     19 CAK       182.3550  174.9860  182.3620 C.3       1 Y011203     0.0000 
     20 CAI       181.8940  174.7850  183.6750 C.2       1 Y011203     0.0000 
     21 CAZ       181.1470  173.6750  184.0880 C.2       1 Y011203     0.0000 
     22 CAV       180.7800  173.6040  185.4420 C.3       1 Y011203     0.0000 
     23 CBH       180.6430  172.7560  183.1680 C.3       1 Y011203     0.0000 
     24 CAD       179.2130  173.2120  182.8430 C.3       1 Y011203     0.0000 
     25 CAT       180.6170  171.3400  183.7270 C.3       1 Y011203     0.0000 
     26 CAR       179.9090  171.3420  185.0400 C.3       1 Y011203     0.0000 
     27 CBC       180.7130  172.1800  185.9940 C.3       1 Y011203     0.0000 
     28 OAW       180.0420  172.2210  187.2450 O.3       1 Y011203     0.0000 
     29 CAY       180.0810  171.0080  187.8470 C.2       1 Y011203     0.0000 
     30 OAG       181.1100  170.3500  187.9770 O.2       1 Y011203     0.0000 
     31 CAM       178.7450  170.5080  188.4040 C.3       1 Y011203     0.0000 
     32 CAL       178.8880  169.0500  188.8300 C.3       1 Y011203     0.0000 
     33 CAX       179.2430  168.9840  190.3160 C.2       1 Y011203     0.0000 
     34 OAH       178.3980  168.4690  191.0790 O.co2     1 Y011203     0.0000 
     35 OAF       180.3540  169.4430  190.6570 O.co2     1 Y011203     0.0000 
@<TRIPOS>BOND
     1    1    2 1    
     2    2    3 1    
     3    2    4 1    
     4    4    5 1    
     5    5    6 1    
     6    6    7 1    
     7    7    8 1    
     8    7    9 1    
     9    9   10 1    
    10    9   13 1    
    11   10   11 1    
    12   11   12 1    
    13   12   13 1    
    14   12   18 1    
    15   13   14 1    
    16   13   15 1    
    17   15   16 1    
    18   16   17 1    
    19   17   18 1    
    20   17   23 1    
    21   18   19 1    
    22   19   20 1    
    23   20   21 2    
    24   21   22 1    
    25   21   23 1    
    26   22   27 1    
    27   23   24 1    
    28   23   25 1    
    29   25   26 1    
    30   26   27 1    
    31   27   28 1    
    32   28   29 1    
    33   29   30 2    
    34   29   31 1    
    35   31   32 1    
    36   32   33 1    
    37   33   34 ar   
    38   33   35 ar   
@<TRIPOS>SUBSTRUCTURE
     1 Y011203     1 GROUP   
@<TRIPOS>SET

