#    Name: 6bwd_14_Y01
#    Modification time : Fri May 22 19:31:57 2020

@<TRIPOS>MOLECULE
6bwd_14_Y01
   35    38     1     0     0
SMALL
NO_CHARGES


@<TRIPOS>ATOM
      1 CAA       175.0990  133.6980  190.6990 C.3       1 Y011304     0.0000 
      2 CBA       174.4020  134.9190  191.2810 C.3       1 Y011304     0.0000 
      3 CAB       174.7170  136.1330  190.4240 C.3       1 Y011304     0.0000 
      4 CAN       174.9470  135.1920  192.6670 C.3       1 Y011304     0.0000 
      5 CAJ       173.8450  135.8320  193.4960 C.3       1 Y011304     0.0000 
      6 CAO       172.8970  134.7160  193.9260 C.3       1 Y011304     0.0000 
      7 CBB       172.6880  134.7190  195.4450 C.3       1 Y011304     0.0000 
      8 CAC       171.2050  135.0530  195.6350 C.3       1 Y011304     0.0000 
      9 CBE       173.0770  133.3420  196.0560 C.3       1 Y011304     0.0000 
     10 CAP       174.3720  132.8040  195.4040 C.3       1 Y011304     0.0000 
     11 CAQ       175.0610  131.9480  196.4430 C.3       1 Y011304     0.0000 
     12 CBG       174.0190  131.9110  197.5030 C.3       1 Y011304     0.0000 
     13 CBI       173.5060  133.3360  197.5290 C.3       1 Y011304     0.0000 
     14 CAE       174.5820  134.4060  197.8130 C.3       1 Y011304     0.0000 
     15 CAU       172.4030  133.3850  198.5870 C.3       1 Y011304     0.0000 
     16 CAS       172.9810  132.9980  199.9450 C.3       1 Y011304     0.0000 
     17 CBF       173.5510  131.5740  199.8800 C.3       1 Y011304     0.0000 
     18 CBD       174.6070  131.4860  198.8040 C.3       1 Y011304     0.0000 
     19 CAK       175.0360  130.0380  198.6440 C.3       1 Y011304     0.0000 
     20 CAI       175.2530  129.3980  199.8610 C.2       1 Y011304     0.0000 
     21 CAZ       174.8310  129.9140  201.0840 C.2       1 Y011304     0.0000 
     22 CAV       175.0900  129.1040  202.2020 C.3       1 Y011304     0.0000 
     23 CBH       174.2380  131.2040  201.1780 C.3       1 Y011304     0.0000 
     24 CAD       175.2930  132.2630  201.5130 C.3       1 Y011304     0.0000 
     25 CAT       173.2480  131.2630  202.2660 C.3       1 Y011304     0.0000 
     26 CAR       173.8360  130.6640  203.5240 C.3       1 Y011304     0.0000 
     27 CBC       173.9920  129.2050  203.2290 C.3       1 Y011304     0.0000 
     28 OAW       174.3600  128.4830  204.4070 O.3       1 Y011304     0.0000 
     29 CAY       173.2950  127.7910  204.8950 C.2       1 Y011304     0.0000 
     30 OAG       172.2500  128.3090  205.2780 O.2       1 Y011304     0.0000 
     31 CAM       173.4760  126.2780  204.9640 C.3       1 Y011304     0.0000 
     32 CAL       174.1620  125.9110  206.2760 C.3       1 Y011304     0.0000 
     33 CAX       173.2440  126.2380  207.4480 C.2       1 Y011304     0.0000 
     34 OAH       173.7910  126.5900  208.5150 O.co2     1 Y011304     0.0000 
     35 OAF       172.0160  126.1240  207.2510 O.co2     1 Y011304     0.0000 
@<TRIPOS>BOND
     1    1    2 1    
     2    2    3 1    
     3    2    4 1    
     4    4    5 1    
     5    5    6 1    
     6    6    7 1    
     7    7    8 1    
     8    7    9 1    
     9    9   10 1    
    10    9   13 1    
    11   10   11 1    
    12   11   12 1    
    13   12   13 1    
    14   12   18 1    
    15   13   14 1    
    16   13   15 1    
    17   15   16 1    
    18   16   17 1    
    19   17   18 1    
    20   17   23 1    
    21   18   19 1    
    22   19   20 1    
    23   20   21 2    
    24   21   22 1    
    25   21   23 1    
    26   22   27 1    
    27   23   24 1    
    28   23   25 1    
    29   25   26 1    
    30   26   27 1    
    31   27   28 1    
    32   28   29 1    
    33   29   30 2    
    34   29   31 1    
    35   31   32 1    
    36   32   33 1    
    37   33   34 ar   
    38   33   35 ar   
@<TRIPOS>SUBSTRUCTURE
     1 Y011304     1 GROUP   
@<TRIPOS>SET

