#    Name: 6bwd_5_Y01
#    Modification time : Fri May 22 19:29:58 2020

@<TRIPOS>MOLECULE
6bwd_5_Y01
   35    38     1     0     0
SMALL
NO_CHARGES


@<TRIPOS>ATOM
      1 CAA       167.7320  183.0210  182.5890 C.3       1 Y011207     0.0000 
      2 CBA       166.2460  182.6820  182.6500 C.3       1 Y011207     0.0000 
      3 CAB       165.5990  183.1570  181.3460 C.3       1 Y011207     0.0000 
      4 CAN       165.5570  183.3630  183.8460 C.3       1 Y011207     0.0000 
      5 CAJ       166.3510  183.2580  185.1690 C.3       1 Y011207     0.0000 
      6 CAO       166.1130  181.9670  185.9740 C.3       1 Y011207     0.0000 
      7 CBB       164.8100  181.9840  186.8050 C.3       1 Y011207     0.0000 
      8 CAC       163.8020  181.0820  186.0750 C.3       1 Y011207     0.0000 
      9 CBE       165.0740  181.5860  188.3020 C.3       1 Y011207     0.0000 
     10 CAP       166.1700  182.5120  188.8300 C.3       1 Y011207     0.0000 
     11 CAQ       165.8700  182.7480  190.3230 C.3       1 Y011207     0.0000 
     12 CBG       164.7110  181.8360  190.5980 C.3       1 Y011207     0.0000 
     13 CBI       163.9340  181.9040  189.3070 C.3       1 Y011207     0.0000 
     14 CAE       163.3760  183.3210  188.9980 C.3       1 Y011207     0.0000 
     15 CAU       162.8150  180.8480  189.4760 C.3       1 Y011207     0.0000 
     16 CAS       161.8830  181.1940  190.6290 C.3       1 Y011207     0.0000 
     17 CBF       162.6300  181.4060  191.9590 C.3       1 Y011207     0.0000 
     18 CBD       163.8190  182.3360  191.7540 C.3       1 Y011207     0.0000 
     19 CAK       164.5790  182.4140  193.0640 C.3       1 Y011207     0.0000 
     20 CAI       163.7260  182.7280  194.1340 C.2       1 Y011207     0.0000 
     21 CAZ       162.3430  182.5180  194.1130 C.2       1 Y011207     0.0000 
     22 CAV       161.6200  182.8840  195.2660 C.3       1 Y011207     0.0000 
     23 CBH       161.6850  182.1090  192.9360 C.3       1 Y011207     0.0000 
     24 CAD       161.1210  183.3880  192.2620 C.3       1 Y011207     0.0000 
     25 CAT       160.5570  181.1450  193.2450 C.3       1 Y011207     0.0000 
     26 CAR       159.6250  181.7560  194.2540 C.3       1 Y011207     0.0000 
     27 CBC       160.3840  182.0010  195.5480 C.3       1 Y011207     0.0000 
     28 OAW       159.4950  182.5650  196.5900 O.3       1 Y011207     0.0000 
     29 CAY       159.1190  183.8890  196.6000 C.2       1 Y011207     0.0000 
     30 OAG       159.7910  184.7990  197.0840 O.2       1 Y011207     0.0000 
     31 CAM       157.7080  184.1970  196.0800 C.3       1 Y011207     0.0000 
     32 CAL       156.6570  183.6840  197.0610 C.3       1 Y011207     0.0000 
     33 CAX       155.2770  184.1810  196.6290 C.2       1 Y011207     0.0000 
     34 OAH       154.6600  184.9150  197.4300 O.co2     1 Y011207     0.0000 
     35 OAF       154.8710  183.8170  195.5050 O.co2     1 Y011207     0.0000 
@<TRIPOS>BOND
     1    1    2 1    
     2    2    3 1    
     3    2    4 1    
     4    4    5 1    
     5    5    6 1    
     6    6    7 1    
     7    7    8 1    
     8    7    9 1    
     9    9   10 1    
    10    9   13 1    
    11   10   11 1    
    12   11   12 1    
    13   12   13 1    
    14   12   18 1    
    15   13   14 1    
    16   13   15 1    
    17   15   16 1    
    18   16   17 1    
    19   17   18 1    
    20   17   23 1    
    21   18   19 1    
    22   19   20 1    
    23   20   21 2    
    24   21   22 1    
    25   21   23 1    
    26   22   27 1    
    27   23   24 1    
    28   23   25 1    
    29   25   26 1    
    30   26   27 1    
    31   27   28 1    
    32   28   29 1    
    33   29   30 2    
    34   29   31 1    
    35   31   32 1    
    36   32   33 1    
    37   33   34 ar   
    38   33   35 ar   
@<TRIPOS>SUBSTRUCTURE
     1 Y011207     1 GROUP   
@<TRIPOS>SET

