#    Name: 6bwd_19_Y01_CAVITY_N1_4
#    Modification time : Fri May 22 19:32:50 2020

@<TRIPOS>MOLECULE
6bwd_19_Y01_CAVITY_N1_4
    1     0     1     0     0
SMALL
NO_CHARGES


@<TRIPOS>ATOM
      1 CZ        176.2400  130.3900  201.1400 C.ar      1 PHE5        0.0000 
@<TRIPOS>BOND
@<TRIPOS>SUBSTRUCTURE
     1 PHE5        1 GROUP   
@<TRIPOS>SET

