#    Name: 6bwd_19_Y01_CAVITY_N1_6
#    Modification time : Fri May 22 19:32:50 2020

@<TRIPOS>MOLECULE
6bwd_19_Y01_CAVITY_N1_6
   15     0     4     0     0
SMALL
NO_CHARGES


@<TRIPOS>ATOM
      1 N         176.1200  131.9300  198.1600 N.am      1 ALA2        0.0000 
      2 CZ        176.5400  131.5300  200.2000 C.ar      2 PHE5        0.0000 
      3 CZ        175.2500  132.1900  200.6000 C.ar      2 PHE5        0.0000 
      4 CZ        176.2400  130.3900  201.1400 C.ar      2 PHE5        0.0000 
      5 CZ        174.9600  131.0600  201.5400 C.ar      2 PHE5        0.0000 
      6 CZ        175.9700  132.9200  201.7000 C.ar      2 PHE5        0.0000 
      7 CZ        175.6700  131.7800  202.6400 C.ar      2 PHE5        0.0000 
      8 CZ        175.3800  130.6500  203.5800 C.ar      2 PHE5        0.0000 
      9 CA        176.6900  130.5400  196.6600 C.3       3 GLY6        0.0000 
     10 CA        173.3800  130.5900  202.8700 C.3       3 GLY6        0.0000 
     11 CA        173.0800  129.4600  203.8100 C.3       3 GLY6        0.0000 
     12 CA        174.0900  131.3200  203.9700 C.3       3 GLY6        0.0000 
     13 CA        175.0800  129.5200  204.5200 C.3       3 GLY6        0.0000 
     14 DU        175.8200  130.8000  199.1000 H         4 CUB7        0.0000 
     15 DU        174.6600  129.9300  202.4800 H         4 CUB7        0.0000 
@<TRIPOS>BOND
@<TRIPOS>SUBSTRUCTURE
     1 ALA2        1 GROUP   
     2 PHE5        2 GROUP   
     3 GLY6        9 GROUP   
     4 CUB7       14 GROUP   
@<TRIPOS>SET

