#    Name: 6bwd_15_Y01
#    Modification time : Fri May 22 19:32:19 2020

@<TRIPOS>MOLECULE
6bwd_15_Y01
   35    38     1     0     0
SMALL
NO_CHARGES


@<TRIPOS>ATOM
      1 CAA       172.7850  130.7540  172.8230 C.3       1 Y011305     0.0000 
      2 CBA       172.6540  130.6880  174.3430 C.3       1 Y011305     0.0000 
      3 CAB       171.1770  130.7790  174.7340 C.3       1 Y011305     0.0000 
      4 CAN       173.4210  131.8550  174.9640 C.3       1 Y011305     0.0000 
      5 CAJ       173.5520  131.6270  176.4660 C.3       1 Y011305     0.0000 
      6 CAO       173.6940  132.9550  177.1940 C.3       1 Y011305     0.0000 
      7 CBB       174.0480  132.7120  178.6630 C.3       1 Y011305     0.0000 
      8 CAC       175.5520  132.8620  178.7600 C.3       1 Y011305     0.0000 
      9 CBE       173.2290  133.6950  179.5390 C.3       1 Y011305     0.0000 
     10 CAP       171.7390  133.4200  179.2050 C.3       1 Y011305     0.0000 
     11 CAQ       170.9800  133.5120  180.5080 C.3       1 Y011305     0.0000 
     12 CBG       171.9850  134.2270  181.3750 C.3       1 Y011305     0.0000 
     13 CBI       173.2740  133.5000  181.0780 C.3       1 Y011305     0.0000 
     14 CAE       173.2220  131.9990  181.4550 C.3       1 Y011305     0.0000 
     15 CAU       174.3710  134.2590  181.8560 C.3       1 Y011305     0.0000 
     16 CAS       174.0680  134.2520  183.3690 C.3       1 Y011305     0.0000 
     17 CBF       172.6580  134.8130  183.6790 C.3       1 Y011305     0.0000 
     18 CBD       171.6320  134.0980  182.8330 C.3       1 Y011305     0.0000 
     19 CAK       170.2860  134.7540  183.0430 C.3       1 Y011305     0.0000 
     20 CAI       169.9600  134.8460  184.3850 C.2       1 Y011305     0.0000 
     21 CAZ       170.9140  134.8280  185.3960 C.2       1 Y011305     0.0000 
     22 CAV       170.4180  134.9390  186.6950 C.3       1 Y011305     0.0000 
     23 CBH       172.2780  134.5630  185.1430 C.3       1 Y011305     0.0000 
     24 CAD       172.5180  133.0820  185.4810 C.3       1 Y011305     0.0000 
     25 CAT       173.1510  135.4420  186.0000 C.3       1 Y011305     0.0000 
     26 CAR       172.6930  135.3570  187.4400 C.3       1 Y011305     0.0000 
     27 CBC       171.2670  135.8490  187.5480 C.3       1 Y011305     0.0000 
     28 OAW       170.8580  135.7440  188.9180 O.3       1 Y011305     0.0000 
     29 CAY       169.6330  136.2530  189.2240 C.2       1 Y011305     0.0000 
     30 OAG       169.0860  137.1780  188.6260 O.2       1 Y011305     0.0000 
     31 CAM       168.9830  135.6220  190.4600 C.3       1 Y011305     0.0000 
     32 CAL       167.5050  136.0150  190.5410 C.3       1 Y011305     0.0000 
     33 CAX       167.3380  137.2820  191.3850 C.2       1 Y011305     0.0000 
     34 OAH       166.1720  137.6110  191.6930 O.co2     1 Y011305     0.0000 
     35 OAF       168.3790  137.8950  191.6980 O.co2     1 Y011305     0.0000 
@<TRIPOS>BOND
     1    1    2 1    
     2    2    3 1    
     3    2    4 1    
     4    4    5 1    
     5    5    6 1    
     6    6    7 1    
     7    7    8 1    
     8    7    9 1    
     9    9   10 1    
    10    9   13 1    
    11   10   11 1    
    12   11   12 1    
    13   12   13 1    
    14   12   18 1    
    15   13   14 1    
    16   13   15 1    
    17   15   16 1    
    18   16   17 1    
    19   17   18 1    
    20   17   23 1    
    21   18   19 1    
    22   19   20 1    
    23   20   21 2    
    24   21   22 1    
    25   21   23 1    
    26   22   27 1    
    27   23   24 1    
    28   23   25 1    
    29   25   26 1    
    30   26   27 1    
    31   27   28 1    
    32   28   29 1    
    33   29   30 2    
    34   29   31 1    
    35   31   32 1    
    36   32   33 1    
    37   33   34 ar   
    38   33   35 ar   
@<TRIPOS>SUBSTRUCTURE
     1 Y011305     1 GROUP   
@<TRIPOS>SET

