#    Name: 6bwd_9_Y01
#    Modification time : Fri May 22 19:30:58 2020

@<TRIPOS>MOLECULE
6bwd_9_Y01
   35    38     1     0     0
SMALL
NO_CHARGES


@<TRIPOS>ATOM
      1 CAA       138.1190  164.4680  192.5410 C.3       1 Y011205     0.0000 
      2 CBA       139.2540  165.4880  192.4220 C.3       1 Y011205     0.0000 
      3 CAB       138.7270  166.8560  192.7340 C.3       1 Y011205     0.0000 
      4 CAN       139.8960  165.6150  191.0430 C.3       1 Y011205     0.0000 
      5 CAJ       139.1890  164.9130  189.8780 C.3       1 Y011205     0.0000 
      6 CAO       138.0780  165.6970  189.1440 C.3       1 Y011205     0.0000 
      7 CBB       138.4390  166.2830  187.7540 C.3       1 Y011205     0.0000 
      8 CAC       139.5500  167.3270  187.9230 C.3       1 Y011205     0.0000 
      9 CBE       138.7020  165.2420  186.5910 C.3       1 Y011205     0.0000 
     10 CAP       137.8030  163.9780  186.7140 C.3       1 Y011205     0.0000 
     11 CAQ       137.4790  163.5090  185.2640 C.3       1 Y011205     0.0000 
     12 CBG       138.2090  164.5010  184.3870 C.3       1 Y011205     0.0000 
     13 CBI       138.2060  165.7500  185.2220 C.3       1 Y011205     0.0000 
     14 CAE       136.7730  166.2800  185.4430 C.3       1 Y011205     0.0000 
     15 CAU       139.1430  166.7240  184.4500 C.3       1 Y011205     0.0000 
     16 CAS       138.6340  167.0560  183.0410 C.3       1 Y011205     0.0000 
     17 CBF       138.1960  165.8350  182.2000 C.3       1 Y011205     0.0000 
     18 CBD       137.4540  164.8180  183.0780 C.3       1 Y011205     0.0000 
     19 CAK       137.2020  163.5900  182.2490 C.3       1 Y011205     0.0000 
     20 CAI       136.4760  163.9500  181.1080 C.2       1 Y011205     0.0000 
     21 CAZ       136.5060  165.2270  180.5360 C.2       1 Y011205     0.0000 
     22 CAV       135.7020  165.4220  179.4090 C.3       1 Y011205     0.0000 
     23 CBH       137.1630  166.3050  181.1530 C.3       1 Y011205     0.0000 
     24 CAD       136.0800  167.1200  181.8780 C.3       1 Y011205     0.0000 
     25 CAT       137.8350  167.1830  180.1210 C.3       1 Y011205     0.0000 
     26 CAR       136.8220  167.5760  179.0530 C.3       1 Y011205     0.0000 
     27 CBC       136.3030  166.3380  178.3530 C.3       1 Y011205     0.0000 
     28 OAW       135.2640  166.7370  177.4550 O.3       1 Y011205     0.0000 
     29 CAY       135.0470  165.9210  176.3840 C.2       1 Y011205     0.0000 
     30 OAG       134.6760  164.7510  176.4400 O.2       1 Y011205     0.0000 
     31 CAM       135.2290  166.5920  175.0300 C.3       1 Y011205     0.0000 
     32 CAL       133.8710  167.1050  174.5550 C.3       1 Y011205     0.0000 
     33 CAX       133.7180  168.5720  174.9480 C.2       1 Y011205     0.0000 
     34 OAH       133.7570  168.8450  176.1640 O.co2     1 Y011205     0.0000 
     35 OAF       133.5720  169.3920  174.0200 O.co2     1 Y011205     0.0000 
@<TRIPOS>BOND
     1    1    2 1    
     2    2    3 1    
     3    2    4 1    
     4    4    5 1    
     5    5    6 1    
     6    6    7 1    
     7    7    8 1    
     8    7    9 1    
     9    9   10 1    
    10    9   13 1    
    11   10   11 1    
    12   11   12 1    
    13   12   13 1    
    14   12   18 1    
    15   13   14 1    
    16   13   15 1    
    17   15   16 1    
    18   16   17 1    
    19   17   18 1    
    20   17   23 1    
    21   18   19 1    
    22   19   20 1    
    23   20   21 2    
    24   21   22 1    
    25   21   23 1    
    26   22   27 1    
    27   23   24 1    
    28   23   25 1    
    29   25   26 1    
    30   26   27 1    
    31   27   28 1    
    32   28   29 1    
    33   29   30 2    
    34   29   31 1    
    35   31   32 1    
    36   32   33 1    
    37   33   34 ar   
    38   33   35 ar   
@<TRIPOS>SUBSTRUCTURE
     1 Y011205     1 GROUP   
@<TRIPOS>SET

