#    Name: 6bwd_20_Y01
#    Modification time : Fri May 22 19:33:04 2020

@<TRIPOS>MOLECULE
6bwd_20_Y01
   35    38     1     0     0
SMALL
NO_CHARGES


@<TRIPOS>ATOM
      1 CAA       184.1890  150.2060  182.5340 C.3       1 Y011203     0.0000 
      2 CBA       183.5600  148.8560  182.1920 C.3       1 Y011203     0.0000 
      3 CAB       183.3560  148.7670  180.6780 C.3       1 Y011203     0.0000 
      4 CAN       182.2140  148.7220  182.9100 C.3       1 Y011203     0.0000 
      5 CAJ       182.4180  148.0950  184.2940 C.3       1 Y011203     0.0000 
      6 CAO       182.9400  149.1560  185.2620 C.3       1 Y011203     0.0000 
      7 CBB       182.4580  148.8800  186.6890 C.3       1 Y011203     0.0000 
      8 CAC       183.5620  148.1540  187.4490 C.3       1 Y011203     0.0000 
      9 CBE       182.1890  150.2230  187.3570 C.3       1 Y011203     0.0000 
     10 CAP       180.8310  150.7650  186.8970 C.3       1 Y011203     0.0000 
     11 CAQ       180.3420  151.6430  188.0630 C.3       1 Y011203     0.0000 
     12 CBG       181.4920  151.5380  189.0510 C.3       1 Y011203     0.0000 
     13 CBI       181.9660  150.1250  188.8460 C.3       1 Y011203     0.0000 
     14 CAE       180.8950  149.0950  189.2130 C.3       1 Y011203     0.0000 
     15 CAU       183.2060  149.8970  189.6810 C.3       1 Y011203     0.0000 
     16 CAS       182.8520  150.1550  191.1460 C.3       1 Y011203     0.0000 
     17 CBF       182.3410  151.5860  191.2880 C.3       1 Y011203     0.0000 
     18 CBD       181.0750  151.7450  190.4690 C.3       1 Y011203     0.0000 
     19 CAK       180.5480  153.1740  190.5950 C.3       1 Y011203     0.0000 
     20 CAI       180.5730  153.7200  191.8840 C.2       1 Y011203     0.0000 
     21 CAZ       181.3280  153.1660  192.9180 C.2       1 Y011203     0.0000 
     22 CAV       181.2770  153.7910  194.1580 C.3       1 Y011203     0.0000 
     23 CBH       182.1080  151.9930  192.7710 C.3       1 Y011203     0.0000 
     24 CAD       181.3840  150.8650  193.4880 C.3       1 Y011203     0.0000 
     25 CAT       183.4960  152.1550  193.4020 C.3       1 Y011203     0.0000 
     26 CAR       183.4430  152.7990  194.7830 C.3       1 Y011203     0.0000 
     27 CBC       182.6720  154.1000  194.6490 C.3       1 Y011203     0.0000 
     28 OAW       182.6010  154.7550  195.9260 O.3       1 Y011203     0.0000 
     29 CAY       183.7080  155.5100  196.1780 C.2       1 Y011203     0.0000 
     30 OAG       183.6630  156.7000  196.4800 O.2       1 Y011203     0.0000 
     31 CAM       185.0520  154.7770  196.0680 C.3       1 Y011203     0.0000 
     32 CAL       186.0560  155.3690  197.0600 C.3       1 Y011203     0.0000 
     33 CAX       187.4680  154.8670  196.7380 C.2       1 Y011203     0.0000 
     34 OAH       188.0110  155.3270  195.7110 O.co2     1 Y011203     0.0000 
     35 OAF       187.9750  154.0390  197.5280 O.co2     1 Y011203     0.0000 
@<TRIPOS>BOND
     1    1    2 1    
     2    2    3 1    
     3    2    4 1    
     4    4    5 1    
     5    5    6 1    
     6    6    7 1    
     7    7    8 1    
     8    7    9 1    
     9    9   10 1    
    10    9   13 1    
    11   10   11 1    
    12   11   12 1    
    13   12   13 1    
    14   12   18 1    
    15   13   14 1    
    16   13   15 1    
    17   15   16 1    
    18   16   17 1    
    19   17   18 1    
    20   17   23 1    
    21   18   19 1    
    22   19   20 1    
    23   20   21 2    
    24   21   22 1    
    25   21   23 1    
    26   22   27 1    
    27   23   24 1    
    28   23   25 1    
    29   25   26 1    
    30   26   27 1    
    31   27   28 1    
    32   28   29 1    
    33   29   30 2    
    34   29   31 1    
    35   31   32 1    
    36   32   33 1    
    37   33   34 ar   
    38   33   35 ar   
@<TRIPOS>SUBSTRUCTURE
     1 Y011203     1 GROUP   
@<TRIPOS>SET

