#    Name: 6bwd_6_Y01
#    Modification time : Fri May 22 19:30:16 2020

@<TRIPOS>MOLECULE
6bwd_6_Y01
   35    38     1     0     0
SMALL
NO_CHARGES


@<TRIPOS>ATOM
      1 CAA       178.9860  174.5380  192.2650 C.3       1 Y011208     0.0000 
      2 CBA       180.1960  174.7950  191.3960 C.3       1 Y011208     0.0000 
      3 CAB       180.2320  173.7550  190.2830 C.3       1 Y011208     0.0000 
      4 CAN       181.4380  174.6820  192.2650 C.3       1 Y011208     0.0000 
      5 CAJ       181.6460  173.2620  192.7900 C.3       1 Y011208     0.0000 
      6 CAO       182.2500  173.3230  194.2000 C.3       1 Y011208     0.0000 
      7 CBB       181.1110  173.6700  195.1550 C.3       1 Y011208     0.0000 
      8 CAC       180.0840  172.5000  195.1420 C.3       1 Y011208     0.0000 
      9 CBE       181.5090  174.2170  196.5860 C.3       1 Y011208     0.0000 
     10 CAP       180.2720  174.0890  197.4820 C.3       1 Y011208     0.0000 
     11 CAQ       180.8030  173.9360  198.8810 C.3       1 Y011208     0.0000 
     12 CBG       182.2230  174.3690  198.7200 C.3       1 Y011208     0.0000 
     13 CBI       182.6630  173.6190  197.4900 C.3       1 Y011208     0.0000 
     14 CAE       182.6130  172.0810  197.6680 C.3       1 Y011208     0.0000 
     15 CAU       184.0930  174.1130  197.2340 C.3       1 Y011208     0.0000 
     16 CAS       185.0150  173.7590  198.4520 C.3       1 Y011208     0.0000 
     17 CBF       184.4820  174.3270  199.7910 C.3       1 Y011208     0.0000 
     18 CBD       183.0150  173.9740  199.9300 C.3       1 Y011208     0.0000 
     19 CAK       182.4720  174.7370  201.1070 C.3       1 Y011208     0.0000 
     20 CAI       183.2150  174.5010  202.2490 C.2       1 Y011208     0.0000 
     21 CAZ       184.5280  174.0520  202.2270 C.2       1 Y011208     0.0000 
     22 CAV       185.0840  173.8930  203.4940 C.3       1 Y011208     0.0000 
     23 CBH       185.1750  173.6730  201.0270 C.3       1 Y011208     0.0000 
     24 CAD       185.0710  172.1430  200.8680 C.3       1 Y011208     0.0000 
     25 CAT       186.6400  174.0440  201.0990 C.3       1 Y011208     0.0000 
     26 CAR       187.2340  173.4540  202.3840 C.3       1 Y011208     0.0000 
     27 CBC       186.5660  174.0970  203.5880 C.3       1 Y011208     0.0000 
     28 OAW       186.9510  173.4160  204.7910 O.3       1 Y011208     0.0000 
     29 CAY       188.1610  173.7560  205.2970 C.2       1 Y011208     0.0000 
     30 OAG       188.7510  174.8040  205.0460 O.2       1 Y011208     0.0000 
     31 CAM       188.7490  172.7400  206.2720 C.3       1 Y011208     0.0000 
     32 CAL       189.6020  173.4780  207.3020 C.3       1 Y011208     0.0000 
     33 CAX       188.7500  173.8540  208.5170 C.2       1 Y011208     0.0000 
     34 OAH       187.8600  173.0460  208.8590 O.co2     1 Y011208     0.0000 
     35 OAF       189.0160  174.9350  209.0840 O.co2     1 Y011208     0.0000 
@<TRIPOS>BOND
     1    1    2 1    
     2    2    3 1    
     3    2    4 1    
     4    4    5 1    
     5    5    6 1    
     6    6    7 1    
     7    7    8 1    
     8    7    9 1    
     9    9   10 1    
    10    9   13 1    
    11   10   11 1    
    12   11   12 1    
    13   12   13 1    
    14   12   18 1    
    15   13   14 1    
    16   13   15 1    
    17   15   16 1    
    18   16   17 1    
    19   17   18 1    
    20   17   23 1    
    21   18   19 1    
    22   19   20 1    
    23   20   21 2    
    24   21   22 1    
    25   21   23 1    
    26   22   27 1    
    27   23   24 1    
    28   23   25 1    
    29   25   26 1    
    30   26   27 1    
    31   27   28 1    
    32   28   29 1    
    33   29   30 2    
    34   29   31 1    
    35   31   32 1    
    36   32   33 1    
    37   33   34 ar   
    38   33   35 ar   
@<TRIPOS>SUBSTRUCTURE
     1 Y011208     1 GROUP   
@<TRIPOS>SET

