#    Name: 6bwd_10_Y01
#    Modification time : Fri May 22 19:31:17 2020

@<TRIPOS>MOLECULE
6bwd_10_Y01
   35    38     1     0     0
SMALL
NO_CHARGES


@<TRIPOS>ATOM
      1 CAA       131.1610  164.9250  182.6380 C.3       1 Y011206     0.0000 
      2 CBA       131.8330  166.2990  182.5730 C.3       1 Y011206     0.0000 
      3 CAB       132.5660  166.4000  181.2400 C.3       1 Y011206     0.0000 
      4 CAN       132.8130  166.5060  183.7410 C.3       1 Y011206     0.0000 
      5 CAJ       132.1490  166.1360  185.0770 C.3       1 Y011206     0.0000 
      6 CAO       133.1290  166.2580  186.2430 C.3       1 Y011206     0.0000 
      7 CBB       133.1780  164.9170  186.9960 C.3       1 Y011206     0.0000 
      8 CAC       133.9450  163.9240  186.1120 C.3       1 Y011206     0.0000 
      9 CBE       133.7350  165.0740  188.4490 C.3       1 Y011206     0.0000 
     10 CAP       133.0120  166.2570  189.0920 C.3       1 Y011206     0.0000 
     11 CAQ       132.7650  165.8940  190.5580 C.3       1 Y011206     0.0000 
     12 CBG       133.5510  164.6390  190.7290 C.3       1 Y011206     0.0000 
     13 CBI       133.3360  163.9400  189.4150 C.3       1 Y011206     0.0000 
     14 CAE       131.8460  163.5580  189.1660 C.3       1 Y011206     0.0000 
     15 CAU       134.2750  162.7130  189.4650 C.3       1 Y011206     0.0000 
     16 CAS       133.9090  161.7700  190.6240 C.3       1 Y011206     0.0000 
     17 CBF       133.8080  162.4910  191.9910 C.3       1 Y011206     0.0000 
     18 CBD       132.9890  163.7620  191.8490 C.3       1 Y011206     0.0000 
     19 CAK       133.0000  164.4970  193.1690 C.3       1 Y011206     0.0000 
     20 CAI       132.6360  163.6570  194.2240 C.2       1 Y011206     0.0000 
     21 CAZ       132.7260  162.2660  194.1700 C.2       1 Y011206     0.0000 
     22 CAV       132.3350  161.5690  195.3250 C.3       1 Y011206     0.0000 
     23 CBH       133.0490  161.5920  192.9730 C.3       1 Y011206     0.0000 
     24 CAD       131.7120  161.1540  192.3260 C.3       1 Y011206     0.0000 
     25 CAT       133.9080  160.3730  193.2390 C.3       1 Y011206     0.0000 
     26 CAR       133.2480  159.5040  194.2810 C.3       1 Y011206     0.0000 
     27 CBC       133.1550  160.2940  195.5730 C.3       1 Y011206     0.0000 
     28 OAW       132.5910  159.4970  196.6670 O.3       1 Y011206     0.0000 
     29 CAY       131.4790  158.7280  196.4490 C.2       1 Y011206     0.0000 
     30 OAG       130.3560  159.1700  196.2170 O.2       1 Y011206     0.0000 
     31 CAM       131.6930  157.2150  196.6130 C.3       1 Y011206     0.0000 
     32 CAL       130.4350  156.5670  197.1890 C.3       1 Y011206     0.0000 
     33 CAX       130.5210  155.0510  197.0120 C.2       1 Y011206     0.0000 
     34 OAH       131.1790  154.6350  196.0360 O.co2     1 Y011206     0.0000 
     35 OAF       129.9240  154.3440  197.8510 O.co2     1 Y011206     0.0000 
@<TRIPOS>BOND
     1    1    2 1    
     2    2    3 1    
     3    2    4 1    
     4    4    5 1    
     5    5    6 1    
     6    6    7 1    
     7    7    8 1    
     8    7    9 1    
     9    9   10 1    
    10    9   13 1    
    11   10   11 1    
    12   11   12 1    
    13   12   13 1    
    14   12   18 1    
    15   13   14 1    
    16   13   15 1    
    17   15   16 1    
    18   16   17 1    
    19   17   18 1    
    20   17   23 1    
    21   18   19 1    
    22   19   20 1    
    23   20   21 2    
    24   21   22 1    
    25   21   23 1    
    26   22   27 1    
    27   23   24 1    
    28   23   25 1    
    29   25   26 1    
    30   26   27 1    
    31   27   28 1    
    32   28   29 1    
    33   29   30 2    
    34   29   31 1    
    35   31   32 1    
    36   32   33 1    
    37   33   34 ar   
    38   33   35 ar   
@<TRIPOS>SUBSTRUCTURE
     1 Y011206     1 GROUP   
@<TRIPOS>SET

