#    Name: 6bwd_8_Y01
#    Modification time : Fri May 22 19:30:43 2020

@<TRIPOS>MOLECULE
6bwd_8_Y01
   35    38     1     0     0
SMALL
NO_CHARGES


@<TRIPOS>ATOM
      1 CAA       146.1760  184.9590  175.4760 C.3       1 Y011204     0.0000 
      2 CBA       145.3780  184.9100  174.1710 C.3       1 Y011204     0.0000 
      3 CAB       146.0780  185.8000  173.1460 C.3       1 Y011204     0.0000 
      4 CAN       143.9320  185.3910  174.3990 C.3       1 Y011204     0.0000 
      5 CAJ       142.9630  184.1880  174.3570 C.3       1 Y011204     0.0000 
      6 CAO       142.1630  184.0640  175.6790 C.3       1 Y011204     0.0000 
      7 CBB       142.3940  182.7430  176.4710 C.3       1 Y011204     0.0000 
      8 CAC       143.8420  182.2670  176.2600 C.3       1 Y011204     0.0000 
      9 CBE       141.9460  182.9750  177.9650 C.3       1 Y011204     0.0000 
     10 CAP       140.4200  183.0780  177.9610 C.3       1 Y011204     0.0000 
     11 CAQ       139.9350  182.6460  179.3690 C.3       1 Y011204     0.0000 
     12 CBG       141.2440  182.4840  180.1160 C.3       1 Y011204     0.0000 
     13 CBI       142.1500  181.8740  179.0620 C.3       1 Y011204     0.0000 
     14 CAE       141.6340  180.5180  178.5690 C.3       1 Y011204     0.0000 
     15 CAU       143.5550  181.7730  179.7220 C.3       1 Y011204     0.0000 
     16 CAS       143.5140  180.8840  180.9260 C.3       1 Y011204     0.0000 
     17 CBF       142.5810  181.4870  181.9600 C.3       1 Y011204     0.0000 
     18 CBD       141.1720  181.6050  181.3910 C.3       1 Y011204     0.0000 
     19 CAK       140.3000  182.2890  182.4300 C.3       1 Y011204     0.0000 
     20 CAI       140.5320  181.8260  183.7430 C.2       1 Y011204     0.0000 
     21 CAZ       141.6580  181.0920  184.1410 C.2       1 Y011204     0.0000 
     22 CAV       141.7610  180.7170  185.4990 C.3       1 Y011204     0.0000 
     23 CBH       142.5690  180.6130  183.2000 C.3       1 Y011204     0.0000 
     24 CAD       142.1320  179.1820  182.8480 C.3       1 Y011204     0.0000 
     25 CAT       143.9900  180.6020  183.7450 C.3       1 Y011204     0.0000 
     26 CAR       144.0190  179.8460  185.0280 C.3       1 Y011204     0.0000 
     27 CBC       143.2010  180.5970  186.0360 C.3       1 Y011204     0.0000 
     28 OAW       143.1530  179.8580  187.2750 O.3       1 Y011204     0.0000 
     29 CAY       144.3320  179.5040  187.8730 C.2       1 Y011204     0.0000 
     30 OAG       144.8740  178.4040  187.7560 O.2       1 Y011204     0.0000 
     31 CAM       144.9160  180.5500  188.8210 C.3       1 Y011204     0.0000 
     32 CAL       146.3550  180.1810  189.1940 C.3       1 Y011204     0.0000 
     33 CAX       146.3960  179.2160  190.3850 C.2       1 Y011204     0.0000 
     34 OAH       146.3340  179.7170  191.5270 O.co2     1 Y011204     0.0000 
     35 OAF       146.5190  178.0010  190.1250 O.co2     1 Y011204     0.0000 
@<TRIPOS>BOND
     1    1    2 1    
     2    2    3 1    
     3    2    4 1    
     4    4    5 1    
     5    5    6 1    
     6    6    7 1    
     7    7    8 1    
     8    7    9 1    
     9    9   10 1    
    10    9   13 1    
    11   10   11 1    
    12   11   12 1    
    13   12   13 1    
    14   12   18 1    
    15   13   14 1    
    16   13   15 1    
    17   15   16 1    
    18   16   17 1    
    19   17   18 1    
    20   17   23 1    
    21   18   19 1    
    22   19   20 1    
    23   20   21 2    
    24   21   22 1    
    25   21   23 1    
    26   22   27 1    
    27   23   24 1    
    28   23   25 1    
    29   25   26 1    
    30   26   27 1    
    31   27   28 1    
    32   28   29 1    
    33   29   30 2    
    34   29   31 1    
    35   31   32 1    
    36   32   33 1    
    37   33   34 ar   
    38   33   35 ar   
@<TRIPOS>SUBSTRUCTURE
     1 Y011204     1 GROUP   
@<TRIPOS>SET

