#    Name: 6bwd_20_Y01_CAVITY_N1_4
#    Modification time : Fri May 22 19:33:05 2020

@<TRIPOS>MOLECULE
6bwd_20_Y01_CAVITY_N1_4
   33     0     2     0     0
SMALL
NO_CHARGES


@<TRIPOS>ATOM
      1 CA        178.9800  148.4400  185.4100 C.3       1 GLY6        0.0000 
      2 CA        177.6900  149.1000  185.8100 C.3       1 GLY6        0.0000 
      3 CA        178.1100  148.7000  187.8500 C.3       1 GLY6        0.0000 
      4 CA        177.8200  147.5700  188.7900 C.3       1 GLY6        0.0000 
      5 CA        177.8400  151.2200  188.4000 C.3       1 GLY6        0.0000 
      6 CA        176.5600  151.8900  188.8000 C.3       1 GLY6        0.0000 
      7 CA        180.1100  148.7600  188.5500 C.3       1 GLY6        0.0000 
      8 CA        178.8300  149.4200  188.9500 C.3       1 GLY6        0.0000 
      9 CA        177.2500  148.9600  190.2800 C.3       1 GLY6        0.0000 
     10 CA        178.5600  151.9500  189.5000 C.3       1 GLY6        0.0000 
     11 CA        180.8300  149.4800  189.6500 C.3       1 GLY6        0.0000 
     12 CA        179.5400  150.1500  190.0500 C.3       1 GLY6        0.0000 
     13 CA        178.2600  150.8100  190.4400 C.3       1 GLY6        0.0000 
     14 CA        176.9800  151.4800  190.8400 C.3       1 GLY6        0.0000 
     15 CA        177.9600  149.6800  191.3800 C.3       1 GLY6        0.0000 
     16 CA        181.5400  150.2100  190.7500 C.3       1 GLY6        0.0000 
     17 CA        180.2600  150.8800  191.1500 C.3       1 GLY6        0.0000 
     18 CA        178.9800  151.5400  191.5400 C.3       1 GLY6        0.0000 
     19 CA        177.6900  152.2100  191.9400 C.3       1 GLY6        0.0000 
     20 CA        179.9600  149.7400  192.0900 C.3       1 GLY6        0.0000 
     21 CA        178.6800  150.4100  192.4800 C.3       1 GLY6        0.0000 
     22 CA        179.6900  152.2700  192.6400 C.3       1 GLY6        0.0000 
     23 CA        178.4100  152.9300  193.0400 C.3       1 GLY6        0.0000 
     24 CA        181.9600  149.8000  192.7900 C.3       1 GLY6        0.0000 
     25 CA        180.6800  150.4700  193.1900 C.3       1 GLY6        0.0000 
     26 CA        179.4000  151.1300  193.5800 C.3       1 GLY6        0.0000 
     27 CA        180.4100  152.9900  193.7400 C.3       1 GLY6        0.0000 
     28 DU        177.9900  150.2300  184.8700 H         2 CUB7        0.0000 
     29 DU        178.4100  149.8300  186.9100 H         2 CUB7        0.0000 
     30 DU        177.1200  150.4900  187.3000 H         2 CUB7        0.0000 
     31 DU        179.1200  150.5500  188.0100 H         2 CUB7        0.0000 
     32 DU        177.5400  150.0900  189.3400 H         2 CUB7        0.0000 
     33 DU        179.8400  151.2800  189.1100 H         2 CUB7        0.0000 
@<TRIPOS>BOND
@<TRIPOS>SUBSTRUCTURE
     1 GLY6        1 GROUP   
     2 CUB7       28 GROUP   
@<TRIPOS>SET

