#    Name: 6bwd_18_Y01
#    Modification time : Fri May 22 19:32:33 2020

@<TRIPOS>MOLECULE
6bwd_18_Y01
   35    38     1     0     0
SMALL
NO_CHARGES


@<TRIPOS>ATOM
      1 CAA       175.7870  148.4210  192.3140 C.3       1 Y011308     0.0000 
      2 CBA       177.0100  149.2820  192.1280 C.3       1 Y011308     0.0000 
      3 CAB       176.8500  150.6040  192.8730 C.3       1 Y011308     0.0000 
      4 CAN       177.1650  149.5130  190.6400 C.3       1 Y011308     0.0000 
      5 CAJ       176.0090  150.3310  190.1150 C.3       1 Y011308     0.0000 
      6 CAO       175.3530  149.7120  188.8810 C.3       1 Y011308     0.0000 
      7 CBB       176.3040  149.0670  187.8770 C.3       1 Y011308     0.0000 
      8 CAC       175.8160  147.6030  187.8340 C.3       1 Y011308     0.0000 
      9 CBE       176.2280  149.9310  186.5600 C.3       1 Y011308     0.0000 
     10 CAP       177.1030  151.1960  186.7710 C.3       1 Y011308     0.0000 
     11 CAQ       177.5980  151.6530  185.3790 C.3       1 Y011308     0.0000 
     12 CBG       176.8740  150.7080  184.4440 C.3       1 Y011308     0.0000 
     13 CBI       176.8320  149.4160  185.2360 C.3       1 Y011308     0.0000 
     14 CAE       178.2490  148.8930  185.5020 C.3       1 Y011308     0.0000 
     15 CAU       175.9370  148.4780  184.3930 C.3       1 Y011308     0.0000 
     16 CAS       176.5450  148.1930  183.0290 C.3       1 Y011308     0.0000 
     17 CBF       176.9530  149.4430  182.2340 C.3       1 Y011308     0.0000 
     18 CBD       177.6530  150.4580  183.1440 C.3       1 Y011308     0.0000 
     19 CAK       177.8720  151.7200  182.3380 C.3       1 Y011308     0.0000 
     20 CAI       178.5680  151.4140  181.1570 C.2       1 Y011308     0.0000 
     21 CAZ       178.5950  150.1390  180.5720 C.2       1 Y011308     0.0000 
     22 CAV       179.3560  150.0040  179.3960 C.3       1 Y011308     0.0000 
     23 CBH       178.0190  149.0270  181.2140 C.3       1 Y011308     0.0000 
     24 CAD       179.1550  148.2850  181.9640 C.3       1 Y011308     0.0000 
     25 CAT       177.3890  148.1020  180.2060 C.3       1 Y011308     0.0000 
     26 CAR       178.4380  147.7080  179.2080 C.3       1 Y011308     0.0000 
     27 CBC       178.9200  148.9120  178.4250 C.3       1 Y011308     0.0000 
     28 OAW       180.1150  148.5540  177.7270 O.3       1 Y011308     0.0000 
     29 CAY       179.9940  147.7720  176.6250 C.2       1 Y011308     0.0000 
     30 OAG       179.9040  146.5430  176.6360 O.2       1 Y011308     0.0000 
     31 CAM       180.0700  148.5420  175.3110 C.3       1 Y011308     0.0000 
     32 CAL       181.4890  148.4360  174.7510 C.3       1 Y011308     0.0000 
     33 CAX       181.7180  147.0190  174.2240 C.2       1 Y011308     0.0000 
     34 OAH       182.3800  146.2450  174.9470 O.co2     1 Y011308     0.0000 
     35 OAF       181.1880  146.7300  173.1320 O.co2     1 Y011308     0.0000 
@<TRIPOS>BOND
     1    1    2 1    
     2    2    3 1    
     3    2    4 1    
     4    4    5 1    
     5    5    6 1    
     6    6    7 1    
     7    7    8 1    
     8    7    9 1    
     9    9   10 1    
    10    9   13 1    
    11   10   11 1    
    12   11   12 1    
    13   12   13 1    
    14   12   18 1    
    15   13   14 1    
    16   13   15 1    
    17   15   16 1    
    18   16   17 1    
    19   17   18 1    
    20   17   23 1    
    21   18   19 1    
    22   19   20 1    
    23   20   21 2    
    24   21   22 1    
    25   21   23 1    
    26   22   27 1    
    27   23   24 1    
    28   23   25 1    
    29   25   26 1    
    30   26   27 1    
    31   27   28 1    
    32   28   29 1    
    33   29   30 2    
    34   29   31 1    
    35   31   32 1    
    36   32   33 1    
    37   33   34 ar   
    38   33   35 ar   
@<TRIPOS>SUBSTRUCTURE
     1 Y011308     1 GROUP   
@<TRIPOS>SET

