#    Name: 6bwd_5_Y01_CAVITY_N1_4
#    Modification time : Fri May 22 19:29:59 2020

@<TRIPOS>MOLECULE
6bwd_5_Y01_CAVITY_N1_4
   33     0     4     0     0
SMALL
NO_CHARGES


@<TRIPOS>ATOM
      1 N         167.3300  183.0800  180.3600 N.am      1 ALA2        0.0000 
      2 CZ        167.6100  180.5600  179.8000 C.ar      2 PHE5        0.0000 
      3 CZ        168.3200  181.2800  180.9000 C.ar      2 PHE5        0.0000 
      4 CZ        167.7500  182.6700  182.3900 C.ar      2 PHE5        0.0000 
      5 CA        165.9000  181.6300  178.1500 C.3       3 GLY6        0.0000 
      6 CA        167.9000  181.6900  178.8600 C.3       3 GLY6        0.0000 
      7 CA        168.0300  180.1500  181.8400 C.3       3 GLY6        0.0000 
      8 CA        167.7300  179.0200  182.7800 C.3       3 GLY6        0.0000 
      9 CA        166.8600  179.2800  185.2100 C.3       3 GLY6        0.0000 
     10 CA        166.5700  178.1500  186.1500 C.3       3 GLY6        0.0000 
     11 CA        163.4100  177.2200  188.8200 C.3       3 GLY6        0.0000 
     12 CA        166.0000  179.5400  187.6500 C.3       3 GLY6        0.0000 
     13 CA        164.1200  177.9400  189.9200 C.3       3 GLY6        0.0000 
     14 CA        166.7200  180.2700  188.7500 C.3       3 GLY6        0.0000 
     15 CA        166.4200  179.1300  189.6900 C.3       3 GLY6        0.0000 
     16 CA        165.1400  179.8000  190.0800 C.3       3 GLY6        0.0000 
     17 CA        164.8400  178.6700  191.0200 C.3       3 GLY6        0.0000 
     18 CA        162.2700  180.0000  191.8200 C.3       3 GLY6        0.0000 
     19 CA        163.2600  178.2000  192.3600 C.3       3 GLY6        0.0000 
     20 CA        161.9700  178.8700  192.7600 C.3       3 GLY6        0.0000 
     21 CA        165.8500  180.5300  191.1800 C.3       3 GLY6        0.0000 
     22 CA        165.5500  179.3900  192.1200 C.3       3 GLY6        0.0000 
     23 CA        164.2700  180.0600  192.5200 C.3       3 GLY6        0.0000 
     24 CA        162.9900  180.7200  192.9200 C.3       3 GLY6        0.0000 
     25 CA        163.9700  178.9300  193.4600 C.3       3 GLY6        0.0000 
     26 CA        165.2800  181.9200  192.6800 C.3       3 GLY6        0.0000 
     27 CA        164.9900  180.7800  193.6200 C.3       3 GLY6        0.0000 
     28 DU        165.6000  180.5000  179.0900 H         4 CUB7        0.0000 
     29 DU        167.3100  179.4300  180.7400 H         4 CUB7        0.0000 
     30 DU        164.9900  177.6800  187.4900 H         4 CUB7        0.0000 
     31 DU        165.7000  178.4100  188.5900 H         4 CUB7        0.0000 
     32 DU        164.4200  179.0700  188.9800 H         4 CUB7        0.0000 
     33 DU        163.5500  179.3300  191.4200 H         4 CUB7        0.0000 
@<TRIPOS>BOND
@<TRIPOS>SUBSTRUCTURE
     1 ALA2        1 GROUP   
     2 PHE5        2 GROUP   
     3 GLY6        5 GROUP   
     4 CUB7       28 GROUP   
@<TRIPOS>SET

