#    Name: 6bwd_10_Y01_CAVITY_N1_4
#    Modification time : Fri May 22 19:31:18 2020

@<TRIPOS>MOLECULE
6bwd_10_Y01_CAVITY_N1_4
   16     0     2     0     0
SMALL
NO_CHARGES


@<TRIPOS>ATOM
      1 CA        136.7400  166.3000  188.8300 C.3       1 GLY6        0.0000 
      2 CA        137.7300  164.5100  189.3800 C.3       1 GLY6        0.0000 
      3 CA        136.4400  165.1700  189.7700 C.3       1 GLY6        0.0000 
      4 CA        135.1600  165.8400  190.1700 C.3       1 GLY6        0.0000 
      5 CA        136.1500  164.0400  190.7100 C.3       1 GLY6        0.0000 
      6 CA        134.8600  164.7100  191.1100 C.3       1 GLY6        0.0000 
      7 CA        135.8500  162.9100  191.6500 C.3       1 GLY6        0.0000 
      8 CA        137.1600  165.9000  190.8700 C.3       1 GLY6        0.0000 
      9 CA        136.8600  164.7700  191.8100 C.3       1 GLY6        0.0000 
     10 CA        135.5800  165.4300  192.2100 C.3       1 GLY6        0.0000 
     11 CA        136.5700  163.6400  192.7500 C.3       1 GLY6        0.0000 
     12 CA        135.2800  164.3000  193.1500 C.3       1 GLY6        0.0000 
     13 CA        134.9900  163.1700  194.0900 C.3       1 GLY6        0.0000 
     14 DU        136.4700  165.7300  183.2600 H         2 CUB7        0.0000 
     15 DU        136.8900  165.3200  185.3000 H         2 CUB7        0.0000 
     16 DU        137.3100  164.9100  187.3400 H         2 CUB7        0.0000 
@<TRIPOS>BOND
@<TRIPOS>SUBSTRUCTURE
     1 GLY6        1 GROUP   
     2 CUB7       14 GROUP   
@<TRIPOS>SET

