#    Name: 6bwd_19_Y01_CAVITY_N1_8
#    Modification time : Fri May 22 19:32:50 2020

@<TRIPOS>MOLECULE
6bwd_19_Y01_CAVITY_N1_8
   39     0     5     0     0
SMALL
NO_CHARGES


@<TRIPOS>ATOM
      1 OG        176.4100  133.0600  197.2200 O.3       1 SER1        0.0000 
      2 OG        175.1300  133.7300  197.6200 O.3       1 SER1        0.0000 
      3 N         176.1200  131.9300  198.1600 N.am      2 ALA2        0.0000 
      4 CZ        171.6700  131.6600  201.2300 C.ar      3 PHE5        0.0000 
      5 CZ        176.5400  131.5300  200.2000 C.ar      3 PHE5        0.0000 
      6 CZ        175.2500  132.1900  200.6000 C.ar      3 PHE5        0.0000 
      7 CZ        176.2400  130.3900  201.1400 C.ar      3 PHE5        0.0000 
      8 CZ        174.9600  131.0600  201.5400 C.ar      3 PHE5        0.0000 
      9 CZ        175.9700  132.9200  201.7000 C.ar      3 PHE5        0.0000 
     10 CZ        175.6700  131.7800  202.6400 C.ar      3 PHE5        0.0000 
     11 CZ        175.3800  130.6500  203.5800 C.ar      3 PHE5        0.0000 
     12 CA        174.4400  133.5500  190.0000 C.3       4 GLY6        0.0000 
     13 CA        174.8600  133.1500  192.0400 C.3       4 GLY6        0.0000 
     14 CA        174.9800  131.6100  195.0200 C.3       4 GLY6        0.0000 
     15 CA        175.9900  133.4700  195.1800 C.3       4 GLY6        0.0000 
     16 CA        175.7000  132.3400  196.1200 C.3       4 GLY6        0.0000 
     17 CA        176.6900  130.5400  196.6600 C.3       4 GLY6        0.0000 
     18 CA        176.8300  132.6600  199.2600 C.3       4 GLY6        0.0000 
     19 CA        173.9700  132.8600  200.9900 C.3       4 GLY6        0.0000 
     20 CA        173.6700  131.7200  201.9300 C.3       4 GLY6        0.0000 
     21 CA        172.3900  132.3900  202.3300 C.3       4 GLY6        0.0000 
     22 CA        173.3800  130.5900  202.8700 C.3       4 GLY6        0.0000 
     23 CA        173.0800  129.4600  203.8100 C.3       4 GLY6        0.0000 
     24 CA        176.2600  134.0500  200.7600 C.3       4 GLY6        0.0000 
     25 CA        174.9800  134.7100  201.1600 C.3       4 GLY6        0.0000 
     26 CA        174.6800  133.5800  202.0900 C.3       4 GLY6        0.0000 
     27 CA        174.3900  132.4500  203.0300 C.3       4 GLY6        0.0000 
     28 CA        174.0900  131.3200  203.9700 C.3       4 GLY6        0.0000 
     29 CA        175.0800  129.5200  204.5200 C.3       4 GLY6        0.0000 
     30 DU        175.1500  134.2800  191.1000 H         5 CUB7        0.0000 
     31 DU        173.5700  133.8100  192.4400 H         5 CUB7        0.0000 
     32 DU        174.4100  133.0000  196.5200 H         5 CUB7        0.0000 
     33 DU        174.1200  131.8700  197.4600 H         5 CUB7        0.0000 
     34 DU        174.8300  132.6000  198.5600 H         5 CUB7        0.0000 
     35 DU        175.8200  130.8000  199.1000 H         5 CUB7        0.0000 
     36 DU        172.9600  131.0000  200.8300 H         5 CUB7        0.0000 
     37 DU        175.5500  133.3200  199.6600 H         5 CUB7        0.0000 
     38 DU        174.2600  133.9900  200.0600 H         5 CUB7        0.0000 
     39 DU        174.6600  129.9300  202.4800 H         5 CUB7        0.0000 
@<TRIPOS>BOND
@<TRIPOS>SUBSTRUCTURE
     1 SER1        1 GROUP   
     2 ALA2        3 GROUP   
     3 PHE5        4 GROUP   
     4 GLY6       12 GROUP   
     5 CUB7       30 GROUP   
@<TRIPOS>SET

