#    Name: 6bwd_4_Y01
#    Modification time : Fri May 22 19:29:40 2020

@<TRIPOS>MOLECULE
6bwd_4_Y01
   35    38     1     0     0
SMALL
NO_CHARGES


@<TRIPOS>ATOM
      1 CAA       166.3550  176.1220  192.6570 C.3       1 Y011206     0.0000 
      2 CBA       165.7570  176.6120  191.3690 C.3       1 Y011206     0.0000 
      3 CAB       164.2600  176.6650  191.5730 C.3       1 Y011206     0.0000 
      4 CAN       166.1300  175.6430  190.2540 C.3       1 Y011206     0.0000 
      5 CAJ       166.7250  176.5280  189.1530 C.3       1 Y011206     0.0000 
      6 CAO       166.3200  176.0920  187.7360 C.3       1 Y011206     0.0000 
      7 CBB       164.8800  176.5350  187.3570 C.3       1 Y011206     0.0000 
      8 CAC       164.4360  177.8680  188.0490 C.3       1 Y011206     0.0000 
      9 CBE       164.5320  176.5000  185.7990 C.3       1 Y011206     0.0000 
     10 CAP       163.1970  177.2730  185.5670 C.3       1 Y011206     0.0000 
     11 CAQ       163.3490  177.9550  184.2290 C.3       1 Y011206     0.0000 
     12 CBG       164.4170  177.1350  183.5830 C.3       1 Y011206     0.0000 
     13 CBI       165.4940  177.0600  184.6560 C.3       1 Y011206     0.0000 
     14 CAE       166.1240  178.4350  184.9760 C.3       1 Y011206     0.0000 
     15 CAU       166.5330  176.0910  184.0740 C.3       1 Y011206     0.0000 
     16 CAS       167.1240  176.6680  182.7330 C.3       1 Y011206     0.0000 
     17 CBF       166.0660  177.1120  181.6730 C.3       1 Y011206     0.0000 
     18 CBD       164.9430  177.8570  182.3710 C.3       1 Y011206     0.0000 
     19 CAK       163.8350  178.0720  181.3680 C.3       1 Y011206     0.0000 
     20 CAI       164.3280  178.7670  180.2710 C.2       1 Y011206     0.0000 
     21 CAZ       165.6700  178.7690  179.8970 C.2       1 Y011206     0.0000 
     22 CAV       165.9580  179.5420  178.7640 C.3       1 Y011206     0.0000 
     23 CBH       166.6660  178.1670  180.7010 C.3       1 Y011206     0.0000 
     24 CAD       167.3200  179.2780  181.5610 C.3       1 Y011206     0.0000 
     25 CAT       167.7110  177.5420  179.8180 C.3       1 Y011206     0.0000 
     26 CAR       168.2450  178.6180  178.8850 C.3       1 Y011206     0.0000 
     27 CBC       167.1650  179.1350  177.9490 C.3       1 Y011206     0.0000 
     28 OAW       167.5990  180.3830  177.3850 O.3       1 Y011206     0.0000 
     29 CAY       168.4420  180.4810  176.3200 C.2       1 Y011206     0.0000 
     30 OAG       169.4850  179.8470  176.1700 O.2       1 Y011206     0.0000 
     31 CAM       168.0620  181.5790  175.3290 C.3       1 Y011206     0.0000 
     32 CAL       167.2030  180.9930  174.2130 C.3       1 Y011206     0.0000 
     33 CAX       165.8240  180.6150  174.7550 C.2       1 Y011206     0.0000 
     34 OAH       165.2210  179.6930  174.1690 O.co2     1 Y011206     0.0000 
     35 OAF       165.3960  181.2630  175.7330 O.co2     1 Y011206     0.0000 
@<TRIPOS>BOND
     1    1    2 1    
     2    2    3 1    
     3    2    4 1    
     4    4    5 1    
     5    5    6 1    
     6    6    7 1    
     7    7    8 1    
     8    7    9 1    
     9    9   10 1    
    10    9   13 1    
    11   10   11 1    
    12   11   12 1    
    13   12   13 1    
    14   12   18 1    
    15   13   14 1    
    16   13   15 1    
    17   15   16 1    
    18   16   17 1    
    19   17   18 1    
    20   17   23 1    
    21   18   19 1    
    22   19   20 1    
    23   20   21 2    
    24   21   22 1    
    25   21   23 1    
    26   22   27 1    
    27   23   24 1    
    28   23   25 1    
    29   25   26 1    
    30   26   27 1    
    31   27   28 1    
    32   28   29 1    
    33   29   30 2    
    34   29   31 1    
    35   31   32 1    
    36   32   33 1    
    37   33   34 ar   
    38   33   35 ar   
@<TRIPOS>SUBSTRUCTURE
     1 Y011206     1 GROUP   
@<TRIPOS>SET

