#    Name: 6bwd_13_Y01
#    Modification time : Fri May 22 19:31:41 2020

@<TRIPOS>MOLECULE
6bwd_13_Y01
   35    38     1     0     0
SMALL
NO_CHARGES


@<TRIPOS>ATOM
      1 CAA       130.2630  146.4740  173.9130 C.3       1 Y011303     0.0000 
      2 CBA       130.0330  145.1520  174.6430 C.3       1 Y011303     0.0000 
      3 CAB       130.2960  145.3490  176.1370 C.3       1 Y011303     0.0000 
      4 CAN       130.9800  144.0980  174.0740 C.3       1 Y011303     0.0000 
      5 CAJ       130.6910  142.7410  174.7060 C.3       1 Y011303     0.0000 
      6 CAO       132.0180  142.1440  175.1550 C.3       1 Y011303     0.0000 
      7 CBB       131.9040  141.6540  176.6010 C.3       1 Y011303     0.0000 
      8 CAC       131.5740  140.1800  176.5050 C.3       1 Y011303     0.0000 
      9 CBE       133.1890  142.0180  177.4120 C.3       1 Y011303     0.0000 
     10 CAP       133.3510  143.5400  177.2650 C.3       1 Y011303     0.0000 
     11 CAQ       133.8630  144.0940  178.6050 C.3       1 Y011303     0.0000 
     12 CBG       134.1750  142.8250  179.3780 C.3       1 Y011303     0.0000 
     13 CBI       133.0900  141.8910  178.9490 C.3       1 Y011303     0.0000 
     14 CAE       131.7300  142.4510  179.4100 C.3       1 Y011303     0.0000 
     15 CAU       133.4800  140.5120  179.5500 C.3       1 Y011303     0.0000 
     16 CAS       133.6490  140.5340  181.0950 C.3       1 Y011303     0.0000 
     17 CBF       134.4320  141.7630  181.6610 C.3       1 Y011303     0.0000 
     18 CBD       134.0340  143.0200  180.8930 C.3       1 Y011303     0.0000 
     19 CAK       134.8490  144.1860  181.3570 C.3       1 Y011303     0.0000 
     20 CAI       134.6490  144.3650  182.7070 C.2       1 Y011303     0.0000 
     21 CAZ       134.3320  143.3150  183.5540 C.2       1 Y011303     0.0000 
     22 CAV       134.1270  143.6650  184.8540 C.3       1 Y011303     0.0000 
     23 CBH       134.0610  142.0000  183.1470 C.3       1 Y011303     0.0000 
     24 CAD       132.5470  141.7840  183.3490 C.3       1 Y011303     0.0000 
     25 CAT       134.8740  141.0510  184.0250 C.3       1 Y011303     0.0000 
     26 CAR       134.7920  141.4740  185.5200 C.3       1 Y011303     0.0000 
     27 CBC       135.1280  142.9640  185.6800 C.3       1 Y011303     0.0000 
     28 OAW       134.9560  143.4050  187.0310 O.3       1 Y011303     0.0000 
     29 CAY       135.5650  144.5990  187.3190 C.2       1 Y011303     0.0000 
     30 OAG       135.1950  145.7210  186.9680 O.2       1 Y011303     0.0000 
     31 CAM       136.7360  144.5020  188.2720 C.3       1 Y011303     0.0000 
     32 CAL       136.8860  145.8580  188.9680 C.3       1 Y011303     0.0000 
     33 CAX       135.9970  145.9540  190.2160 C.2       1 Y011303     0.0000 
     34 OAH       134.9430  145.2820  190.2430 O.co2     1 Y011303     0.0000 
     35 OAF       136.3960  146.7100  191.1260 O.co2     1 Y011303     0.0000 
@<TRIPOS>BOND
     1    1    2 1    
     2    2    3 1    
     3    2    4 1    
     4    4    5 1    
     5    5    6 1    
     6    6    7 1    
     7    7    8 1    
     8    7    9 1    
     9    9   10 1    
    10    9   13 1    
    11   10   11 1    
    12   11   12 1    
    13   12   13 1    
    14   12   18 1    
    15   13   14 1    
    16   13   15 1    
    17   15   16 1    
    18   16   17 1    
    19   17   18 1    
    20   17   23 1    
    21   18   19 1    
    22   19   20 1    
    23   20   21 2    
    24   21   22 1    
    25   21   23 1    
    26   22   27 1    
    27   23   24 1    
    28   23   25 1    
    29   25   26 1    
    30   26   27 1    
    31   27   28 1    
    32   28   29 1    
    33   29   30 2    
    34   29   31 1    
    35   31   32 1    
    36   32   33 1    
    37   33   34 ar   
    38   33   35 ar   
@<TRIPOS>SUBSTRUCTURE
     1 Y011303     1 GROUP   
@<TRIPOS>SET

