#    Name: 6bwd_19_Y01
#    Modification time : Fri May 22 19:32:49 2020

@<TRIPOS>MOLECULE
6bwd_19_Y01
   35    38     1     0     0
SMALL
NO_CHARGES


@<TRIPOS>ATOM
      1 CAA       175.5680  126.7360  189.4600 C.3       1 Y011202     0.0000 
      2 CBA       176.7230  125.7880  189.1170 C.3       1 Y011202     0.0000 
      3 CAB       176.2420  124.3310  189.2080 C.3       1 Y011202     0.0000 
      4 CAN       177.9500  126.0850  190.0120 C.3       1 Y011202     0.0000 
      5 CAJ       178.1180  125.1380  191.2110 C.3       1 Y011202     0.0000 
      6 CAO       177.4490  125.7340  192.4490 C.3       1 Y011202     0.0000 
      7 CBB       178.3960  125.7020  193.6530 C.3       1 Y011202     0.0000 
      8 CAC       179.5230  126.6890  193.3450 C.3       1 Y011202     0.0000 
      9 CBE       177.5590  125.9870  194.9380 C.3       1 Y011202     0.0000 
     10 CAP       176.4710  124.8900  195.0050 C.3       1 Y011202     0.0000 
     11 CAQ       176.3830  124.4440  196.4590 C.3       1 Y011202     0.0000 
     12 CBG       177.0530  125.5900  197.1510 C.3       1 Y011202     0.0000 
     13 CBI       178.2760  125.8230  196.2930 C.3       1 Y011202     0.0000 
     14 CAE       179.2310  124.5860  196.2770 C.3       1 Y011202     0.0000 
     15 CAU       178.9270  127.1070  196.8500 C.3       1 Y011202     0.0000 
     16 CAS       179.3360  126.9220  198.3080 C.3       1 Y011202     0.0000 
     17 CBF       178.1730  126.4160  199.1990 C.3       1 Y011202     0.0000 
     18 CBD       177.4980  125.2210  198.5550 C.3       1 Y011202     0.0000 
     19 CAK       176.3010  124.7930  199.3950 C.3       1 Y011202     0.0000 
     20 CAI       176.6150  124.7120  200.7530 C.2       1 Y011202     0.0000 
     21 CAZ       177.7600  125.2770  201.3110 C.2       1 Y011202     0.0000 
     22 CAV       177.8880  125.1890  202.7070 C.3       1 Y011202     0.0000 
     23 CBH       178.7430  125.9260  200.5190 C.3       1 Y011202     0.0000 
     24 CAD       179.8700  124.9060  200.2600 C.3       1 Y011202     0.0000 
     25 CAT       179.3350  127.1410  201.2040 C.3       1 Y011202     0.0000 
     26 CAR       178.4230  127.5930  202.3090 C.3       1 Y011202     0.0000 
     27 CBC       178.4810  126.4710  203.3190 C.3       1 Y011202     0.0000 
     28 OAW       179.8670  126.2790  203.6120 O.3       1 Y011202     0.0000 
     29 CAY       180.1900  125.8050  204.8450 C.2       1 Y011202     0.0000 
     30 OAG       180.7900  124.7410  205.0070 O.2       1 Y011202     0.0000 
     31 CAM       179.9520  126.7820  206.0140 C.3       1 Y011202     0.0000 
     32 CAL       178.8070  126.3950  206.9690 C.3       1 Y011202     0.0000 
     33 CAX       178.2780  124.9880  206.6970 C.2       1 Y011202     0.0000 
     34 OAH       178.9090  124.0410  207.2130 O.co2     1 Y011202     0.0000 
     35 OAF       177.2700  124.8860  205.9720 O.co2     1 Y011202     0.0000 
@<TRIPOS>BOND
     1    1    2 1    
     2    2    3 1    
     3    2    4 1    
     4    4    5 1    
     5    5    6 1    
     6    6    7 1    
     7    7    8 1    
     8    7    9 1    
     9    9   10 1    
    10    9   13 1    
    11   10   11 1    
    12   11   12 1    
    13   12   13 1    
    14   12   18 1    
    15   13   14 1    
    16   13   15 1    
    17   15   16 1    
    18   16   17 1    
    19   17   18 1    
    20   17   23 1    
    21   18   19 1    
    22   19   20 1    
    23   20   21 2    
    24   21   22 1    
    25   21   23 1    
    26   22   27 1    
    27   23   24 1    
    28   23   25 1    
    29   25   26 1    
    30   26   27 1    
    31   27   28 1    
    32   28   29 1    
    33   29   30 2    
    34   29   31 1    
    35   31   32 1    
    36   32   33 1    
    37   33   34 ar   
    38   33   35 ar   
@<TRIPOS>SUBSTRUCTURE
     1 Y011202     1 GROUP   
@<TRIPOS>SET

