#    Name: 6ghr_2_NAD
#    Modification time : Fri May 22 19:30:41 2020

@<TRIPOS>MOLECULE
6ghr_2_NAD
   44    48     1     0     1
SMALL
NO_CHARGES


@<TRIPOS>ATOM
      1 PA         42.3920   51.4250   91.4070 P.3       1 NAD1001     0.0000 
      2 O1A        43.1150   50.8560   92.6030 O.co2     1 NAD1001     0.0000 
      3 O2A        41.8920   50.5040   90.3200 O.co2     1 NAD1001     0.0000 
      4 O5B        43.3300   52.5460   90.7360 O.3       1 NAD1001     0.0000 
      5 C5B        44.3100   53.2330   91.5080 C.3       1 NAD1001     0.0000 
      6 C4B        45.5310   53.4890   90.6390 C.3       1 NAD1001     0.0000 
      7 O4B        46.2700   54.5980   91.1500 O.3       1 NAD1001     0.0000 
      8 C3B        46.4570   52.2850   90.6530 C.3       1 NAD1001     0.0000 
      9 O3B        46.9100   52.0340   89.3200 O.3       1 NAD1001     0.0000 
     10 C2B        47.6280   52.7110   91.5120 C.3       1 NAD1001     0.0000 
     11 O2B        48.8360   52.1130   91.0420 O.3       1 NAD1001     0.0000 
     12 C1B        47.6370   54.2200   91.3300 C.3       1 NAD1001     0.0000 
     13 N9A        48.2100   54.9600   92.4810 N.pl3     1 NAD1001     0.0000 
     14 C8A        47.9500   54.7560   93.7850 C.2       1 NAD1001     0.0000 
     15 N7A        48.6480   55.6270   94.5580 N.2       1 NAD1001     0.0000 
     16 C5A        49.3750   56.4100   93.7410 C.ar      1 NAD1001     0.0000 
     17 C6A        50.3290   57.5330   93.8980 C.ar      1 NAD1001     0.0000 
     18 N6A        50.6590   58.0070   95.1230 N.pl3     1 NAD1001     0.0000 
     19 N1A        50.8600   58.0680   92.7760 N.ar      1 NAD1001     0.0000 
     20 C2A        50.5420   57.6070   91.5530 C.ar      1 NAD1001     0.0000 
     21 N3A        49.6850   56.5930   91.3370 N.ar      1 NAD1001     0.0000 
     22 C4A        49.0820   55.9630   92.3730 C.ar      1 NAD1001     0.0000 
     23 O3         41.1610   52.3110   91.9480 O.3       1 NAD1001     0.0000 
     24 PN         40.0350   52.9170   90.9680 P.3       1 NAD1001     0.0000 
     25 O1N        40.6780   53.3820   89.6830 O.co2     1 NAD1001     0.0000 
     26 O2N        38.8700   51.9570   90.9330 O.co2     1 NAD1001     0.0000 
     27 O5D        39.5860   54.2010   91.8240 O.3       1 NAD1001     0.0000 
     28 C5D        40.1950   55.4800   91.6570 C.3       1 NAD1001     0.0000 
     29 C4D        39.3790   56.4970   92.4440 C.3       1 NAD1001     0.0000 
     30 O4D        38.1600   56.7500   91.7450 O.3       1 NAD1001     0.0000 
     31 C3D        38.9970   55.9460   93.8080 C.3       1 NAD1001     0.0000 
     32 O3D        39.1370   56.9810   94.7830 O.3       1 NAD1001     0.0000 
     33 C2D        37.5290   55.5970   93.7050 C.3       1 NAD1001     0.0000 
     34 O2D        36.8550   55.8920   94.9290 O.3       1 NAD1001     0.0000 
     35 C1D        37.0350   56.5030   92.5940 C.3       1 NAD1001     0.0000 
     36 N1N        35.9430   55.9120   91.8180 N.pl3     1 NAD1001     0.0000 
     37 C2N        35.9220   54.6020   91.5270 C.ar      1 NAD1001     0.0000 
     38 C3N        34.8700   54.0710   90.7830 C.ar      1 NAD1001     0.0000 
     39 C7N        34.8210   52.6120   90.4430 C.2       1 NAD1001     0.0000 
     40 O7N        33.7420   52.0410   90.4510 O.2       1 NAD1001     0.0000 
     41 N7N        35.9540   51.9780   90.1460 N.am      1 NAD1001     0.0000 
     42 C4N        33.8550   54.9030   90.3320 C.ar      1 NAD1001     0.0000 
     43 C5N        33.9050   56.2500   90.6470 C.ar      1 NAD1001     0.0000 
     44 C6N        34.9750   56.7310   91.3890 C.ar      1 NAD1001     0.0000 
@<TRIPOS>BOND
     1    1    2 ar   
     2    1    3 ar   
     3    1    4 1    
     4    1   23 1    
     5    4    5 1    
     6    5    6 1    
     7    6    7 1    
     8    6    8 1    
     9    7   12 1    
    10    8    9 1    
    11    8   10 1    
    12   10   11 1    
    13   10   12 1    
    14   12   13 1    
    15   13   14 1    
    16   13   22 1    
    17   14   15 2    
    18   15   16 1    
    19   16   17 ar   
    20   16   22 ar   
    21   17   18 1    
    22   17   19 ar   
    23   19   20 ar   
    24   20   21 ar   
    25   21   22 ar   
    26   23   24 1    
    27   24   25 ar   
    28   24   26 ar   
    29   24   27 1    
    30   27   28 1    
    31   28   29 1    
    32   29   30 1    
    33   29   31 1    
    34   30   35 1    
    35   31   32 1    
    36   31   33 1    
    37   33   34 1    
    38   33   35 1    
    39   35   36 1    
    40   36   37 ar   
    41   36   44 ar   
    42   37   38 ar   
    43   38   39 1    
    44   38   42 ar   
    45   39   40 2    
    46   39   41 am   
    47   42   43 ar   
    48   43   44 ar   
@<TRIPOS>SUBSTRUCTURE
     1 NAD1001     1 GROUP   
@<TRIPOS>SET
ATOM$ORANGE STATIC     ATOMS   COLORGROUP SYSTEM 
42 5 5 6 6 8 8 10 10 12 12 14 14 16 16 17 17 20 \
20 22 22 28 28 29 29 31 31 33 33 35 35 37 37 38 38 39 \
39 42 42 43 43 44 44 

