#    Name: 6ghr_4_NAD
#    Modification time : Fri May 22 19:31:02 2020

@<TRIPOS>MOLECULE
6ghr_4_NAD
   44    48     1     0     1
SMALL
NO_CHARGES


@<TRIPOS>ATOM
      1 PA         21.2510   24.7550   76.4480 P.3       1 NAD1001     0.0000 
      2 O1A        20.4460   24.1230   77.5580 O.co2     1 NAD1001     0.0000 
      3 O2A        21.7050   26.1890   76.5630 O.co2     1 NAD1001     0.0000 
      4 O5B        20.4240   24.5950   75.0780 O.3       1 NAD1001     0.0000 
      5 C5B        19.3450   23.6710   74.9890 C.3       1 NAD1001     0.0000 
      6 C4B        18.1490   24.3560   74.3490 C.3       1 NAD1001     0.0000 
      7 O4B        17.3660   23.3990   73.6350 O.3       1 NAD1001     0.0000 
      8 C3B        17.2580   24.9770   75.4140 C.3       1 NAD1001     0.0000 
      9 O3B        16.9150   26.3110   75.0310 O.3       1 NAD1001     0.0000 
     10 C2B        16.0130   24.1160   75.4260 C.3       1 NAD1001     0.0000 
     11 O2B        14.8480   24.9100   75.6600 O.3       1 NAD1001     0.0000 
     12 C1B        15.9990   23.5050   74.0360 C.3       1 NAD1001     0.0000 
     13 N9A        15.3530   22.1710   74.0180 N.pl3     1 NAD1001     0.0000 
     14 C8A        15.5770   21.1540   74.8710 C.2       1 NAD1001     0.0000 
     15 N7A        14.8080   20.0790   74.5570 N.2       1 NAD1001     0.0000 
     16 C5A        14.0710   20.4090   73.4790 C.ar      1 NAD1001     0.0000 
     17 C6A        13.0530   19.7460   72.6280 C.ar      1 NAD1001     0.0000 
     18 N6A        12.6560   18.4750   72.8740 N.pl3     1 NAD1001     0.0000 
     19 N1A        12.5350   20.4530   71.5990 N.ar      1 NAD1001     0.0000 
     20 C2A        12.9190   21.7170   71.3410 C.ar      1 NAD1001     0.0000 
     21 N3A        13.8350   22.3800   72.0690 N.ar      1 NAD1001     0.0000 
     22 C4A        14.4330   21.7910   73.1320 C.ar      1 NAD1001     0.0000 
     23 O3         22.5370   23.8290   76.1670 O.3       1 NAD1001     0.0000 
     24 PN         23.6030   24.1830   75.0130 P.3       1 NAD1001     0.0000 
     25 O1N        22.9500   25.0480   73.9620 O.co2     1 NAD1001     0.0000 
     26 O2N        24.8820   24.6340   75.6780 O.co2     1 NAD1001     0.0000 
     27 O5D        23.8510   22.7190   74.3960 O.3       1 NAD1001     0.0000 
     28 C5D        23.5330   22.4140   73.0400 C.3       1 NAD1001     0.0000 
     29 C4D        24.3200   21.1800   72.6200 C.3       1 NAD1001     0.0000 
     30 O4D        25.6040   21.5870   72.1470 O.3       1 NAD1001     0.0000 
     31 C3D        24.5500   20.2560   73.8040 C.3       1 NAD1001     0.0000 
     32 O3D        24.3170   18.9070   73.3930 O.3       1 NAD1001     0.0000 
     33 C2D        26.0150   20.4060   74.1490 C.3       1 NAD1001     0.0000 
     34 O2D        26.5670   19.1420   74.5260 O.3       1 NAD1001     0.0000 
     35 C1D        26.6380   20.9020   72.8570 C.3       1 NAD1001     0.0000 
     36 N1N        27.7590   21.8200   73.0700 N.pl3     1 NAD1001     0.0000 
     37 C2N        27.7230   22.7650   74.0230 C.ar      1 NAD1001     0.0000 
     38 C3N        28.8040   23.6280   74.1910 C.ar      1 NAD1001     0.0000 
     39 C7N        28.7990   24.6940   75.2480 C.2       1 NAD1001     0.0000 
     40 O7N        29.8280   24.9280   75.8620 O.2       1 NAD1001     0.0000 
     41 N7N        27.6690   25.3550   75.4940 N.am      1 NAD1001     0.0000 
     42 C4N        29.9050   23.5120   73.3560 C.ar      1 NAD1001     0.0000 
     43 C5N        29.9110   22.5300   72.3790 C.ar      1 NAD1001     0.0000 
     44 C6N        28.8110   21.6970   72.2540 C.ar      1 NAD1001     0.0000 
@<TRIPOS>BOND
     1    1    2 ar   
     2    1    3 ar   
     3    1    4 1    
     4    1   23 1    
     5    4    5 1    
     6    5    6 1    
     7    6    7 1    
     8    6    8 1    
     9    7   12 1    
    10    8    9 1    
    11    8   10 1    
    12   10   11 1    
    13   10   12 1    
    14   12   13 1    
    15   13   14 1    
    16   13   22 1    
    17   14   15 2    
    18   15   16 1    
    19   16   17 ar   
    20   16   22 ar   
    21   17   18 1    
    22   17   19 ar   
    23   19   20 ar   
    24   20   21 ar   
    25   21   22 ar   
    26   23   24 1    
    27   24   25 ar   
    28   24   26 ar   
    29   24   27 1    
    30   27   28 1    
    31   28   29 1    
    32   29   30 1    
    33   29   31 1    
    34   30   35 1    
    35   31   32 1    
    36   31   33 1    
    37   33   34 1    
    38   33   35 1    
    39   35   36 1    
    40   36   37 ar   
    41   36   44 ar   
    42   37   38 ar   
    43   38   39 1    
    44   38   42 ar   
    45   39   40 2    
    46   39   41 am   
    47   42   43 ar   
    48   43   44 ar   
@<TRIPOS>SUBSTRUCTURE
     1 NAD1001     1 GROUP   
@<TRIPOS>SET
ATOM$ORANGE STATIC     ATOMS   COLORGROUP SYSTEM 
42 5 5 6 6 8 8 10 10 12 12 14 14 16 16 17 17 20 \
20 22 22 28 28 29 29 31 31 33 33 35 35 37 37 38 38 39 \
39 42 42 43 43 44 44 

