#    Name: 6ghr_1_NAD
#    Modification time : Fri May 22 19:30:30 2020

@<TRIPOS>MOLECULE
6ghr_1_NAD
   44    48     1     0     1
SMALL
NO_CHARGES


@<TRIPOS>ATOM
      1 PA         14.9760   23.1370   94.9320 P.3       1 NAD1001     0.0000 
      2 O1A        14.8790   23.0090   93.4310 O.co2     1 NAD1001     0.0000 
      3 O2A        16.3170   23.0160   95.6160 O.co2     1 NAD1001     0.0000 
      4 O5B        13.9740   22.0570   95.5830 O.3       1 NAD1001     0.0000 
      5 C5B        12.9780   21.4330   94.7790 C.3       1 NAD1001     0.0000 
      6 C4B        13.0140   19.9280   94.9890 C.3       1 NAD1001     0.0000 
      7 O4B        11.6980   19.3910   94.8460 O.3       1 NAD1001     0.0000 
      8 C3B        13.8970   19.2600   93.9460 C.3       1 NAD1001     0.0000 
      9 O3B        14.7890   18.3480   94.5910 O.3       1 NAD1001     0.0000 
     10 C2B        12.9420   18.4970   93.0510 C.3       1 NAD1001     0.0000 
     11 O2B        13.5110   17.2470   92.6560 O.3       1 NAD1001     0.0000 
     12 C1B        11.7180   18.2950   93.9300 C.3       1 NAD1001     0.0000 
     13 N9A        10.4570   18.2630   93.1490 N.pl3     1 NAD1001     0.0000 
     14 C8A        10.0600   19.1540   92.2220 C.2       1 NAD1001     0.0000 
     15 N7A         8.8490   18.8130   91.7090 N.2       1 NAD1001     0.0000 
     16 C5A         8.4540   17.6780   92.3150 C.ar      1 NAD1001     0.0000 
     17 C6A         7.2790   16.7770   92.2480 C.ar      1 NAD1001     0.0000 
     18 N6A         6.2490   17.0260   91.4040 N.pl3     1 NAD1001     0.0000 
     19 N1A         7.2700   15.6960   93.0600 N.ar      1 NAD1001     0.0000 
     20 C2A         8.2840   15.4330   93.9040 C.ar      1 NAD1001     0.0000 
     21 N3A         9.3780   16.2050   94.0170 N.ar      1 NAD1001     0.0000 
     22 C4A         9.5210   17.3200   93.2610 C.ar      1 NAD1001     0.0000 
     23 O3         14.2910   24.5310   95.3590 O.3       1 NAD1001     0.0000 
     24 PN         14.2030   25.0090   96.8930 P.3       1 NAD1001     0.0000 
     25 O1N        14.3590   23.8120   97.8020 O.co2     1 NAD1001     0.0000 
     26 O2N        15.0990   26.2140   97.0620 O.co2     1 NAD1001     0.0000 
     27 O5D        12.6760   25.5190   96.9540 O.3       1 NAD1001     0.0000 
     28 C5D        11.6970   24.8560   97.7520 C.3       1 NAD1001     0.0000 
     29 C4D        10.5510   25.8180   98.0380 C.3       1 NAD1001     0.0000 
     30 O4D        10.8470   26.5510   99.2270 O.3       1 NAD1001     0.0000 
     31 C3D        10.3880   26.8330   96.9190 C.3       1 NAD1001     0.0000 
     32 O3D         8.9950   27.0210   96.6650 O.3       1 NAD1001     0.0000 
     33 C2D        10.9340   28.1310   97.4710 C.3       1 NAD1001     0.0000 
     34 O2D        10.1410   29.2320   97.0210 O.3       1 NAD1001     0.0000 
     35 C1D        10.7960   27.9580   98.9710 C.3       1 NAD1001     0.0000 
     36 N1N        11.8590   28.6220   99.7240 N.pl3     1 NAD1001     0.0000 
     37 C2N        13.1340   28.5630   99.3140 C.ar      1 NAD1001     0.0000 
     38 C3N        14.1320   29.1940  100.0520 C.ar      1 NAD1001     0.0000 
     39 C7N        15.5660   29.1460   99.6170 C.2       1 NAD1001     0.0000 
     40 O7N        16.3010   30.0790   99.8980 O.2       1 NAD1001     0.0000 
     41 N7N        15.9990   28.0870   98.9340 N.am      1 NAD1001     0.0000 
     42 C4N        13.8000   29.8690  101.2160 C.ar      1 NAD1001     0.0000 
     43 C5N        12.4740   29.9120  101.6150 C.ar      1 NAD1001     0.0000 
     44 C6N        11.5180   29.2650  100.8470 C.ar      1 NAD1001     0.0000 
@<TRIPOS>BOND
     1    1    2 ar   
     2    1    3 ar   
     3    1    4 1    
     4    1   23 1    
     5    4    5 1    
     6    5    6 1    
     7    6    7 1    
     8    6    8 1    
     9    7   12 1    
    10    8    9 1    
    11    8   10 1    
    12   10   11 1    
    13   10   12 1    
    14   12   13 1    
    15   13   14 1    
    16   13   22 1    
    17   14   15 2    
    18   15   16 1    
    19   16   17 ar   
    20   16   22 ar   
    21   17   18 1    
    22   17   19 ar   
    23   19   20 ar   
    24   20   21 ar   
    25   21   22 ar   
    26   23   24 1    
    27   24   25 ar   
    28   24   26 ar   
    29   24   27 1    
    30   27   28 1    
    31   28   29 1    
    32   29   30 1    
    33   29   31 1    
    34   30   35 1    
    35   31   32 1    
    36   31   33 1    
    37   33   34 1    
    38   33   35 1    
    39   35   36 1    
    40   36   37 ar   
    41   36   44 ar   
    42   37   38 ar   
    43   38   39 1    
    44   38   42 ar   
    45   39   40 2    
    46   39   41 am   
    47   42   43 ar   
    48   43   44 ar   
@<TRIPOS>SUBSTRUCTURE
     1 NAD1001     1 GROUP   
@<TRIPOS>SET
ATOM$ORANGE STATIC     ATOMS   COLORGROUP SYSTEM 
42 5 5 6 6 8 8 10 10 12 12 14 14 16 16 17 17 20 \
20 22 22 28 28 29 29 31 31 33 33 35 35 37 37 38 38 39 \
39 42 42 43 43 44 44 

