#    Name: 6ghr_3_NAD
#    Modification time : Fri May 22 19:30:51 2020

@<TRIPOS>MOLECULE
6ghr_3_NAD
   44    48     1     0     1
SMALL
NO_CHARGES


@<TRIPOS>ATOM
      1 PA         48.4390   36.8520  102.7700 P.3       1 NAD1001     0.0000 
      2 O1A        48.5910   38.1390  101.9960 O.co2     1 NAD1001     0.0000 
      3 O2A        47.0660   36.2820  103.0310 O.co2     1 NAD1001     0.0000 
      4 O5B        49.1990   37.0290  104.1750 O.3       1 NAD1001     0.0000 
      5 C5B        50.3080   37.9160  104.2870 C.3       1 NAD1001     0.0000 
      6 C4B        50.2480   38.6370  105.6240 C.3       1 NAD1001     0.0000 
      7 O4B        51.5460   39.1250  105.9650 O.3       1 NAD1001     0.0000 
      8 C3B        49.3190   39.8380  105.5450 C.3       1 NAD1001     0.0000 
      9 O3B        48.4790   39.8650  106.7010 O.3       1 NAD1001     0.0000 
     10 C2B        50.2390   41.0400  105.5610 C.3       1 NAD1001     0.0000 
     11 O2B        49.6320   42.1230  106.2670 O.3       1 NAD1001     0.0000 
     12 C1B        51.4690   40.5160  106.2820 C.3       1 NAD1001     0.0000 
     13 N9A        52.7190   41.2020  105.8710 N.pl3     1 NAD1001     0.0000 
     14 C8A        53.1030   41.5110  104.6180 C.2       1 NAD1001     0.0000 
     15 N7A        54.3110   42.1350  104.6200 N.2       1 NAD1001     0.0000 
     16 C5A        54.7150   42.2310  105.9020 C.ar      1 NAD1001     0.0000 
     17 C6A        55.8910   42.7740  106.6210 C.ar      1 NAD1001     0.0000 
     18 N6A        56.9120   43.3610  105.9520 N.pl3     1 NAD1001     0.0000 
     19 N1A        55.9100   42.6650  107.9690 N.ar      1 NAD1001     0.0000 
     20 C2A        54.9050   42.0880  108.6510 C.ar      1 NAD1001     0.0000 
     21 N3A        53.8100   41.5750  108.0640 N.ar      1 NAD1001     0.0000 
     22 C4A        53.6590   41.6180  106.7190 C.ar      1 NAD1001     0.0000 
     23 O3         49.3450   35.7340  102.0500 O.3       1 NAD1001     0.0000 
     24 PN         49.1810   34.1580  102.3330 P.3       1 NAD1001     0.0000 
     25 O1N        48.9560   33.9260  103.8080 O.co2     1 NAD1001     0.0000 
     26 O2N        48.2240   33.5870  101.3150 O.co2     1 NAD1001     0.0000 
     27 O5D        50.6600   33.6610  101.9480 O.3       1 NAD1001     0.0000 
     28 C5D        51.6890   33.5280  102.9260 C.3       1 NAD1001     0.0000 
     29 C4D        52.8490   32.7640  102.2990 C.3       1 NAD1001     0.0000 
     30 O4D        52.5260   31.3740  102.2720 O.3       1 NAD1001     0.0000 
     31 C3D        53.0720   33.1890  100.8580 C.3       1 NAD1001     0.0000 
     32 O3D        54.4790   33.2670  100.6200 O.3       1 NAD1001     0.0000 
     33 C2D        52.5230   32.0620  100.0130 C.3       1 NAD1001     0.0000 
     34 O2D        53.3370   31.8770   98.8540 O.3       1 NAD1001     0.0000 
     35 C1D        52.6180   30.8640  100.9390 C.3       1 NAD1001     0.0000 
     36 N1N        51.5710   29.8610  100.7290 N.pl3     1 NAD1001     0.0000 
     37 C2N        50.2970   30.2140  100.5060 C.ar      1 NAD1001     0.0000 
     38 C3N        49.3260   29.2330  100.3190 C.ar      1 NAD1001     0.0000 
     39 C7N        47.8950   29.6030  100.0660 C.2       1 NAD1001     0.0000 
     40 O7N        47.2010   28.8510   99.4000 O.2       1 NAD1001     0.0000 
     41 N7N        47.4240   30.7420  100.5720 N.am      1 NAD1001     0.0000 
     42 C4N        49.6770   27.8920  100.3790 C.ar      1 NAD1001     0.0000 
     43 C5N        51.0010   27.5590  100.6150 C.ar      1 NAD1001     0.0000 
     44 C6N        51.9290   28.5730  100.7960 C.ar      1 NAD1001     0.0000 
@<TRIPOS>BOND
     1    1    2 ar   
     2    1    3 ar   
     3    1    4 1    
     4    1   23 1    
     5    4    5 1    
     6    5    6 1    
     7    6    7 1    
     8    6    8 1    
     9    7   12 1    
    10    8    9 1    
    11    8   10 1    
    12   10   11 1    
    13   10   12 1    
    14   12   13 1    
    15   13   14 1    
    16   13   22 1    
    17   14   15 2    
    18   15   16 1    
    19   16   17 ar   
    20   16   22 ar   
    21   17   18 1    
    22   17   19 ar   
    23   19   20 ar   
    24   20   21 ar   
    25   21   22 ar   
    26   23   24 1    
    27   24   25 ar   
    28   24   26 ar   
    29   24   27 1    
    30   27   28 1    
    31   28   29 1    
    32   29   30 1    
    33   29   31 1    
    34   30   35 1    
    35   31   32 1    
    36   31   33 1    
    37   33   34 1    
    38   33   35 1    
    39   35   36 1    
    40   36   37 ar   
    41   36   44 ar   
    42   37   38 ar   
    43   38   39 1    
    44   38   42 ar   
    45   39   40 2    
    46   39   41 am   
    47   42   43 ar   
    48   43   44 ar   
@<TRIPOS>SUBSTRUCTURE
     1 NAD1001     1 GROUP   
@<TRIPOS>SET
ATOM$ORANGE STATIC     ATOMS   COLORGROUP SYSTEM 
42 5 5 6 6 8 8 10 10 12 12 14 14 16 16 17 17 20 \
20 22 22 28 28 29 29 31 31 33 33 35 35 37 37 38 38 39 \
39 42 42 43 43 44 44 

