#    Name: 6nud_1_ATP
#    Modification time : Fri May 22 19:28:28 2020

@<TRIPOS>MOLECULE
6nud_1_ATP
   31    33     1     0     1
SMALL
NO_CHARGES


@<TRIPOS>ATOM
      1 PG        216.3320  213.2630  238.1690 P.3       1 ATP801      0.0000 
      2 O1G       215.7870  214.5080  237.5110 O.co2     1 ATP801      0.0000 
      3 O2G       216.1480  211.9990  237.3630 O.co2     1 ATP801      0.0000 
      4 O3G       217.7110  213.4270  238.7630 O.co2     1 ATP801      0.0000 
      5 PB        213.7920  212.8540  239.2810 P.3       1 ATP801      0.0000 
      6 O1B       213.2050  214.1520  238.7810 O.co2     1 ATP801      0.0000 
      7 O2B       213.5490  211.5740  238.5180 O.co2     1 ATP801      0.0000 
      8 O3B       215.3820  213.0520  239.4520 O.3       1 ATP801      0.0000 
      9 PA        211.7860  212.1970  241.1160 P.3       1 ATP801      0.0000 
     10 O1A       211.6160  210.7560  240.6990 O.co2     1 ATP801      0.0000 
     11 O2A       210.8580  213.2520  240.5650 O.co2     1 ATP801      0.0000 
     12 O3A       213.3030  212.6340  240.7990 O.3       1 ATP801      0.0000 
     13 O5'       211.7270  212.2640  242.7240 O.3       1 ATP801      0.0000 
     14 C5'       210.5710  211.8110  243.4260 C.3       1 ATP801      0.0000 
     15 C4'       210.7430  212.0810  244.9150 C.3       1 ATP801      0.0000 
     16 O4'       210.6510  213.4840  245.1780 O.3       1 ATP801      0.0000 
     17 C3'       209.6600  211.4030  245.7390 C.3       1 ATP801      0.0000 
     18 O3'       210.2140  210.3020  246.4650 O.3       1 ATP801      0.0000 
     19 C2'       209.1490  212.4560  246.7020 C.3       1 ATP801      0.0000 
     20 O2'       209.3810  212.0440  248.0510 O.3       1 ATP801      0.0000 
     21 C1'       209.9410  213.7180  246.3970 C.3       1 ATP801      0.0000 
     22 N9        209.0140  214.8670  246.2420 N.pl3     1 ATP801      0.0000 
     23 C8        208.3820  215.2190  245.1070 C.2       1 ATP801      0.0000 
     24 N7        207.6040  216.3150  245.3000 N.2       1 ATP801      0.0000 
     25 C5        207.7340  216.6810  246.5880 C.ar      1 ATP801      0.0000 
     26 C6        207.1890  217.7540  247.4530 C.ar      1 ATP801      0.0000 
     27 N6        206.3270  218.6780  246.9640 N.pl3     1 ATP801      0.0000 
     28 N1        207.5820  217.7790  248.7460 N.ar      1 ATP801      0.0000 
     29 C2        208.4380  216.8680  249.2430 C.ar      1 ATP801      0.0000 
     30 N3        208.9710  215.8690  248.5160 N.ar      1 ATP801      0.0000 
     31 C4        208.6640  215.7230  247.2050 C.ar      1 ATP801      0.0000 
@<TRIPOS>BOND
     1    1    2 ar   
     2    1    3 ar   
     3    1    4 ar   
     4    1    8 1    
     5    5    6 ar   
     6    5    7 ar   
     7    5    8 1    
     8    5   12 1    
     9    9   10 ar   
    10    9   11 ar   
    11    9   12 1    
    12    9   13 1    
    13   13   14 1    
    14   14   15 1    
    15   15   16 1    
    16   15   17 1    
    17   16   21 1    
    18   17   18 1    
    19   17   19 1    
    20   19   20 1    
    21   19   21 1    
    22   21   22 1    
    23   22   23 1    
    24   22   31 1    
    25   23   24 2    
    26   24   25 1    
    27   25   26 ar   
    28   25   31 ar   
    29   26   27 1    
    30   26   28 ar   
    31   28   29 ar   
    32   29   30 ar   
    33   30   31 ar   
@<TRIPOS>SUBSTRUCTURE
     1 ATP801      1 GROUP   
@<TRIPOS>SET
ATOM$ORANGE STATIC     ATOMS   COLORGROUP SYSTEM 
20 14 14 15 15 17 17 19 19 21 21 23 23 25 25 26 26 29 \
29 31 31 

