#    Name: 6jwa_1_5ID
#    Modification time : Fri May 22 19:33:33 2020

@<TRIPOS>MOLECULE
6jwa_1_5ID
   20    22     1     0     0
SMALL
NO_CHARGES


@<TRIPOS>ATOM
      1 O5'       -13.4240   -3.3340   -8.1510 O.3       1 5ID401      0.0000 
      2 C5'       -14.5270   -3.4120   -7.2870 C.3       1 5ID401      0.0000 
      3 C4'       -14.8230   -4.8880   -6.9910 C.3       1 5ID401      0.0000 
      4 O4'       -15.1050   -5.5250   -8.1170 O.3       1 5ID401      0.0000 
      5 C1'       -13.9660   -6.6490   -8.3900 C.3       1 5ID401      0.0000 
      6 N9        -13.5680   -6.5960   -9.7250 N.pl3     1 5ID401      0.0000 
      7 C8        -13.2770   -5.4730  -10.4110 C.2       1 5ID401      0.0000 
      8 C7        -12.9130   -5.8180  -11.7280 C.2       1 5ID401      0.0000 
      9 C5        -12.9900   -7.2730  -11.7820 C.ar      1 5ID401      0.0000 
     10 C6        -12.7520   -8.3170  -12.8070 C.ar      1 5ID401      0.0000 
     11 N1        -12.9420   -9.6170  -12.4810 N.ar      1 5ID401      0.0000 
     12 C2        -13.3530   -9.9720  -11.2290 C.ar      1 5ID401      0.0000 
     13 N3        -13.5690   -9.0720  -10.2820 N.ar      1 5ID401      0.0000 
     14 C4        -13.4020   -7.6860  -10.5110 C.ar      1 5ID401      0.0000 
     15 N6        -12.3210   -7.9390  -14.1610 N.pl3     1 5ID401      0.0000 
     16 C2'       -12.9390   -6.3320   -7.6040 C.3       1 5ID401      0.0000 
     17 O2'       -12.2670   -7.5100   -7.1470 O.3       1 5ID401      0.0000 
     18 C3'       -13.5630   -5.5890   -6.3980 C.3       1 5ID401      0.0000 
     19 O3'       -13.9270   -6.4700   -5.4340 O.3       1 5ID401      0.0000 
     20 IAE       -12.3410   -4.5210  -13.2860 I         1 5ID401      0.0000 
@<TRIPOS>BOND
     1    1    2 1    
     2    2    3 1    
     3    3    4 1    
     4    3   18 1    
     5    4    5 1    
     6    5    6 1    
     7    5   16 1    
     8    6    7 1    
     9    6   14 1    
    10    7    8 2    
    11    8    9 1    
    12    8   20 1    
    13    9   10 ar   
    14    9   14 ar   
    15   10   11 ar   
    16   10   15 1    
    17   11   12 ar   
    18   12   13 ar   
    19   13   14 ar   
    20   16   17 1    
    21   16   18 1    
    22   18   19 1    
@<TRIPOS>SUBSTRUCTURE
     1 5ID401      1 GROUP   
@<TRIPOS>SET

