#    Name: 6nnr_1_CB3
#    Modification time : Fri May 22 19:32:18 2020

@<TRIPOS>MOLECULE
6nnr_1_CB3
   56    58     1     0     0
SMALL
NO_CHARGES


@<TRIPOS>ATOM
      1 N1         -9.3480   20.2570   12.6530 N.pl3     1 CB3902      0.0000 
      2 C2        -10.2000   20.4720   13.6780 C.2       1 CB3902      0.0000 
      3 NA2       -11.4660   20.0950   13.5620 N.pl3     1 CB3902      0.0000 
      4 N3         -9.8040   21.0840   14.8300 N.2       1 CB3902      0.0000 
      5 C4         -8.5280   21.5450   15.0280 C.2       1 CB3902      0.0000 
      6 O4         -8.2890   22.2390   16.0280 O.2       1 CB3902      0.0000 
      7 C4A        -7.5970   21.2640   13.9880 C.ar      1 CB3902      0.0000 
      8 C5         -6.2280   21.5390   14.1710 C.ar      1 CB3902      0.0000 
      9 C6         -5.2900   21.1870   13.1840 C.ar      1 CB3902      0.0000 
     10 C7         -5.7360   20.5980   12.0080 C.ar      1 CB3902      0.0000 
     11 C8         -7.0880   20.3340   11.8220 C.ar      1 CB3902      0.0000 
     12 C8A        -8.0260   20.6230   12.8200 C.ar      1 CB3902      0.0000 
     13 C9         -3.7560   21.3350   13.3840 C.3       1 CB3902      0.0000 
     14 N10        -3.4450   21.3280   14.8380 N.pl3     1 CB3902      0.0000 
     15 C11        -4.7760   18.5010   17.6510 C.ar      1 CB3902      0.0000 
     16 C12        -4.1510   19.6800   18.0690 C.ar      1 CB3902      0.0000 
     17 C13        -3.7380   20.6190   17.1390 C.ar      1 CB3902      0.0000 
     18 C14        -3.9060   20.3730   15.7860 C.ar      1 CB3902      0.0000 
     19 C15        -4.5340   19.1980   15.3760 C.ar      1 CB3902      0.0000 
     20 C16        -4.9560   18.2610   16.3030 C.ar      1 CB3902      0.0000 
     21 C          -5.1410   17.4390   18.6310 C.2       1 CB3902      0.0000 
     22 O          -5.7500   16.3810   18.2310 O.2       1 CB3902      0.0000 
     23 N          -4.6460   17.5260   19.8510 N.am      1 CB3902      0.0000 
     24 CA         -4.8230   16.4750   20.8350 C.3       1 CB3902      0.0000 
     25 CB         -3.7200   15.4170   20.6810 C.3       1 CB3902      0.0000 
     26 CG         -2.3250   16.0270   20.7550 C.3       1 CB3902      0.0000 
     27 CD         -1.2360   14.9760   20.6060 C.2       1 CB3902      0.0000 
     28 OE1        -0.6590   14.5550   21.6220 O.co2     1 CB3902      0.0000 
     29 OE2        -0.8780   14.5220   19.4910 O.co2     1 CB3902      0.0000 
     30 CT         -4.8330   17.0930   22.1870 C.2       1 CB3902      0.0000 
     31 O1         -4.4450   18.2820   22.3520 O.co2     1 CB3902      0.0000 
     32 O2         -5.2800   16.3900   23.1180 O.co2     1 CB3902      0.0000 
     33 CP1        -2.7200   22.4890   15.3010 C.3       1 CB3902      0.0000 
     34 CP2        -3.5540   23.5830   15.8150 C.1       1 CB3902      0.0000 
     35 CP3        -4.2660   24.4510   16.2040 C.1       1 CB3902      0.0000 
     36 HN1        -9.6170   19.6140   11.8800 H         1 CB3902      0.0000 
     37 HN21      -12.1180   20.2630   14.3210 H         1 CB3902      0.0000 
     38 HN22      -11.7820   19.6320   12.7150 H         1 CB3902      0.0000 
     39 H5         -5.8920   22.0290   15.0850 H         1 CB3902      0.0000 
     40 H7         -5.0210   20.3410   11.2260 H         1 CB3902      0.0000 
     41 H8         -7.4230   19.8950   10.8830 H         1 CB3902      0.0000 
     42 H91        -3.4130   22.2680   12.9370 H         1 CB3902      0.0000 
     43 H92        -3.2380   20.5110   12.8930 H         1 CB3902      0.0000 
     44 H12        -3.9870   19.8600   19.1320 H         1 CB3902      0.0000 
     45 H13        -3.2840   21.5520   17.4710 H         1 CB3902      0.0000 
     46 H15        -4.6930   19.0140   14.3140 H         1 CB3902      0.0000 
     47 H16        -5.5050   17.3790   15.9740 H         1 CB3902      0.0000 
     48 HN         -4.1250   18.3480   20.1220 H         1 CB3902      0.0000 
     49 HA         -5.7860   15.9950   20.6600 H         1 CB3902      0.0000 
     50 HB1        -3.8390   14.9100   19.7240 H         1 CB3902      0.0000 
     51 HB2        -3.8270   14.6700   21.4680 H         1 CB3902      0.0000 
     52 HG1        -2.2050   16.5360   21.7110 H         1 CB3902      0.0000 
     53 HG2        -2.2160   16.7720   19.9670 H         1 CB3902      0.0000 
     54 HP11       -2.1140   22.8710   14.4800 H         1 CB3902      0.0000 
     55 HP12       -2.0320   22.1770   16.0880 H         1 CB3902      0.0000 
     56 HP3        -4.3500   24.3780   17.2890 H         1 CB3902      0.0000 
@<TRIPOS>BOND
     1    1    2 1    
     2    1   12 1    
     3    1   36 1    
     4    2    3 1    
     5    2    4 2    
     6    3   37 1    
     7    3   38 1    
     8    4    5 1    
     9    5    6 2    
    10    5    7 1    
    11    7    8 ar   
    12    7   12 ar   
    13    8    9 ar   
    14    8   39 1    
    15    9   10 ar   
    16    9   13 1    
    17   10   11 ar   
    18   10   40 1    
    19   11   12 ar   
    20   11   41 1    
    21   13   14 1    
    22   13   42 1    
    23   13   43 1    
    24   14   18 1    
    25   14   33 1    
    26   15   16 ar   
    27   15   20 ar   
    28   15   21 1    
    29   16   17 ar   
    30   16   44 1    
    31   17   18 ar   
    32   17   45 1    
    33   18   19 ar   
    34   19   20 ar   
    35   19   46 1    
    36   20   47 1    
    37   21   22 2    
    38   21   23 am   
    39   23   24 1    
    40   23   48 1    
    41   24   25 1    
    42   24   30 1    
    43   24   49 1    
    44   25   26 1    
    45   25   50 1    
    46   25   51 1    
    47   26   27 1    
    48   26   52 1    
    49   26   53 1    
    50   27   28 ar   
    51   27   29 ar   
    52   30   31 ar   
    53   30   32 ar   
    54   33   34 1    
    55   33   54 1    
    56   33   55 1    
    57   34   35 3    
    58   35   56 1    
@<TRIPOS>SUBSTRUCTURE
     1 CB3902      1 GROUP   
@<TRIPOS>SET

