#    Name: 6nnr_2_CB3
#    Modification time : Fri May 22 19:32:25 2020

@<TRIPOS>MOLECULE
6nnr_2_CB3
   56    58     1     0     0
SMALL
NO_CHARGES


@<TRIPOS>ATOM
      1 N1         -6.1000   58.6200    5.0760 N.pl3     1 CB3302      0.0000 
      2 C2         -6.2200   58.9780    6.3630 C.2       1 CB3302      0.0000 
      3 NA2        -5.2050   59.5260    6.9980 N.pl3     1 CB3302      0.0000 
      4 N3         -7.3810   58.7740    7.0680 N.2       1 CB3302      0.0000 
      5 C4         -8.5040   58.1990    6.4880 C.2       1 CB3302      0.0000 
      6 O4         -9.4510   57.8980    7.2310 O.2       1 CB3302      0.0000 
      7 C4A        -8.4300   57.9020    5.1110 C.ar      1 CB3302      0.0000 
      8 C5         -9.5650   57.4560    4.4160 C.ar      1 CB3302      0.0000 
      9 C6         -9.4820   57.2050    3.0360 C.ar      1 CB3302      0.0000 
     10 C7         -8.2730   57.3730    2.3670 C.ar      1 CB3302      0.0000 
     11 C8         -7.1430   57.8060    3.0510 C.ar      1 CB3302      0.0000 
     12 C8A        -7.2200   58.1020    4.4250 C.ar      1 CB3302      0.0000 
     13 C9        -10.7130   56.8060    2.1830 C.3       1 CB3302      0.0000 
     14 N10       -11.9430   57.2890    2.8570 N.pl3     1 CB3302      0.0000 
     15 C11       -12.6680   61.1720    4.3800 C.ar      1 CB3302      0.0000 
     16 C12       -11.5480   60.9240    3.6060 C.ar      1 CB3302      0.0000 
     17 C13       -11.2960   59.6500    3.0990 C.ar      1 CB3302      0.0000 
     18 C14       -12.1630   58.5930    3.3700 C.ar      1 CB3302      0.0000 
     19 C15       -13.2690   58.8510    4.1600 C.ar      1 CB3302      0.0000 
     20 C16       -13.5330   60.1180    4.6400 C.ar      1 CB3302      0.0000 
     21 C         -12.9760   62.5550    4.8390 C.2       1 CB3302      0.0000 
     22 O         -12.1050   63.4800    4.5960 O.2       1 CB3302      0.0000 
     23 N         -14.1730   62.7980    5.3370 N.am      1 CB3302      0.0000 
     24 CA        -14.6190   64.1140    5.7350 C.3       1 CB3302      0.0000 
     25 CB        -15.1600   64.8860    4.5330 C.3       1 CB3302      0.0000 
     26 CG        -16.2270   64.1160    3.7660 C.3       1 CB3302      0.0000 
     27 CD        -16.7500   65.0040    2.6790 C.2       1 CB3302      0.0000 
     28 OE1       -17.6740   65.7970    2.9590 O.co2     1 CB3302      0.0000 
     29 OE2       -16.2430   64.9750    1.5340 O.co2     1 CB3302      0.0000 
     30 CT        -15.6670   63.9840    6.8010 C.2       1 CB3302      0.0000 
     31 O1        -16.0090   65.0200    7.4270 O.co2     1 CB3302      0.0000 
     32 O2        -16.1810   62.8520    7.0310 O.co2     1 CB3302      0.0000 
     33 CP1       -12.9480   56.2590    3.0920 C.3       1 CB3302      0.0000 
     34 CP2       -12.9070   55.6270    4.4230 C.1       1 CB3302      0.0000 
     35 CP3       -12.8540   55.1430    5.5040 C.1       1 CB3302      0.0000 
     36 HN1        -5.2750   58.9310    4.5240 H         1 CB3302      0.0000 
     37 HN21       -5.2970   59.7830    7.9750 H         1 CB3302      0.0000 
     38 HN22       -4.3320   59.6970    6.5080 H         1 CB3302      0.0000 
     39 H5        -10.4750   57.2070    4.9610 H         1 CB3302      0.0000 
     40 H7         -8.2120   57.1630    1.2990 H         1 CB3302      0.0000 
     41 H8         -6.1960   57.9160    2.5230 H         1 CB3302      0.0000 
     42 H91       -10.7520   55.7220    2.0720 H         1 CB3302      0.0000 
     43 H92       -10.6360   57.2490    1.1900 H         1 CB3302      0.0000 
     44 H12       -10.8520   61.7350    3.3910 H         1 CB3302      0.0000 
     45 H13       -10.4130   59.4790    2.4830 H         1 CB3302      0.0000 
     46 H15       -13.9480   58.0350    4.4080 H         1 CB3302      0.0000 
     47 H16       -14.4320   60.2930    5.2320 H         1 CB3302      0.0000 
     48 HN        -14.8210   62.0310    5.4510 H         1 CB3302      0.0000 
     49 HA        -13.7690   64.6620    6.1410 H         1 CB3302      0.0000 
     50 HB1       -14.3360   65.1210    3.8600 H         1 CB3302      0.0000 
     51 HB2       -15.5810   65.8310    4.8770 H         1 CB3302      0.0000 
     52 HG1       -17.0360   63.8280    4.4360 H         1 CB3302      0.0000 
     53 HG2       -15.7970   63.2110    3.3350 H         1 CB3302      0.0000 
     54 HP11      -12.8310   55.4830    2.3360 H         1 CB3302      0.0000 
     55 HP12      -13.9340   56.7000    2.9480 H         1 CB3302      0.0000 
     56 HP3       -12.2100   55.7580    6.1330 H         1 CB3302      0.0000 
@<TRIPOS>BOND
     1    1    2 1    
     2    1   12 1    
     3    1   36 1    
     4    2    3 1    
     5    2    4 2    
     6    3   37 1    
     7    3   38 1    
     8    4    5 1    
     9    5    6 2    
    10    5    7 1    
    11    7    8 ar   
    12    7   12 ar   
    13    8    9 ar   
    14    8   39 1    
    15    9   10 ar   
    16    9   13 1    
    17   10   11 ar   
    18   10   40 1    
    19   11   12 ar   
    20   11   41 1    
    21   13   14 1    
    22   13   42 1    
    23   13   43 1    
    24   14   18 1    
    25   14   33 1    
    26   15   16 ar   
    27   15   20 ar   
    28   15   21 1    
    29   16   17 ar   
    30   16   44 1    
    31   17   18 ar   
    32   17   45 1    
    33   18   19 ar   
    34   19   20 ar   
    35   19   46 1    
    36   20   47 1    
    37   21   22 2    
    38   21   23 am   
    39   23   24 1    
    40   23   48 1    
    41   24   25 1    
    42   24   30 1    
    43   24   49 1    
    44   25   26 1    
    45   25   50 1    
    46   25   51 1    
    47   26   27 1    
    48   26   52 1    
    49   26   53 1    
    50   27   28 ar   
    51   27   29 ar   
    52   30   31 ar   
    53   30   32 ar   
    54   33   34 1    
    55   33   54 1    
    56   33   55 1    
    57   34   35 3    
    58   35   56 1    
@<TRIPOS>SUBSTRUCTURE
     1 CB3302      1 GROUP   
@<TRIPOS>SET

