#    Name: 6f3j_1_IMP_CAVITY_N1_8
#    Modification time : Fri May 22 19:38:19 2020

@<TRIPOS>MOLECULE
6f3j_1_IMP_CAVITY_N1_8
   81     0     5     0     0
SMALL
NO_CHARGES


@<TRIPOS>ATOM
      1 N          24.2400    0.1900   52.1500 N.am      1 ALA2        0.0000 
      2 N          27.7400   -0.3300   51.1500 N.am      1 ALA2        0.0000 
      3 N          28.7000   -0.2800   50.0100 N.am      1 ALA2        0.0000 
      4 N          29.1000    1.0900   48.4400 N.am      1 ALA2        0.0000 
      5 N          29.6700   -0.2400   48.8600 N.am      1 ALA2        0.0000 
      6 N          28.5700    3.0700   50.0400 N.am      1 ALA2        0.0000 
      7 OD1        23.1300    3.4900   53.3200 O.co2     2 ASP3        0.0000 
      8 OD1        23.5300    4.8600   51.7500 O.co2     2 ASP3        0.0000 
      9 OD1        24.1000    3.5400   52.1800 O.co2     2 ASP3        0.0000 
     10 OD1        25.1000    4.2400   53.0500 O.co2     2 ASP3        0.0000 
     11 OD1        25.5000    5.6200   51.4800 O.co2     2 ASP3        0.0000 
     12 OD1        30.1000    1.7900   49.3100 O.co2     2 ASP3        0.0000 
     13 OD1        30.6700    0.4700   49.7400 O.co2     2 ASP3        0.0000 
     14 OD1        31.6400    0.5200   48.5900 O.co2     2 ASP3        0.0000 
     15 OD1        28.0300    5.0500   51.6300 O.co2     2 ASP3        0.0000 
     16 OD1        29.5600    3.7700   50.9100 O.co2     2 ASP3        0.0000 
     17 OD1        31.1000    2.5000   50.1900 O.co2     2 ASP3        0.0000 
     18 OD1        31.6600    1.1800   50.6100 O.co2     2 ASP3        0.0000 
     19 OD1        30.7200    1.7800   53.7700 O.co2     2 ASP3        0.0000 
     20 OD1        30.5600    4.4800   51.7800 O.co2     2 ASP3        0.0000 
     21 OD1        31.1300    3.1500   52.2000 O.co2     2 ASP3        0.0000 
     22 OD1        31.6900    1.8300   52.6200 O.co2     2 ASP3        0.0000 
     23 OD1        32.2600    0.5100   53.0500 O.co2     2 ASP3        0.0000 
     24 OD1        32.8300   -0.8100   53.4700 O.co2     2 ASP3        0.0000 
     25 OD1        32.0900    3.2000   51.0600 O.co2     2 ASP3        0.0000 
     26 OD1        33.2300    0.5600   51.9000 O.co2     2 ASP3        0.0000 
     27 OD1        33.7900   -0.7700   52.3300 O.co2     2 ASP3        0.0000 
     28 OD1        31.5500    5.1800   52.6500 O.co2     2 ASP3        0.0000 
     29 OD1        32.1200    3.8600   53.0700 O.co2     2 ASP3        0.0000 
     30 OD1        33.8200   -0.1100   54.3400 O.co2     2 ASP3        0.0000 
     31 CZ         22.5400    4.1600   50.8800 C.ar      3 PHE5        0.0000 
     32 CZ         23.5100    4.2100   49.7400 C.ar      3 PHE5        0.0000 
     33 CZ         24.5000    4.9100   50.6100 C.ar      3 PHE5        0.0000 
     34 CZ         29.8700   -2.2700   52.8700 C.ar      3 PHE5        0.0000 
     35 CZ         31.2300   -0.8500   50.1600 C.ar      3 PHE5        0.0000 
     36 CZ         30.8600   -1.5700   53.7400 C.ar      3 PHE5        0.0000 
     37 CZ         32.8000   -1.4700   51.4500 C.ar      3 PHE5        0.0000 
     38 CZ         28.6200    4.3800   54.0700 C.ar      3 PHE5        0.0000 
     39 CZ         29.5900    4.4300   52.9200 C.ar      3 PHE5        0.0000 
     40 CZ         31.1500    3.8100   54.2200 C.ar      3 PHE5        0.0000 
     41 CA         21.5700    4.1100   52.0300 C.3       4 GLY6        0.0000 
     42 CA         22.7000    1.4600   52.8700 C.3       4 GLY6        0.0000 
     43 CA         23.1000    2.8300   51.3000 C.3       4 GLY6        0.0000 
     44 CA         23.6700    1.5100   51.7300 C.3       4 GLY6        0.0000 
     45 CA         24.0700    2.8800   50.1600 C.3       4 GLY6        0.0000 
     46 CA         24.6400    1.5600   50.5800 C.3       4 GLY6        0.0000 
     47 CA         25.2100    0.2400   51.0000 C.3       4 GLY6        0.0000 
     48 CA         25.0700    3.5900   51.0300 C.3       4 GLY6        0.0000 
     49 CA         25.6300    2.2600   51.4500 C.3       4 GLY6        0.0000 
     50 CA         26.2000    0.9400   51.8800 C.3       4 GLY6        0.0000 
     51 CA         26.0400    3.6400   49.8900 C.3       4 GLY6        0.0000 
     52 CA         26.6000    2.3100   50.3100 C.3       4 GLY6        0.0000 
     53 CA         27.1700    0.9900   50.7300 C.3       4 GLY6        0.0000 
     54 CA         28.3000   -1.6600   51.5800 C.3       4 GLY6        0.0000 
     55 CA         28.1400    1.0400   49.5900 C.3       4 GLY6        0.0000 
     56 CA         29.2700   -1.6100   50.4300 C.3       4 GLY6        0.0000 
     57 CA         30.2400   -1.5600   49.2900 C.3       4 GLY6        0.0000 
     58 CA         30.2700   -0.9000   51.3000 C.3       4 GLY6        0.0000 
     59 CA         32.2300   -0.1500   51.0300 C.3       4 GLY6        0.0000 
     60 CA         34.3900   -1.4300   54.7700 C.3       4 GLY6        0.0000 
     61 DU         24.6700    2.2200   52.6000 H         5 CUB7        0.0000 
     62 DU         25.2300    0.8900   53.0200 H         5 CUB7        0.0000 
     63 DU         26.7700   -0.3800   52.3000 H         5 CUB7        0.0000 
     64 DU         25.6600    2.9200   53.4700 H         5 CUB7        0.0000 
     65 DU         26.0600    4.2900   51.9000 H         5 CUB7        0.0000 
     66 DU         26.6300    2.9700   52.3300 H         5 CUB7        0.0000 
     67 DU         27.2000    1.6500   52.7500 H         5 CUB7        0.0000 
     68 DU         27.6000    3.0200   51.1800 H         5 CUB7        0.0000 
     69 DU         28.7300    0.3700   52.0300 H         5 CUB7        0.0000 
     70 DU         29.3000   -0.9500   52.4500 H         5 CUB7        0.0000 
     71 DU         29.1300    1.7400   50.4600 H         5 CUB7        0.0000 
     72 DU         29.7000    0.4200   50.8800 H         5 CUB7        0.0000 
     73 DU         27.6300    3.6800   53.2000 H         5 CUB7        0.0000 
     74 DU         28.1900    2.3500   53.6200 H         5 CUB7        0.0000 
     75 DU         28.5900    3.7200   52.0500 H         5 CUB7        0.0000 
     76 DU         29.7300    1.0800   52.9000 H         5 CUB7        0.0000 
     77 DU         30.2900   -0.2400   53.3200 H         5 CUB7        0.0000 
     78 DU         30.1300    2.4500   51.3300 H         5 CUB7        0.0000 
     79 DU         30.7000    1.1300   51.7500 H         5 CUB7        0.0000 
     80 DU         31.2600   -0.2000   52.1800 H         5 CUB7        0.0000 
     81 DU         30.1600    3.1100   53.3500 H         5 CUB7        0.0000 
@<TRIPOS>BOND
@<TRIPOS>SUBSTRUCTURE
     1 ALA2        1 GROUP   
     2 ASP3        7 GROUP   
     3 PHE5       31 GROUP   
     4 GLY6       41 GROUP   
     5 CUB7       61 GROUP   
@<TRIPOS>SET

