#    Name: 6f3j_1_IMP
#    Modification time : Fri May 22 19:38:18 2020

@<TRIPOS>MOLECULE
6f3j_1_IMP
   23    25     1     0     0
SMALL
NO_CHARGES


@<TRIPOS>ATOM
      1 P          30.9160    2.5810   51.4610 P.3       1 IMP902      0.0000 
      2 O1P        31.4720    1.8850   50.2440 O.co2     1 IMP902      0.0000 
      3 O2P        31.6680    2.2500   52.7280 O.co2     1 IMP902      0.0000 
      4 O3P        30.6090    4.0520   51.2950 O.co2     1 IMP902      0.0000 
      5 O5'        29.4740    1.8940   51.6340 O.3       1 IMP902      0.0000 
      6 C5'        29.4890    0.5510   52.0800 C.3       1 IMP902      0.0000 
      7 C4'        28.2050   -0.2150   51.8180 C.3       1 IMP902      0.0000 
      8 O4'        28.5870   -1.5620   51.5150 O.3       1 IMP902      0.0000 
      9 C3'        27.2640   -0.2660   53.0190 C.3       1 IMP902      0.0000 
     10 O3'        26.0670    0.4820   52.7740 O.3       1 IMP902      0.0000 
     11 C2'        27.0110   -1.7500   53.2450 C.3       1 IMP902      0.0000 
     12 O2'        25.7610   -2.1770   52.6930 O.3       1 IMP902      0.0000 
     13 C1'        28.1650   -2.4570   52.5440 C.3       1 IMP902      0.0000 
     14 N9         29.2600   -2.7740   53.5130 N.pl3     1 IMP902      0.0000 
     15 C8         30.4620   -2.1650   53.6780 C.2       1 IMP902      0.0000 
     16 N7         31.1850   -2.7400   54.6680 N.2       1 IMP902      0.0000 
     17 C5         30.4500   -3.7440   55.1640 C.2       1 IMP902      0.0000 
     18 C6         30.6150   -4.7650   56.2280 C.2       1 IMP902      0.0000 
     19 O6         31.6590   -4.8110   56.9130 O.2       1 IMP902      0.0000 
     20 N1         29.6100   -5.6370   56.4290 N.am      1 IMP902      0.0000 
     21 C2         28.4710   -5.6060   55.6970 C.2       1 IMP902      0.0000 
     22 N3         28.2530   -4.7050   54.7120 N.2       1 IMP902      0.0000 
     23 C4         29.1880   -3.7670   54.4020 C.2       1 IMP902      0.0000 
@<TRIPOS>BOND
     1    1    2 ar   
     2    1    3 ar   
     3    1    4 ar   
     4    1    5 1    
     5    5    6 1    
     6    6    7 1    
     7    7    8 1    
     8    7    9 1    
     9    8   13 1    
    10    9   10 1    
    11    9   11 1    
    12   11   12 1    
    13   11   13 1    
    14   13   14 1    
    15   14   15 1    
    16   14   23 1    
    17   15   16 2    
    18   16   17 1    
    19   17   18 1    
    20   17   23 2    
    21   18   19 2    
    22   18   20 am   
    23   20   21 1    
    24   21   22 2    
    25   22   23 1    
@<TRIPOS>SUBSTRUCTURE
     1 IMP902      1 GROUP   
@<TRIPOS>SET

