#    Name: 6hsf_1_DMF_CAVITY_N1_8
#    Modification time : Fri May 22 19:23:59 2020

@<TRIPOS>MOLECULE
6hsf_1_DMF_CAVITY_N1_8
   24     0     4     0     0
SMALL
NO_CHARGES


@<TRIPOS>ATOM
      1 N          67.8800   43.8200   75.5700 N.am      1 ALA2        0.0000 
      2 O          67.0400   43.6900   78.0300 O.2       1 ALA2        0.0000 
      3 O          68.3700   43.1900   77.5400 O.2       1 ALA2        0.0000 
      4 N          68.5600   44.4500   76.7600 N.am      1 ALA2        0.0000 
      5 O          67.5200   43.0500   79.9900 O.2       1 ALA2        0.0000 
      6 O          69.0400   43.8200   78.7200 O.2       1 ALA2        0.0000 
      7 N          69.2300   45.0800   77.9400 N.am      1 ALA2        0.0000 
      8 N          70.5600   44.5800   77.4500 N.am      1 ALA2        0.0000 
      9 O          69.7100   44.4400   79.9000 O.2       1 ALA2        0.0000 
     10 NZ         65.0400   43.5600   77.3300 N.4       2 LYS4        0.0000 
     11 NZ         66.3700   43.0600   76.8400 N.4       2 LYS4        0.0000 
     12 NZ         66.5600   44.3200   76.0600 N.4       2 LYS4        0.0000 
     13 CA         66.8500   42.4200   78.8100 C.3       3 GLY6        0.0000 
     14 CA         65.7100   44.1900   78.5100 C.3       3 GLY6        0.0000 
     15 CA         66.0100   42.2900   81.2600 C.3       3 GLY6        0.0000 
     16 CA         64.8700   44.0500   80.9700 C.3       3 GLY6        0.0000 
     17 CA         66.2000   43.5500   80.4800 C.3       3 GLY6        0.0000 
     18 CA         68.0100   42.4100   81.9600 C.3       3 GLY6        0.0000 
     19 CA         66.8700   44.1800   81.6600 C.3       3 GLY6        0.0000 
     20 CA         71.0400   43.9400   79.4200 C.3       3 GLY6        0.0000 
     21 CA         70.2000   43.8100   81.8700 C.3       3 GLY6        0.0000 
     22 DU         67.2300   44.9500   77.2400 H         4 CUB7        0.0000 
     23 DU         66.3900   44.8200   79.7000 H         4 CUB7        0.0000 
     24 DU         67.7100   44.3200   79.2100 H         4 CUB7        0.0000 
@<TRIPOS>BOND
@<TRIPOS>SUBSTRUCTURE
     1 ALA2        1 GROUP   
     2 LYS4       10 GROUP   
     3 GLY6       13 GROUP   
     4 CUB7       22 GROUP   
@<TRIPOS>SET

