#    Name: 6hsf_1_DMF
#    Modification time : Fri May 22 19:23:59 2020

@<TRIPOS>MOLECULE
6hsf_1_DMF
    5     4     1     0     0
SMALL
NO_CHARGES


@<TRIPOS>ATOM
      1 C1         68.9250   37.6080   77.5040 C.3       1 DMF505      0.0000 
      2 C2         67.8160   36.7750   79.6570 C.3       1 DMF505      0.0000 
      3 C          70.1440   36.3150   79.1710 C.2       1 DMF505      0.0000 
      4 O          70.1770   35.5570   80.1440 O.2       1 DMF505      0.0000 
      5 N          68.9990   36.8850   78.7900 N.am      1 DMF505      0.0000 
@<TRIPOS>BOND
     1    1    5 1    
     2    2    5 1    
     3    3    4 2    
     4    3    5 am   
@<TRIPOS>SUBSTRUCTURE
     1 DMF505      1 GROUP   
@<TRIPOS>SET

