#    Name: 6ag4_1_ACO
#    Modification time : Fri May 22 19:33:45 2020

@<TRIPOS>MOLECULE
6ag4_1_ACO
   51    53     1     0     1
SMALL
NO_CHARGES


@<TRIPOS>ATOM
      1 N1A       -27.9260   -7.0830   14.5780 N.ar      1 ACO201      0.0000 
      2 C2A       -28.8350   -7.3750   13.5880 C.ar      1 ACO201      0.0000 
      3 N3A       -28.7760   -6.7490   12.3850 N.ar      1 ACO201      0.0000 
      4 C4A       -27.7990   -5.8020   12.1620 C.ar      1 ACO201      0.0000 
      5 C5A       -26.9160   -5.5010   13.1350 C.ar      1 ACO201      0.0000 
      6 C6A       -26.9750   -6.1510   14.3670 C.ar      1 ACO201      0.0000 
      7 N6A       -26.2530   -6.0850   15.5290 N.pl3     1 ACO201      0.0000 
      8 N7A       -26.0770   -4.5470   12.6590 N.2       1 ACO201      0.0000 
      9 C8A       -26.4440   -4.2600   11.3960 C.2       1 ACO201      0.0000 
     10 N9A       -27.5090   -5.0390   11.0800 N.pl3     1 ACO201      0.0000 
     11 C1B       -28.1850   -4.9850    9.8310 C.3       1 ACO201      0.0000 
     12 C2B       -29.4260   -4.5350   10.0520 C.3       1 ACO201      0.0000 
     13 O2B       -30.3940   -5.1510    9.1390 O.3       1 ACO201      0.0000 
     14 C3B       -29.3490   -3.0250    9.7860 C.3       1 ACO201      0.0000 
     15 O3B       -30.5510   -2.5260    9.4090 O.3       1 ACO201      0.0000 
     16 P3B       -31.4200   -1.7310   10.5030 P.3       1 ACO201      0.0000 
     17 O7A       -32.0180   -0.5570    9.8690 O.co2     1 ACO201      0.0000 
     18 O8A       -32.5100   -2.6510   11.0500 O.co2     1 ACO201      0.0000 
     19 O9A       -30.5240   -1.2790   11.6690 O.co2     1 ACO201      0.0000 
     20 C4B       -28.2960   -2.9340    8.6260 C.3       1 ACO201      0.0000 
     21 O4B       -27.4410   -3.8850    8.9040 O.3       1 ACO201      0.0000 
     22 C5B       -27.6290   -1.5790    8.6010 C.3       1 ACO201      0.0000 
     23 O5B       -27.0150   -1.3240    9.8430 O.3       1 ACO201      0.0000 
     24 P1A       -25.8730   -0.2630   10.0010 P.3       1 ACO201      0.0000 
     25 O1A       -26.3360    0.7930   11.0010 O.co2     1 ACO201      0.0000 
     26 O2A       -25.5140    0.4050    8.6570 O.co2     1 ACO201      0.0000 
     27 O3A       -24.5950   -1.0400   10.5450 O.3       1 ACO201      0.0000 
     28 P2A       -23.6050   -0.4730   11.6810 P.3       1 ACO201      0.0000 
     29 O4A       -23.3090    0.9780   11.4080 O.co2     1 ACO201      0.0000 
     30 O5A       -24.2240   -0.6710   13.0240 O.co2     1 ACO201      0.0000 
     31 O6A       -22.2500   -1.3690   11.5870 O.3       1 ACO201      0.0000 
     32 CBP       -20.9980   -3.4480   11.5200 C.3       1 ACO201      0.0000 
     33 CCP       -22.3660   -2.7090   11.1570 C.3       1 ACO201      0.0000 
     34 CDP       -19.8350   -2.8910   10.5760 C.3       1 ACO201      0.0000 
     35 CEP       -21.2080   -4.9390   11.2350 C.3       1 ACO201      0.0000 
     36 CAP       -20.7430   -3.1790   12.9770 C.3       1 ACO201      0.0000 
     37 OAP       -21.6180   -3.9820   13.7770 O.3       1 ACO201      0.0000 
     38 C9P       -19.3120   -3.4730   13.4440 C.2       1 ACO201      0.0000 
     39 O9P       -18.4390   -2.6210   13.3470 O.2       1 ACO201      0.0000 
     40 N8P       -19.0480   -4.7140   14.0120 N.am      1 ACO201      0.0000 
     41 C7P       -17.7420   -5.0950   14.4900 C.3       1 ACO201      0.0000 
     42 C6P       -16.6670   -4.9980   13.3430 C.3       1 ACO201      0.0000 
     43 C5P       -17.0650   -5.9450   12.2150 C.2       1 ACO201      0.0000 
     44 O5P       -17.4180   -7.1060   12.5040 O.2       1 ACO201      0.0000 
     45 N4P       -17.0330   -5.4950   10.8230 N.am      1 ACO201      0.0000 
     46 C3P       -17.3980   -6.3890    9.7300 C.3       1 ACO201      0.0000 
     47 C2P       -16.2680   -7.4450    9.5160 C.3       1 ACO201      0.0000 
     48 S1P       -16.3980   -8.2040    7.9240 S.3       1 ACO201      0.0000 
     49 C         -15.0830   -7.5700    6.9160 C.2       1 ACO201      0.0000 
     50 O         -15.2700   -7.3390    5.7470 O.2       1 ACO201      0.0000 
     51 CH3       -13.8220   -7.0460    7.5780 C.3       1 ACO201      0.0000 
@<TRIPOS>BOND
     1    1    2 ar   
     2    1    6 ar   
     3    2    3 ar   
     4    3    4 ar   
     5    4    5 ar   
     6    4   10 1    
     7    5    6 ar   
     8    5    8 1    
     9    6    7 1    
    10    8    9 2    
    11    9   10 1    
    12   10   11 1    
    13   11   12 1    
    14   11   21 1    
    15   12   13 1    
    16   12   14 1    
    17   14   15 1    
    18   14   20 1    
    19   15   16 1    
    20   16   17 ar   
    21   16   18 ar   
    22   16   19 ar   
    23   20   21 1    
    24   20   22 1    
    25   22   23 1    
    26   23   24 1    
    27   24   25 ar   
    28   24   26 ar   
    29   24   27 1    
    30   27   28 1    
    31   28   29 ar   
    32   28   30 ar   
    33   28   31 1    
    34   31   33 1    
    35   32   33 1    
    36   32   34 1    
    37   32   35 1    
    38   32   36 1    
    39   36   37 1    
    40   36   38 1    
    41   38   39 2    
    42   38   40 am   
    43   40   41 1    
    44   41   42 1    
    45   42   43 1    
    46   43   44 2    
    47   43   45 am   
    48   45   46 1    
    49   46   47 1    
    50   47   48 1    
    51   48   49 1    
    52   49   50 2    
    53   49   51 1    
@<TRIPOS>SUBSTRUCTURE
     1 ACO201      1 GROUP   
@<TRIPOS>SET
ATOM$ORANGE STATIC     ATOMS   COLORGROUP SYSTEM 
46 2 2 4 4 5 5 6 6 9 9 11 11 12 12 14 14 20 \
20 22 22 32 32 33 33 34 34 35 35 36 36 38 38 41 41 42 \
42 43 43 46 46 47 47 49 49 51 51 

