#    Name: 6cia_1_NDP
#    Modification time : Fri May 22 19:35:35 2020

@<TRIPOS>MOLECULE
6cia_1_NDP
   48    52     1     0     1
SMALL
NO_CHARGES


@<TRIPOS>ATOM
      1 PA         28.0220    9.1760   28.0620 P.3       1 NDP301      0.0000 
      2 O1A        27.2890    8.0020   27.5060 O.co2     1 NDP301      0.0000 
      3 O2A        28.7060    8.9400   29.3960 O.co2     1 NDP301      0.0000 
      4 O5B        26.9800   10.3770   28.2670 O.3       1 NDP301      0.0000 
      5 C5B        27.3440   11.6550   28.8240 C.3       1 NDP301      0.0000 
      6 C4B        26.1030   12.5020   28.7300 C.3       1 NDP301      0.0000 
      7 O4B        25.0350   11.8930   29.4970 O.3       1 NDP301      0.0000 
      8 C3B        26.2510   13.9340   29.2370 C.3       1 NDP301      0.0000 
      9 O3B        25.5870   14.8190   28.3390 O.3       1 NDP301      0.0000 
     10 C2B        25.5750   13.8780   30.6030 C.3       1 NDP301      0.0000 
     11 O2B        25.0650   15.1750   30.9720 O.3       1 NDP301      0.0000 
     12 C1B        24.4770   12.8410   30.3890 C.3       1 NDP301      0.0000 
     13 N9A        24.0760   12.1300   31.6020 N.pl3     1 NDP301      0.0000 
     14 C8A        24.8970   11.4450   32.4600 C.2       1 NDP301      0.0000 
     15 N7A        24.2650   10.7990   33.4090 N.2       1 NDP301      0.0000 
     16 C5A        22.9300   11.0770   33.1600 C.ar      1 NDP301      0.0000 
     17 C6A        21.7410   10.6570   33.7870 C.ar      1 NDP301      0.0000 
     18 N6A        21.7070    9.8090   34.8180 N.pl3     1 NDP301      0.0000 
     19 N1A        20.5700   11.1110   33.2840 N.ar      1 NDP301      0.0000 
     20 C2A        20.5970   11.9240   32.2230 C.ar      1 NDP301      0.0000 
     21 N3A        21.6550   12.3760   31.5420 N.ar      1 NDP301      0.0000 
     22 C4A        22.7980   11.9100   32.0590 C.ar      1 NDP301      0.0000 
     23 O3         29.1040    9.7870   27.0680 O.3       1 NDP301      0.0000 
     24 PN         30.6630   10.1160   27.0620 P.3       1 NDP301      0.0000 
     25 O1N        31.1000   10.4590   25.6910 O.co2     1 NDP301      0.0000 
     26 O2N        30.8990   11.2040   28.0760 O.co2     1 NDP301      0.0000 
     27 O5D        31.4500    8.7860   27.5520 O.3       1 NDP301      0.0000 
     28 C5D        31.7710    8.4250   28.9070 C.3       1 NDP301      0.0000 
     29 C4D        33.2410    8.6250   29.1920 C.3       1 NDP301      0.0000 
     30 O4D        34.0230    7.7040   28.4070 O.3       1 NDP301      0.0000 
     31 C3D        33.8530    9.9840   28.8880 C.3       1 NDP301      0.0000 
     32 O3D        33.5840   10.9680   29.8770 O.3       1 NDP301      0.0000 
     33 C2D        35.3410    9.6340   28.8280 C.3       1 NDP301      0.0000 
     34 O2D        35.8980    9.5280   30.1360 O.3       1 NDP301      0.0000 
     35 C1D        35.3000    8.2610   28.1390 C.3       1 NDP301      0.0000 
     36 N1N        35.5070    8.2830   26.6860 N.pl3     1 NDP301      0.0000 
     37 C2N        36.6290    7.6280   26.0800 C.2       1 NDP301      0.0000 
     38 C3N        36.8480    7.6210   24.7470 C.2       1 NDP301      0.0000 
     39 C7N        37.9500    6.8190   24.1320 C.2       1 NDP301      0.0000 
     40 O7N        38.2060    6.9660   22.9220 O.2       1 NDP301      0.0000 
     41 N7N        38.6080    5.9320   24.8800 N.am      1 NDP301      0.0000 
     42 C4N        35.9560    8.3860   23.8370 C.3       1 NDP301      0.0000 
     43 C5N        34.7690    8.9500   24.5200 C.2       1 NDP301      0.0000 
     44 C6N        34.6170    8.8780   25.8340 C.2       1 NDP301      0.0000 
     45 P2B        25.6720   16.0210   32.2070 P.3       1 NDP301      0.0000 
     46 O1X        25.0870   15.3950   33.4240 O.co2     1 NDP301      0.0000 
     47 O2X        25.3000   17.4970   31.9540 O.co2     1 NDP301      0.0000 
     48 O3X        27.1870   15.9630   32.1620 O.co2     1 NDP301      0.0000 
@<TRIPOS>BOND
     1    1    2 ar   
     2    1    3 ar   
     3    1    4 1    
     4    1   23 1    
     5    4    5 1    
     6    5    6 1    
     7    6    7 1    
     8    6    8 1    
     9    7   12 1    
    10    8    9 1    
    11    8   10 1    
    12   10   11 1    
    13   10   12 1    
    14   11   45 1    
    15   12   13 1    
    16   13   14 1    
    17   13   22 1    
    18   14   15 2    
    19   15   16 1    
    20   16   17 ar   
    21   16   22 ar   
    22   17   18 1    
    23   17   19 ar   
    24   19   20 ar   
    25   20   21 ar   
    26   21   22 ar   
    27   23   24 1    
    28   24   25 ar   
    29   24   26 ar   
    30   24   27 1    
    31   27   28 1    
    32   28   29 1    
    33   29   30 1    
    34   29   31 1    
    35   30   35 1    
    36   31   32 1    
    37   31   33 1    
    38   33   34 1    
    39   33   35 1    
    40   35   36 1    
    41   36   37 1    
    42   36   44 1    
    43   37   38 2    
    44   38   39 1    
    45   38   42 1    
    46   39   40 2    
    47   39   41 am   
    48   42   43 1    
    49   43   44 2    
    50   45   46 ar   
    51   45   47 ar   
    52   45   48 ar   
@<TRIPOS>SUBSTRUCTURE
     1 NDP301      1 GROUP   
@<TRIPOS>SET
ATOM$ORANGE STATIC     ATOMS   COLORGROUP SYSTEM 
42 5 5 6 6 8 8 10 10 12 12 14 14 16 16 17 17 20 \
20 22 22 28 28 29 29 31 31 33 33 35 35 37 37 38 38 39 \
39 42 42 43 43 44 44 

