#    Name: 5y9d_2_FAD
#    Modification time : Fri May 22 19:14:03 2020

@<TRIPOS>MOLECULE
5y9d_2_FAD
   53    58     1     0     1
SMALL
NO_CHARGES


@<TRIPOS>ATOM
      1 PA         45.5940   -5.7830   19.9060 P.3       1 FAD701      0.0000 
      2 O1A        45.4360   -7.1900   20.3160 O.co2     1 FAD701      0.0000 
      3 O2A        46.0970   -5.4390   18.5770 O.co2     1 FAD701      0.0000 
      4 O5B        46.5210   -5.1360   20.9910 O.3       1 FAD701      0.0000 
      5 C5B        46.5190   -5.5890   22.3280 C.3       1 FAD701      0.0000 
      6 C4B        47.5940   -4.8730   23.1160 C.3       1 FAD701      0.0000 
      7 O4B        48.8570   -5.4690   22.8560 O.3       1 FAD701      0.0000 
      8 C3B        47.6850   -3.4150   22.7210 C.3       1 FAD701      0.0000 
      9 O3B        47.8070   -2.6270   23.8890 O.3       1 FAD701      0.0000 
     10 C2B        48.9410   -3.3190   21.8930 C.3       1 FAD701      0.0000 
     11 O2B        49.6820   -2.1370   22.1540 O.3       1 FAD701      0.0000 
     12 C1B        49.7530   -4.5280   22.2870 C.3       1 FAD701      0.0000 
     13 N9A        50.4310   -5.0220   21.0750 N.pl3     1 FAD701      0.0000 
     14 C8A        49.8550   -5.5270   19.9880 C.2       1 FAD701      0.0000 
     15 N7A        50.7790   -5.8540   19.0720 N.2       1 FAD701      0.0000 
     16 C5A        51.9780   -5.5410   19.5690 C.ar      1 FAD701      0.0000 
     17 C6A        53.3900   -5.6130   19.1340 C.ar      1 FAD701      0.0000 
     18 N6A        53.7240   -6.1090   17.9400 N.pl3     1 FAD701      0.0000 
     19 N1A        54.3390   -5.1730   19.9620 N.ar      1 FAD701      0.0000 
     20 C2A        54.0320   -4.6810   21.1520 C.ar      1 FAD701      0.0000 
     21 N3A        52.7890   -4.5880   21.6070 N.ar      1 FAD701      0.0000 
     22 C4A        51.7360   -4.9890   20.8870 C.ar      1 FAD701      0.0000 
     23 N1         36.8970   -2.4440   14.0020 N.2       1 FAD701      0.0000 
     24 C2         36.2890   -2.4860   12.8190 C.2       1 FAD701      0.0000 
     25 O2         36.7610   -3.2030   11.9480 O.2       1 FAD701      0.0000 
     26 N3         35.1980   -1.7990   12.5470 N.am      1 FAD701      0.0000 
     27 C4         34.6460   -1.0090   13.4380 C.2       1 FAD701      0.0000 
     28 O4         33.6350   -0.3880   13.1480 O.2       1 FAD701      0.0000 
     29 C4X        35.2470   -0.8940   14.7660 C.2       1 FAD701      0.0000 
     30 N5         34.7350   -0.1080   15.7090 N.2       1 FAD701      0.0000 
     31 C5X        35.3110   -0.0350   16.9080 C.ar      1 FAD701      0.0000 
     32 C6         34.7420    0.7730   17.8560 C.ar      1 FAD701      0.0000 
     33 C7         35.3080    0.8670   19.0940 C.ar      1 FAD701      0.0000 
     34 C7M        34.6870    1.7590   20.1200 C.3       1 FAD701      0.0000 
     35 C8         36.5250    0.0950   19.4030 C.ar      1 FAD701      0.0000 
     36 C8M        37.1360    0.2040   20.7630 C.3       1 FAD701      0.0000 
     37 C9         37.1050   -0.7160   18.4520 C.ar      1 FAD701      0.0000 
     38 C9A        36.5290   -0.8100   17.2120 C.ar      1 FAD701      0.0000 
     39 N10        37.0890   -1.6260   16.2300 N.pl3     1 FAD701      0.0000 
     40 C10        36.4480   -1.6860   15.0000 C.2       1 FAD701      0.0000 
     41 C1'        38.2800   -2.4220   16.4870 C.3       1 FAD701      0.0000 
     42 C2'        39.4960   -1.5770   16.7660 C.3       1 FAD701      0.0000 
     43 O2'        40.0190   -1.2090   15.5120 O.3       1 FAD701      0.0000 
     44 C3'        40.5230   -2.4040   17.5110 C.3       1 FAD701      0.0000 
     45 O3'        40.2840   -2.2440   18.8920 O.3       1 FAD701      0.0000 
     46 C4'        41.9590   -1.9970   17.2230 C.3       1 FAD701      0.0000 
     47 O4'        42.1270   -1.7330   15.8360 O.3       1 FAD701      0.0000 
     48 C5'        42.9260   -3.1040   17.5680 C.3       1 FAD701      0.0000 
     49 O5'        42.7440   -3.4970   18.9070 O.3       1 FAD701      0.0000 
     50 P          42.9470   -4.9810   19.3170 P.3       1 FAD701      0.0000 
     51 O1P        41.8480   -5.3370   20.1990 O.co2     1 FAD701      0.0000 
     52 O2P        43.1950   -5.7580   18.1050 O.co2     1 FAD701      0.0000 
     53 O3P        44.2620   -4.9620   20.1770 O.3       1 FAD701      0.0000 
@<TRIPOS>BOND
     1    1    2 ar   
     2    1    3 ar   
     3    1    4 1    
     4    1   53 1    
     5    4    5 1    
     6    5    6 1    
     7    6    7 1    
     8    6    8 1    
     9    7   12 1    
    10    8    9 1    
    11    8   10 1    
    12   10   11 1    
    13   10   12 1    
    14   12   13 1    
    15   13   14 1    
    16   13   22 1    
    17   14   15 2    
    18   15   16 1    
    19   16   17 ar   
    20   16   22 ar   
    21   17   18 1    
    22   17   19 ar   
    23   19   20 ar   
    24   20   21 ar   
    25   21   22 ar   
    26   23   24 1    
    27   23   40 2    
    28   24   25 2    
    29   24   26 am   
    30   26   27 am   
    31   27   28 2    
    32   27   29 1    
    33   29   30 2    
    34   29   40 1    
    35   30   31 1    
    36   31   32 ar   
    37   31   38 ar   
    38   32   33 ar   
    39   33   34 1    
    40   33   35 ar   
    41   35   36 1    
    42   35   37 ar   
    43   37   38 ar   
    44   38   39 1    
    45   39   40 1    
    46   39   41 1    
    47   41   42 1    
    48   42   43 1    
    49   42   44 1    
    50   44   45 1    
    51   44   46 1    
    52   46   47 1    
    53   46   48 1    
    54   48   49 1    
    55   49   50 1    
    56   50   51 ar   
    57   50   52 ar   
    58   50   53 1    
@<TRIPOS>SUBSTRUCTURE
     1 FAD701      1 GROUP   
@<TRIPOS>SET
ATOM$ORANGE STATIC     ATOMS   COLORGROUP SYSTEM 
54 5 5 6 6 8 8 10 10 12 12 14 14 16 16 17 17 20 \
20 22 22 24 24 27 27 29 29 31 31 32 32 33 33 34 34 35 \
35 36 36 37 37 38 38 40 40 41 41 42 42 44 44 46 46 48 \
48 

