#    Name: 5y9d_1_FAD
#    Modification time : Fri May 22 19:13:39 2020

@<TRIPOS>MOLECULE
5y9d_1_FAD
   53    58     1     0     1
SMALL
NO_CHARGES


@<TRIPOS>ATOM
      1 PA         38.9940   24.0110   44.7230 P.3       1 FAD701      0.0000 
      2 O1A        38.0570   25.0350   44.2530 O.co2     1 FAD701      0.0000 
      3 O2A        39.6260   24.0960   46.0430 O.co2     1 FAD701      0.0000 
      4 O5B        40.1340   23.8890   43.6550 O.3       1 FAD701      0.0000 
      5 C5B        39.9490   24.0340   42.2600 C.3       1 FAD701      0.0000 
      6 C4B        41.2750   23.8520   41.5400 C.3       1 FAD701      0.0000 
      7 O4B        42.1630   24.8970   41.8950 O.3       1 FAD701      0.0000 
      8 C3B        41.9580   22.5700   41.9420 C.3       1 FAD701      0.0000 
      9 O3B        42.5220   21.9590   40.8000 O.3       1 FAD701      0.0000 
     10 C2B        43.0830   22.9790   42.8440 C.3       1 FAD701      0.0000 
     11 O2B        44.1910   22.1280   42.6440 O.3       1 FAD701      0.0000 
     12 C1B        43.3770   24.3910   42.4110 C.3       1 FAD701      0.0000 
     13 N9A        43.7970   25.1670   43.5820 N.pl3     1 FAD701      0.0000 
     14 C8A        43.0490   25.4580   44.6380 C.2       1 FAD701      0.0000 
     15 N7A        43.7390   26.1690   45.5290 N.2       1 FAD701      0.0000 
     16 C5A        44.9660   26.3450   45.0430 C.ar      1 FAD701      0.0000 
     17 C6A        46.2120   27.0060   45.4800 C.ar      1 FAD701      0.0000 
     18 N6A        46.2900   27.6490   46.6490 N.pl3     1 FAD701      0.0000 
     19 N1A        47.2630   26.9510   44.6670 N.ar      1 FAD701      0.0000 
     20 C2A        47.2060   26.3220   43.5070 C.ar      1 FAD701      0.0000 
     21 N3A        46.1270   25.7000   43.0470 N.ar      1 FAD701      0.0000 
     22 C4A        44.9950   25.6760   43.7580 C.ar      1 FAD701      0.0000 
     23 N1         32.4210   17.1540   50.2610 N.2       1 FAD701      0.0000 
     24 C2         31.8550   16.9070   51.4400 C.2       1 FAD701      0.0000 
     25 O2         32.0150   17.7140   52.3450 O.2       1 FAD701      0.0000 
     26 N3         31.1240   15.8280   51.6710 N.am      1 FAD701      0.0000 
     27 C4         30.9070   14.9110   50.7500 C.2       1 FAD701      0.0000 
     28 O4         30.2270   13.9230   50.9780 O.2       1 FAD701      0.0000 
     29 C4X        31.4960   15.1020   49.4300 C.2       1 FAD701      0.0000 
     30 N5         31.3160   14.2180   48.4630 N.2       1 FAD701      0.0000 
     31 C5X        31.8510   14.4230   47.2700 C.ar      1 FAD701      0.0000 
     32 C6         31.6220   13.5000   46.2900 C.ar      1 FAD701      0.0000 
     33 C7         32.1520   13.6780   45.0520 C.ar      1 FAD701      0.0000 
     34 C7M        31.9020   12.6330   44.0080 C.3       1 FAD701      0.0000 
     35 C8         32.9780   14.8740   44.7810 C.ar      1 FAD701      0.0000 
     36 C8M        33.5890   15.1170   43.4400 C.3       1 FAD701      0.0000 
     37 C9         33.2060   15.7990   45.7610 C.ar      1 FAD701      0.0000 
     38 C9A        32.6620   15.6200   46.9980 C.ar      1 FAD701      0.0000 
     39 N10        32.8740   16.5570   48.0060 N.pl3     1 FAD701      0.0000 
     40 C10        32.2880   16.3140   49.2370 C.2       1 FAD701      0.0000 
     41 C1'        33.6650   17.7600   47.7840 C.3       1 FAD701      0.0000 
     42 C2'        35.1370   17.4650   47.5500 C.3       1 FAD701      0.0000 
     43 O2'        35.7970   17.2320   48.7760 O.3       1 FAD701      0.0000 
     44 C3'        35.7600   18.6430   46.8400 C.3       1 FAD701      0.0000 
     45 O3'        35.6120   18.4190   45.4530 O.3       1 FAD701      0.0000 
     46 C4'        37.2380   18.7850   47.0970 C.3       1 FAD701      0.0000 
     47 O4'        37.4660   19.2100   48.4330 O.3       1 FAD701      0.0000 
     48 C5'        37.8470   19.7810   46.1240 C.3       1 FAD701      0.0000 
     49 O5'        37.3360   21.0640   46.3910 O.3       1 FAD701      0.0000 
     50 P          36.9910   22.1200   45.2810 P.3       1 FAD701      0.0000 
     51 O1P        36.2850   21.5000   44.1800 O.co2     1 FAD701      0.0000 
     52 O2P        36.3860   23.2250   46.0260 O.co2     1 FAD701      0.0000 
     53 O3P        38.3610   22.5690   44.6520 O.3       1 FAD701      0.0000 
@<TRIPOS>BOND
     1    1    2 ar   
     2    1    3 ar   
     3    1    4 1    
     4    1   53 1    
     5    4    5 1    
     6    5    6 1    
     7    6    7 1    
     8    6    8 1    
     9    7   12 1    
    10    8    9 1    
    11    8   10 1    
    12   10   11 1    
    13   10   12 1    
    14   12   13 1    
    15   13   14 1    
    16   13   22 1    
    17   14   15 2    
    18   15   16 1    
    19   16   17 ar   
    20   16   22 ar   
    21   17   18 1    
    22   17   19 ar   
    23   19   20 ar   
    24   20   21 ar   
    25   21   22 ar   
    26   23   24 1    
    27   23   40 2    
    28   24   25 2    
    29   24   26 am   
    30   26   27 am   
    31   27   28 2    
    32   27   29 1    
    33   29   30 2    
    34   29   40 1    
    35   30   31 1    
    36   31   32 ar   
    37   31   38 ar   
    38   32   33 ar   
    39   33   34 1    
    40   33   35 ar   
    41   35   36 1    
    42   35   37 ar   
    43   37   38 ar   
    44   38   39 1    
    45   39   40 1    
    46   39   41 1    
    47   41   42 1    
    48   42   43 1    
    49   42   44 1    
    50   44   45 1    
    51   44   46 1    
    52   46   47 1    
    53   46   48 1    
    54   48   49 1    
    55   49   50 1    
    56   50   51 ar   
    57   50   52 ar   
    58   50   53 1    
@<TRIPOS>SUBSTRUCTURE
     1 FAD701      1 GROUP   
@<TRIPOS>SET
ATOM$ORANGE STATIC     ATOMS   COLORGROUP SYSTEM 
54 5 5 6 6 8 8 10 10 12 12 14 14 16 16 17 17 20 \
20 22 22 24 24 27 27 29 29 31 31 32 32 33 33 34 34 35 \
35 36 36 37 37 38 38 40 40 41 41 42 42 44 44 46 46 48 \
48 

