#    Name: 6jdk_2_FAD
#    Modification time : Fri May 22 19:35:00 2020

@<TRIPOS>MOLECULE
6jdk_2_FAD
   53    58     1     0     1
SMALL
NO_CHARGES


@<TRIPOS>ATOM
      1 PA          4.8010   89.0760  181.5240 P.3       1 FAD601      0.0000 
      2 O1A         4.0420   90.3210  181.4010 O.co2     1 FAD601      0.0000 
      3 O2A         5.2910   88.4800  180.3040 O.co2     1 FAD601      0.0000 
      4 O5B         3.9670   88.0500  182.3010 O.3       1 FAD601      0.0000 
      5 C5B         3.6660   88.1880  183.6440 C.3       1 FAD601      0.0000 
      6 C4B         3.1470   86.8680  184.1240 C.3       1 FAD601      0.0000 
      7 O4B         2.6610   86.9910  185.4280 O.3       1 FAD601      0.0000 
      8 C3B         2.0030   86.3920  183.2860 C.3       1 FAD601      0.0000 
      9 O3B         2.3570   85.1180  182.8390 O.3       1 FAD601      0.0000 
     10 C2B         0.8610   86.3460  184.2550 C.3       1 FAD601      0.0000 
     11 O2B        -0.0440   85.3010  184.0410 O.3       1 FAD601      0.0000 
     12 C1B         1.5550   86.1690  185.5620 C.3       1 FAD601      0.0000 
     13 N9A         0.7020   86.6610  186.6370 N.pl3     1 FAD601      0.0000 
     14 C8A         0.1630   87.8620  186.7130 C.2       1 FAD601      0.0000 
     15 N7A        -0.5760   87.9820  187.8040 N.2       1 FAD601      0.0000 
     16 C5A        -0.5080   86.8440  188.4370 C.ar      1 FAD601      0.0000 
     17 C6A        -1.0350   86.3200  189.6620 C.ar      1 FAD601      0.0000 
     18 N6A        -1.7990   87.0900  190.4010 N.pl3     1 FAD601      0.0000 
     19 N1A        -0.7620   85.0750  190.0120 N.ar      1 FAD601      0.0000 
     20 C2A         0.0130   84.3290  189.2540 C.ar      1 FAD601      0.0000 
     21 N3A         0.5530   84.7470  188.1320 N.ar      1 FAD601      0.0000 
     22 C4A         0.3250   85.9680  187.6780 C.ar      1 FAD601      0.0000 
     23 N1          7.9280   94.5190  175.8950 N.2       1 FAD601      0.0000 
     24 C2          9.0760   94.4120  175.2590 C.2       1 FAD601      0.0000 
     25 O2         10.0870   94.7870  175.7970 O.2       1 FAD601      0.0000 
     26 N3          9.1890   93.9400  174.0540 N.am      1 FAD601      0.0000 
     27 C4          8.1500   93.5280  173.3820 C.2       1 FAD601      0.0000 
     28 O4          8.3080   93.0950  172.2600 O.2       1 FAD601      0.0000 
     29 C4X         6.8310   93.5870  174.0110 C.2       1 FAD601      0.0000 
     30 N5          5.7310   93.1930  173.3810 N.2       1 FAD601      0.0000 
     31 C5X         4.5620   93.2570  174.0120 C.ar      1 FAD601      0.0000 
     32 C6          3.4190   92.8330  173.4010 C.ar      1 FAD601      0.0000 
     33 C7          2.2190   92.9210  174.0450 C.ar      1 FAD601      0.0000 
     34 C7M         0.9850   92.4700  173.3800 C.3       1 FAD601      0.0000 
     35 C8          2.1330   93.4570  175.3770 C.ar      1 FAD601      0.0000 
     36 C8M         0.8300   93.5410  176.0750 C.3       1 FAD601      0.0000 
     37 C9          3.2570   93.8730  175.9890 C.ar      1 FAD601      0.0000 
     38 C9A         4.4580   93.7880  175.3610 C.ar      1 FAD601      0.0000 
     39 N10         5.5770   94.2260  176.0120 N.pl3     1 FAD601      0.0000 
     40 C10         6.7890   94.1350  175.3540 C.2       1 FAD601      0.0000 
     41 C1'         5.4060   94.7360  177.3580 C.3       1 FAD601      0.0000 
     42 C2'         5.6160   93.5760  178.2850 C.3       1 FAD601      0.0000 
     43 O2'         4.6360   93.6580  179.2720 O.3       1 FAD601      0.0000 
     44 C3'         6.9690   93.6610  178.9150 C.3       1 FAD601      0.0000 
     45 O3'         7.8900   93.8820  177.8690 O.3       1 FAD601      0.0000 
     46 C4'         7.4460   92.4110  179.5850 C.3       1 FAD601      0.0000 
     47 O4'         7.6680   91.3310  178.6110 O.3       1 FAD601      0.0000 
     48 C5'         6.5670   92.0780  180.7760 C.3       1 FAD601      0.0000 
     49 O5'         7.3810   91.4780  181.7830 O.3       1 FAD601      0.0000 
     50 P           7.4550   89.9290  182.0520 P.3       1 FAD601      0.0000 
     51 O1P         8.1020   89.3860  180.9080 O.co2     1 FAD601      0.0000 
     52 O2P         8.1320   89.6370  183.2400 O.co2     1 FAD601      0.0000 
     53 O3P         6.0530   89.3320  182.4220 O.3       1 FAD601      0.0000 
@<TRIPOS>BOND
     1    1    2 ar   
     2    1    3 ar   
     3    1    4 1    
     4    1   53 1    
     5    4    5 1    
     6    5    6 1    
     7    6    7 1    
     8    6    8 1    
     9    7   12 1    
    10    8    9 1    
    11    8   10 1    
    12   10   11 1    
    13   10   12 1    
    14   12   13 1    
    15   13   14 1    
    16   13   22 1    
    17   14   15 2    
    18   15   16 1    
    19   16   17 ar   
    20   16   22 ar   
    21   17   18 1    
    22   17   19 ar   
    23   19   20 ar   
    24   20   21 ar   
    25   21   22 ar   
    26   23   24 1    
    27   23   40 2    
    28   24   25 2    
    29   24   26 am   
    30   26   27 am   
    31   27   28 2    
    32   27   29 1    
    33   29   30 2    
    34   29   40 1    
    35   30   31 1    
    36   31   32 ar   
    37   31   38 ar   
    38   32   33 ar   
    39   33   34 1    
    40   33   35 ar   
    41   35   36 1    
    42   35   37 ar   
    43   37   38 ar   
    44   38   39 1    
    45   39   40 1    
    46   39   41 1    
    47   41   42 1    
    48   42   43 1    
    49   42   44 1    
    50   44   45 1    
    51   44   46 1    
    52   46   47 1    
    53   46   48 1    
    54   48   49 1    
    55   49   50 1    
    56   50   51 ar   
    57   50   52 ar   
    58   50   53 1    
@<TRIPOS>SUBSTRUCTURE
     1 FAD601      1 GROUP   
@<TRIPOS>SET
ATOM$ORANGE STATIC     ATOMS   COLORGROUP SYSTEM 
54 5 5 6 6 8 8 10 10 12 12 14 14 16 16 17 17 20 \
20 22 22 24 24 27 27 29 29 31 31 32 32 33 33 34 34 35 \
35 36 36 37 37 38 38 40 40 41 41 42 42 44 44 46 46 48 \
48 

