#    Name: 6jdk_1_FAD
#    Modification time : Fri May 22 19:34:54 2020

@<TRIPOS>MOLECULE
6jdk_1_FAD
   53    58     1     0     1
SMALL
NO_CHARGES


@<TRIPOS>ATOM
      1 PA         -0.1110  112.8130  234.2360 P.3       1 FAD601      0.0000 
      2 O1A        -0.9090  111.6150  234.2320 O.co2     1 FAD601      0.0000 
      3 O2A         0.2670  113.4160  235.4760 O.co2     1 FAD601      0.0000 
      4 O5B        -0.7390  113.8820  233.3320 O.3       1 FAD601      0.0000 
      5 C5B        -0.8610  113.7900  231.9460 C.3       1 FAD601      0.0000 
      6 C4B        -1.3910  115.0860  231.4060 C.3       1 FAD601      0.0000 
      7 O4B        -1.5640  115.0230  230.0230 O.3       1 FAD601      0.0000 
      8 C3B        -2.7590  115.4050  231.9400 C.3       1 FAD601      0.0000 
      9 O3B        -2.6620  116.5290  232.7330 O.3       1 FAD601      0.0000 
     10 C2B        -3.6060  115.6560  230.7310 C.3       1 FAD601      0.0000 
     11 O2B        -4.5730  116.6830  230.8510 O.3       1 FAD601      0.0000 
     12 C1B        -2.5940  115.9090  229.6650 C.3       1 FAD601      0.0000 
     13 N9A        -3.1910  115.4950  228.4100 N.pl3     1 FAD601      0.0000 
     14 C8A        -3.7360  114.3190  228.2570 C.2       1 FAD601      0.0000 
     15 N7A        -4.1960  114.1510  227.0480 N.2       1 FAD601      0.0000 
     16 C5A        -3.9590  115.2510  226.4040 C.ar      1 FAD601      0.0000 
     17 C6A        -4.2060  115.7210  225.0610 C.ar      1 FAD601      0.0000 
     18 N6A        -4.8210  114.9230  224.2130 N.pl3     1 FAD601      0.0000 
     19 N1A        -3.8050  116.9330  224.7310 N.ar      1 FAD601      0.0000 
     20 C2A        -3.1950  117.7040  225.5980 C.ar      1 FAD601      0.0000 
     21 N3A        -2.9390  117.3300  226.8340 N.ar      1 FAD601      0.0000 
     22 C4A        -3.2930  116.1460  227.2970 C.ar      1 FAD601      0.0000 
     23 N1          1.8760  107.5510  240.4910 N.2       1 FAD601      0.0000 
     24 C2          2.9040  107.5820  241.3070 C.2       1 FAD601      0.0000 
     25 O2          3.9980  107.2480  240.9150 O.2       1 FAD601      0.0000 
     26 N3          2.7920  107.9630  242.5450 N.am      1 FAD601      0.0000 
     27 C4          1.6630  108.3420  243.0570 C.2       1 FAD601      0.0000 
     28 O4          1.6250  108.6780  244.2160 O.2       1 FAD601      0.0000 
     29 C4X         0.4800  108.3580  242.2060 C.2       1 FAD601      0.0000 
     30 N5         -0.6990  108.7340  242.6660 N.2       1 FAD601      0.0000 
     31 C5X        -1.7180  108.7340  241.8560 C.ar      1 FAD601      0.0000 
     32 C6         -2.8960  109.1340  242.3570 C.ar      1 FAD601      0.0000 
     33 C7         -3.9850  109.1500  241.5530 C.ar      1 FAD601      0.0000 
     34 C7M        -5.2980  109.5830  242.0820 C.3       1 FAD601      0.0000 
     35 C8         -3.9070  108.7310  240.1750 C.ar      1 FAD601      0.0000 
     36 C8M        -5.1460  108.7650  239.3630 C.3       1 FAD601      0.0000 
     37 C9         -2.7150  108.3290  239.6660 C.ar      1 FAD601      0.0000 
     38 C9A        -1.6210  108.3220  240.4680 C.ar      1 FAD601      0.0000 
     39 N10        -0.4300  107.9100  239.9480 N.pl3     1 FAD601      0.0000 
     40 C10         0.6540  107.9250  240.8360 C.2       1 FAD601      0.0000 
     41 C1'        -0.3940  107.5090  238.5330 C.3       1 FAD601      0.0000 
     42 C2'         0.0730  108.6650  237.6420 C.3       1 FAD601      0.0000 
     43 O2'        -0.5450  108.6790  236.3820 O.3       1 FAD601      0.0000 
     44 C3'         1.5630  108.6400  237.4090 C.3       1 FAD601      0.0000 
     45 O3'         2.1390  108.4000  238.6390 O.3       1 FAD601      0.0000 
     46 C4'         2.3110  109.9150  237.0150 C.3       1 FAD601      0.0000 
     47 O4'         2.3970  110.9950  238.0270 O.3       1 FAD601      0.0000 
     48 C5'         1.9350  110.3500  235.6110 C.3       1 FAD601      0.0000 
     49 O5'         2.5670  111.5910  235.3990 O.3       1 FAD601      0.0000 
     50 P           2.6310  112.0840  233.9740 P.3       1 FAD601      0.0000 
     51 O1P         3.4150  113.2270  233.8220 O.co2     1 FAD601      0.0000 
     52 O2P         3.1190  110.9620  233.2780 O.co2     1 FAD601      0.0000 
     53 O3P         1.1790  112.4020  233.4790 O.3       1 FAD601      0.0000 
@<TRIPOS>BOND
     1    1    2 ar   
     2    1    3 ar   
     3    1    4 1    
     4    1   53 1    
     5    4    5 1    
     6    5    6 1    
     7    6    7 1    
     8    6    8 1    
     9    7   12 1    
    10    8    9 1    
    11    8   10 1    
    12   10   11 1    
    13   10   12 1    
    14   12   13 1    
    15   13   14 1    
    16   13   22 1    
    17   14   15 2    
    18   15   16 1    
    19   16   17 ar   
    20   16   22 ar   
    21   17   18 1    
    22   17   19 ar   
    23   19   20 ar   
    24   20   21 ar   
    25   21   22 ar   
    26   23   24 1    
    27   23   40 2    
    28   24   25 2    
    29   24   26 am   
    30   26   27 am   
    31   27   28 2    
    32   27   29 1    
    33   29   30 2    
    34   29   40 1    
    35   30   31 1    
    36   31   32 ar   
    37   31   38 ar   
    38   32   33 ar   
    39   33   34 1    
    40   33   35 ar   
    41   35   36 1    
    42   35   37 ar   
    43   37   38 ar   
    44   38   39 1    
    45   39   40 1    
    46   39   41 1    
    47   41   42 1    
    48   42   43 1    
    49   42   44 1    
    50   44   45 1    
    51   44   46 1    
    52   46   47 1    
    53   46   48 1    
    54   48   49 1    
    55   49   50 1    
    56   50   51 ar   
    57   50   52 ar   
    58   50   53 1    
@<TRIPOS>SUBSTRUCTURE
     1 FAD601      1 GROUP   
@<TRIPOS>SET
ATOM$ORANGE STATIC     ATOMS   COLORGROUP SYSTEM 
54 5 5 6 6 8 8 10 10 12 12 14 14 16 16 17 17 20 \
20 22 22 24 24 27 27 29 29 31 31 32 32 33 33 34 34 35 \
35 36 36 37 37 38 38 40 40 41 41 42 42 44 44 46 46 48 \
48 

