#    Name: 6m88_1_MYC
#    Modification time : Fri May 22 19:27:19 2020

@<TRIPOS>MOLECULE
6m88_1_MYC
   23    25     1     0     0
SMALL
NO_CHARGES


@<TRIPOS>ATOM
      1 C1          7.2280   24.7200   21.8900 C.ar      1 MYC501      0.0000 
      2 C2          6.2850   25.7450   21.7950 C.ar      1 MYC501      0.0000 
      3 C3          5.8140   26.3820   23.0290 C.ar      1 MYC501      0.0000 
      4 C4          6.3330   25.8920   24.3140 C.ar      1 MYC501      0.0000 
      5 C5          7.2510   24.8590   24.3310 C.ar      1 MYC501      0.0000 
      6 C6          7.7010   24.2890   23.1380 C.ar      1 MYC501      0.0000 
      7 C9          4.8220   27.4650   23.0280 C.2       1 MYC501      0.0000 
      8 C10         4.4090   28.0440   24.3170 C.2       1 MYC501      0.0000 
      9 C11         5.0150   27.5000   25.5710 C.2       1 MYC501      0.0000 
     10 C14         4.6630   27.9460   26.9450 C.ar      1 MYC501      0.0000 
     11 C15         4.9640   27.0280   27.9670 C.ar      1 MYC501      0.0000 
     12 C16         4.6640   27.2870   29.2880 C.ar      1 MYC501      0.0000 
     13 C17         3.9970   28.5670   29.6280 C.ar      1 MYC501      0.0000 
     14 C18         3.6860   29.4990   28.5270 C.ar      1 MYC501      0.0000 
     15 C19         4.0150   29.1570   27.2260 C.ar      1 MYC501      0.0000 
     16 O12         5.9140   26.4660   25.4790 O.3       1 MYC501      0.0000 
     17 O13         4.3610   27.8910   21.9640 O.2       1 MYC501      0.0000 
     18 O23         3.0710   30.6800   28.7940 O.3       1 MYC501      0.0000 
     19 O24         3.6740   28.9010   30.8980 O.3       1 MYC501      0.0000 
     20 O25         4.9980   26.3570   30.2150 O.3       1 MYC501      0.0000 
     21 O27         3.5220   29.0570   24.2800 O.co2     1 MYC501      0.0000 
     22 O29         8.6300   23.2930   23.2070 O.3       1 MYC501      0.0000 
     23 O30         5.7940   26.1850   20.6150 O.co2     1 MYC501      0.0000 
@<TRIPOS>BOND
     1    1    2 ar   
     2    1    6 ar   
     3    2    3 ar   
     4    2   23 ar   
     5    3    4 ar   
     6    3    7 1    
     7    4    5 ar   
     8    4   16 1    
     9    5    6 ar   
    10    6   22 1    
    11    7    8 1    
    12    7   17 2    
    13    8    9 2    
    14    8   21 ar   
    15    9   10 1    
    16    9   16 1    
    17   10   11 ar   
    18   10   15 ar   
    19   11   12 ar   
    20   12   13 ar   
    21   12   20 1    
    22   13   14 ar   
    23   13   19 1    
    24   14   15 ar   
    25   14   18 1    
@<TRIPOS>SUBSTRUCTURE
     1 MYC501      1 GROUP   
@<TRIPOS>SET

