#    Name: 6dif_1_TPV
#    Modification time : Fri May 22 19:36:36 2020

@<TRIPOS>MOLECULE
6dif_1_TPV
   42    45     1     0     0
SMALL
NO_CHARGES


@<TRIPOS>ATOM
      1 O1         13.2680   21.8760   62.6890 O.3       1 TPV201      0.0000 
      2 C2         12.1410   21.1770   62.9140 C.2       1 TPV201      0.0000 
      3 C3         12.1300   19.8970   63.5140 C.2       1 TPV201      0.0000 
      4 C4         13.4000   19.3900   63.7750 C.2       1 TPV201      0.0000 
      5 C5         14.6030   20.0160   63.3880 C.3       1 TPV201      0.0000 
      6 C6         14.5170   21.5300   63.2800 C.3       1 TPV201      0.0000 
      7 O7         11.1090   21.7810   62.5170 O.2       1 TPV201      0.0000 
      8 O8         13.5090   18.1540   64.3600 O.co2     1 TPV201      0.0000 
      9 C9         14.5820   22.0280   64.7430 C.3       1 TPV201      0.0000 
     10 C10        14.5990   23.5340   64.9410 C.3       1 TPV201      0.0000 
     11 C11        14.6490   23.8300   66.4670 C.3       1 TPV201      0.0000 
     12 C12        15.6050   22.1730   62.4310 C.3       1 TPV201      0.0000 
     13 C13        15.6510   21.7910   60.9640 C.3       1 TPV201      0.0000 
     14 C14        16.7190   22.3830   60.2790 C.ar      1 TPV201      0.0000 
     15 C15        16.4840   23.4950   59.4770 C.ar      1 TPV201      0.0000 
     16 C16        17.5050   24.1310   58.8140 C.ar      1 TPV201      0.0000 
     17 C17        18.8060   23.6330   58.9450 C.ar      1 TPV201      0.0000 
     18 C18        19.0650   22.5080   59.7280 C.ar      1 TPV201      0.0000 
     19 C19        18.0240   21.8790   60.4000 C.ar      1 TPV201      0.0000 
     20 C20        10.8750   19.2200   63.6990 C.3       1 TPV201      0.0000 
     21 C21        10.7070   18.5490   65.0470 C.3       1 TPV201      0.0000 
     22 C22        10.9000   19.4440   66.2640 C.3       1 TPV201      0.0000 
     23 C23        10.4480   18.3640   62.6880 C.ar      1 TPV201      0.0000 
     24 C24        11.3340   17.8100   61.7760 C.ar      1 TPV201      0.0000 
     25 C25        10.9100   16.9380   60.7500 C.ar      1 TPV201      0.0000 
     26 C26         9.5800   16.5880   60.5830 C.ar      1 TPV201      0.0000 
     27 C27         8.6460   17.1210   61.4860 C.ar      1 TPV201      0.0000 
     28 N28         7.3030   16.8190   61.3120 N.pl3     1 TPV201      0.0000 
     29 C29         9.1000   17.9610   62.4820 C.ar      1 TPV201      0.0000 
     30 S30         6.7390   15.4690   61.9880 S.o2      1 TPV201      0.0000 
     31 O31         5.2990   15.3440   61.5620 O.2       1 TPV201      0.0000 
     32 O32         7.6310   14.2950   61.5840 O.2       1 TPV201      0.0000 
     33 C33         6.8230   15.7170   63.7580 C.ar      1 TPV201      0.0000 
     34 N34         7.8680   15.2490   64.4660 N.ar      1 TPV201      0.0000 
     35 C35         8.0490   15.6320   65.7940 C.ar      1 TPV201      0.0000 
     36 C36         7.1280   16.4940   66.4180 C.ar      1 TPV201      0.0000 
     37 C37         6.0360   16.9060   65.6670 C.ar      1 TPV201      0.0000 
     38 C38         5.8600   16.5180   64.3350 C.ar      1 TPV201      0.0000 
     39 C39         7.2770   16.9140   67.7220 C.3       1 TPV201      0.0000 
     40 F40         7.8900   16.0330   68.5240 F         1 TPV201      0.0000 
     41 F41         6.2520   17.3680   68.4030 F         1 TPV201      0.0000 
     42 F42         8.1300   17.9720   67.7640 F         1 TPV201      0.0000 
@<TRIPOS>BOND
     1    1    2 1    
     2    1    6 1    
     3    2    3 1    
     4    2    7 2    
     5    3    4 2    
     6    3   20 1    
     7    4    5 1    
     8    4    8 ar   
     9    5    6 1    
    10    6    9 1    
    11    6   12 1    
    12    9   10 1    
    13   10   11 1    
    14   12   13 1    
    15   13   14 1    
    16   14   15 ar   
    17   14   19 ar   
    18   15   16 ar   
    19   16   17 ar   
    20   17   18 ar   
    21   18   19 ar   
    22   20   21 1    
    23   20   23 1    
    24   21   22 1    
    25   23   24 ar   
    26   23   29 ar   
    27   24   25 ar   
    28   25   26 ar   
    29   26   27 ar   
    30   27   28 1    
    31   27   29 ar   
    32   28   30 1    
    33   30   31 2    
    34   30   32 2    
    35   30   33 1    
    36   33   34 ar   
    37   33   38 ar   
    38   34   35 ar   
    39   35   36 ar   
    40   36   37 ar   
    41   36   39 1    
    42   37   38 ar   
    43   39   40 1    
    44   39   41 1    
    45   39   42 1    
@<TRIPOS>SUBSTRUCTURE
     1 TPV201      1 GROUP   
@<TRIPOS>SET

