#    Name: 6fe0_4_V90
#    Modification time : Fri May 22 19:24:31 2020

@<TRIPOS>MOLECULE
6fe0_4_V90
   26    27     1     0     0
SMALL
NO_CHARGES


@<TRIPOS>ATOM
      1 F18       -28.6320   10.0700  -25.9420           1 V90302      0.0000 
      2 C5        -27.8740   11.1650  -25.8690           1 V90302      0.0000 
      3 C6        -26.7520   11.1420  -24.9110           1 V90302      0.0000 
      4 S12       -26.4750    9.7520  -23.9650           1 V90302      0.0000 
      5 C13       -25.3230    8.7160  -24.8070           1 V90302      0.0000 
      6 C14       -25.9470    8.0120  -26.0000           1 V90302      0.0000 
      7 O15       -24.9080    7.7870  -26.9540           1 V90302      0.0000 
      8 C1        -25.8910   12.3250  -24.7960           1 V90302      0.0000 
      9 F17       -24.8880   12.2640  -23.9230           1 V90302      0.0000 
     10 C4        -28.1700   12.3670  -26.6730           1 V90302      0.0000 
     11 C3        -27.2760   13.5590  -26.5810           1 V90302      0.0000 
     12 S8        -27.5370   14.9030  -27.4360           1 V90302      0.0000 
     13 O10       -26.7230   14.8590  -28.6330           1 V90302      0.0000 
     14 N11       -27.1240   16.2520  -26.6750           1 V90302      0.0000 
     15 O9        -28.9400   14.9610  -27.7580           1 V90302      0.0000 
     16 C2        -26.1440   13.5380  -25.6170           1 V90302      0.0000 
     17 F16       -25.3570   14.6380  -25.5280           1 V90302      0.0000 
     18 N7        -29.0890   12.3480  -27.6580           1 V90302      0.0000 
     19 C19       -29.2170   11.1900  -28.5820           1 V90302      0.0000 
     20 C26       -27.8810   11.0660  -29.3460           1 V90302      0.0000 
     21 C25       -27.3670    9.6560  -29.6590           1 V90302      0.0000 
     22 C24       -28.3850    8.6420  -30.1760           1 V90302      0.0000 
     23 C23       -28.9710    8.9440  -31.5500           1 V90302      0.0000 
     24 C22       -29.8650   10.1810  -31.7000           1 V90302      0.0000 
     25 C21       -30.8210   10.4000  -30.5360           1 V90302      0.0000 
     26 C20       -30.3640   11.4800  -29.5510           1 V90302      0.0000 
@<TRIPOS>BOND
     1    1    2 du   
     2    2    3 du   
     3    2   10 du   
     4    3    4 du   
     5    3    8 du   
     6    4    5 du   
     7    5    6 du   
     8    6    7 du   
     9    8    9 du   
    10    8   16 du   
    11   10   11 du   
    12   10   18 du   
    13   11   12 du   
    14   11   16 du   
    15   12   13 du   
    16   12   14 du   
    17   12   15 du   
    18   16   17 du   
    19   18   19 du   
    20   19   20 du   
    21   19   26 du   
    22   20   21 du   
    23   21   22 du   
    24   22   23 du   
    25   23   24 du   
    26   24   25 du   
    27   25   26 du   
@<TRIPOS>SUBSTRUCTURE
     1 V90302      1 GROUP   
@<TRIPOS>SET

