#    Name: 6fe0_2_V90
#    Modification time : Fri May 22 19:24:24 2020

@<TRIPOS>MOLECULE
6fe0_2_V90
   26    27     1     0     0
SMALL
NO_CHARGES


@<TRIPOS>ATOM
      1 F18       -29.8010   -2.1270  -54.8930           1 V90302      0.0000 
      2 C5        -29.5640   -3.3840  -55.3260           1 V90302      0.0000 
      3 C6        -29.9520   -4.5420  -54.4830           1 V90302      0.0000 
      4 S12       -30.6980   -4.4050  -52.9700           1 V90302      0.0000 
      5 C13       -31.9310   -3.1330  -52.9370           1 V90302      0.0000 
      6 C14       -32.8760   -3.0940  -54.1380           1 V90302      0.0000 
      7 O15       -33.8980   -4.0620  -53.9130           1 V90302      0.0000 
      8 C1        -29.7000   -5.9130  -54.9480           1 V90302      0.0000 
      9 F17       -30.0440   -6.9750  -54.2010           1 V90302      0.0000 
     10 C4        -28.8830   -3.6310  -56.6330           1 V90302      0.0000 
     11 C3        -28.6550   -5.0200  -57.1200           1 V90302      0.0000 
     12 S8        -27.9450   -5.3980  -58.5400           1 V90302      0.0000 
     13 O10       -27.1090   -4.3470  -59.0310           1 V90302      0.0000 
     14 N11       -27.0260   -6.7110  -58.3160           1 V90302      0.0000 
     15 O9        -28.9540   -5.7510  -59.5160           1 V90302      0.0000 
     16 C2        -29.0520   -6.1330  -56.2410           1 V90302      0.0000 
     17 F16       -28.8490   -7.3920  -56.6060           1 V90302      0.0000 
     18 N7        -28.6360   -2.6580  -57.5120           1 V90302      0.0000 
     19 C19       -29.5640   -1.5450  -57.7510           1 V90302      0.0000 
     20 C26       -28.9250   -0.5440  -58.7110           1 V90302      0.0000 
     21 C25       -29.4970    0.8510  -58.5910           1 V90302      0.0000 
     22 C24       -30.2880    1.1620  -59.8390           1 V90302      0.0000 
     23 C23       -31.4790    0.2540  -60.1420           1 V90302      0.0000 
     24 C22       -32.3780   -0.0440  -58.9380           1 V90302      0.0000 
     25 C21       -32.1190   -1.3200  -58.1330           1 V90302      0.0000 
     26 C20       -30.8380   -2.1140  -58.4130           1 V90302      0.0000 
@<TRIPOS>BOND
     1    1    2 du   
     2    2    3 du   
     3    2   10 du   
     4    3    4 du   
     5    3    8 du   
     6    4    5 du   
     7    5    6 du   
     8    6    7 du   
     9    8    9 du   
    10    8   16 du   
    11   10   11 du   
    12   10   18 du   
    13   11   12 du   
    14   11   16 du   
    15   12   13 du   
    16   12   14 du   
    17   12   15 du   
    18   16   17 du   
    19   18   19 du   
    20   19   20 du   
    21   19   26 du   
    22   20   21 du   
    23   21   22 du   
    24   22   23 du   
    25   23   24 du   
    26   24   25 du   
    27   25   26 du   
@<TRIPOS>SUBSTRUCTURE
     1 V90302      1 GROUP   
@<TRIPOS>SET

