#    Name: 6fe0_3_V90
#    Modification time : Fri May 22 19:24:28 2020

@<TRIPOS>MOLECULE
6fe0_3_V90
   26    27     1     0     0
SMALL
NO_CHARGES


@<TRIPOS>ATOM
      1 F18       -41.1060   19.2490  -63.6630           1 V90302      0.0000 
      2 C5        -41.9720   20.1380  -63.1800           1 V90302      0.0000 
      3 C6        -43.1660   20.4600  -64.0020           1 V90302      0.0000 
      4 S12       -43.4170   19.7150  -65.5120           1 V90302      0.0000 
      5 C13       -44.2390   18.1670  -65.3300           1 V90302      0.0000 
      6 C14       -43.5810   17.3070  -64.2540           1 V90302      0.0000 
      7 O15       -44.3320   16.1010  -64.0930           1 V90302      0.0000 
      8 C1        -44.1630   21.4290  -63.5040           1 V90302      0.0000 
      9 F17       -45.2570   21.7190  -64.2320           1 V90302      0.0000 
     10 C4        -41.7400   20.8170  -61.8680           1 V90302      0.0000 
     11 C3        -42.7860   21.7900  -61.3500           1 V90302      0.0000 
     12 S8        -42.6740   22.5790  -59.9300           1 V90302      0.0000 
     13 O10       -43.4420   21.8110  -58.9750           1 V90302      0.0000 
     14 N11       -43.2490   24.0870  -60.0900           1 V90302      0.0000 
     15 O9        -41.3220   22.7860  -59.5010           1 V90302      0.0000 
     16 C2        -43.9670   22.0810  -62.1950           1 V90302      0.0000 
     17 F16       -44.8930   22.9540  -61.7830           1 V90302      0.0000 
     18 N7        -40.7560   20.4690  -61.0150           1 V90302      0.0000 
     19 C19       -40.3520   19.0850  -60.7370           1 V90302      0.0000 
     20 C26       -41.5320   18.4400  -59.9770           1 V90302      0.0000 
     21 C25       -41.9150   17.0150  -60.3900           1 V90302      0.0000 
     22 C24       -40.7810   15.9990  -60.3660           1 V90302      0.0000 
     23 C23       -40.1300   15.8700  -58.9820           1 V90302      0.0000 
     24 C22       -39.1640   16.9620  -58.4860           1 V90302      0.0000 
     25 C21       -38.4340   17.7480  -59.5540           1 V90302      0.0000 
     26 C20       -39.1070   19.1000  -59.8360           1 V90302      0.0000 
@<TRIPOS>BOND
     1    1    2 du   
     2    2    3 du   
     3    2   10 du   
     4    3    4 du   
     5    3    8 du   
     6    4    5 du   
     7    5    6 du   
     8    6    7 du   
     9    8    9 du   
    10    8   16 du   
    11   10   11 du   
    12   10   18 du   
    13   11   12 du   
    14   11   16 du   
    15   12   13 du   
    16   12   14 du   
    17   12   15 du   
    18   16   17 du   
    19   18   19 du   
    20   19   20 du   
    21   19   26 du   
    22   20   21 du   
    23   21   22 du   
    24   22   23 du   
    25   23   24 du   
    26   24   25 du   
    27   25   26 du   
@<TRIPOS>SUBSTRUCTURE
     1 V90302      1 GROUP   
@<TRIPOS>SET

