#    Name: 6b2u_1_CER
#    Modification time : Fri May 22 19:34:20 2020

@<TRIPOS>MOLECULE
6b2u_1_CER
   16    15     1     0     0
SMALL
NO_CHARGES


@<TRIPOS>ATOM
      1 C1         37.6780    6.3820   -0.8190 C.2       1 CER402      0.0000 
      2 N1         36.5450    6.2270    0.0260 N.am      1 CER402      0.0000 
      3 O1         36.2010    5.4320   -4.6610 O.2       1 CER402      0.0000 
      4 C2         37.5070    6.3690   -2.3030 C.3       1 CER402      0.0000 
      5 O2         38.7870    6.5670   -0.3710 O.2       1 CER402      0.0000 
      6 C3         36.0410    6.5190   -2.6000 C.3       1 CER402      0.0000 
      7 O3         35.3150    5.4580   -2.0230 O.3       1 CER402      0.0000 
      8 C4         35.9340    6.4720   -4.0910 C.2       1 CER402      0.0000 
      9 C5         35.6580    7.7510   -4.8510 C.3       1 CER402      0.0000 
     10 C6         36.6860    8.8090   -4.4900 C.3       1 CER402      0.0000 
     11 C7         38.0800    8.3890   -4.9130 C.2       1 CER402      0.0000 
     12 C8         39.0430    9.3200   -5.0740 C.2       1 CER402      0.0000 
     13 C9         39.4010    9.8080   -6.4620 C.3       1 CER402      0.0000 
     14 C10        39.0660   11.2790   -6.5820 C.2       1 CER402      0.0000 
     15 C11        40.0050   12.1460   -7.0100 C.2       1 CER402      0.0000 
     16 C12        40.2280   12.3300   -8.4960 C.3       1 CER402      0.0000 
@<TRIPOS>BOND
     1    1    2 am   
     2    1    4 1    
     3    1    5 2    
     4    3    8 2    
     5    4    6 1    
     6    6    7 1    
     7    6    8 1    
     8    8    9 1    
     9    9   10 1    
    10   10   11 1    
    11   11   12 2    
    12   12   13 1    
    13   13   14 1    
    14   14   15 2    
    15   15   16 1    
@<TRIPOS>SUBSTRUCTURE
     1 CER402      1 GROUP   
@<TRIPOS>SET

