#    Name: 5yq7_2_BPH_CAVITY_N1_6
#    Modification time : Fri May 22 19:16:20 2020

@<TRIPOS>MOLECULE
5yq7_2_BPH_CAVITY_N1_6
   34     0     3     0     0
SMALL
NO_CHARGES


@<TRIPOS>ATOM
      1 CZ        105.7800  105.4700  113.5800 C.ar      1 PHE5        0.0000 
      2 CA        103.8300  100.4400  119.2100 C.3       2 GLY6        0.0000 
      3 CA        107.8900  100.7600  117.3000 C.3       2 GLY6        0.0000 
      4 CA        105.1200  102.0400  118.6900 C.3       2 GLY6        0.0000 
      5 CA        108.2800  101.1200  119.3500 C.3       2 GLY6        0.0000 
      6 CA        108.7300  101.7400  118.0600 C.3       2 GLY6        0.0000 
      7 CA        109.1800  102.3600  116.7700 C.3       2 GLY6        0.0000 
      8 CA        109.6400  102.9800  115.4900 C.3       2 GLY6        0.0000 
      9 CA        107.1200  102.0700  119.4000 C.3       2 GLY6        0.0000 
     10 CA        107.5700  102.6900  118.1100 C.3       2 GLY6        0.0000 
     11 CA        108.0200  103.3100  116.8200 C.3       2 GLY6        0.0000 
     12 CA        105.9600  103.0200  119.4500 C.3       2 GLY6        0.0000 
     13 CA        107.9600  103.0500  120.1700 C.3       2 GLY6        0.0000 
     14 CA        108.4100  103.6700  118.8800 C.3       2 GLY6        0.0000 
     15 CA        108.8600  104.2900  117.5900 C.3       2 GLY6        0.0000 
     16 CA        109.3200  104.9100  116.3000 C.3       2 GLY6        0.0000 
     17 CA        107.2500  104.6200  118.9300 C.3       2 GLY6        0.0000 
     18 CA        107.7000  105.2400  117.6400 C.3       2 GLY6        0.0000 
     19 DU        104.2800  101.0600  117.9200 H         3 CUB7        0.0000 
     20 DU        103.1200  102.0100  117.9700 H         3 CUB7        0.0000 
     21 DU        106.7300  101.7100  117.3500 H         3 CUB7        0.0000 
     22 DU        105.5700  102.6600  117.4000 H         3 CUB7        0.0000 
     23 DU        103.9600  102.9900  118.7400 H         3 CUB7        0.0000 
     24 DU        104.4200  103.6100  117.4500 H         3 CUB7        0.0000 
     25 DU        104.8700  104.2300  116.1600 H         3 CUB7        0.0000 
     26 DU        106.4100  103.6400  118.1600 H         3 CUB7        0.0000 
     27 DU        106.8700  104.2600  116.8800 H         3 CUB7        0.0000 
     28 DU        107.7700  105.5000  114.3000 H         3 CUB7        0.0000 
     29 DU        105.2500  104.5900  118.2100 H         3 CUB7        0.0000 
     30 DU        105.7100  105.2100  116.9300 H         3 CUB7        0.0000 
     31 DU        106.1600  105.8300  115.6400 H         3 CUB7        0.0000 
     32 DU        113.9000  106.1100  109.7600 H         3 CUB7        0.0000 
     33 DU        109.7700  105.5300  115.0200 H         3 CUB7        0.0000 
     34 DU        108.1600  105.8600  116.3500 H         3 CUB7        0.0000 
@<TRIPOS>BOND
@<TRIPOS>SUBSTRUCTURE
     1 PHE5        1 GROUP   
     2 GLY6        2 GROUP   
     3 CUB7       19 GROUP   
@<TRIPOS>SET

