#    Name: 5yq7_2_BPH
#    Modification time : Fri May 22 19:16:19 2020

@<TRIPOS>MOLECULE
5yq7_2_BPH
   65    70     1     0     0
SMALL
NO_CHARGES


@<TRIPOS>ATOM
      1 O1D       105.2750   96.3950  105.4010 O.2       1 BPH703      0.0000 
      2 CGD       105.7160   97.4170  104.9280 C.2       1 BPH703      0.0000 
      3 O2D       105.8290   97.5790  103.6240 O.3       1 BPH703      0.0000 
      4 CED       105.4040   96.4740  102.7850 C.3       1 BPH703      0.0000 
      5 CBD       106.1690   98.5710  105.6960 C.3       1 BPH703      0.0000 
      6 CHA       107.3150   98.2900  106.6680 C.2       1 BPH703      0.0000 
      7 C4D       106.7390   98.5000  107.9210 C.2       1 BPH703      0.0000 
      8 C3D       105.3940   98.8300  107.9350 C.2       1 BPH703      0.0000 
      9 CAD       105.0280   99.0710  106.6000 C.2       1 BPH703      0.0000 
     10 OBD       104.0060   99.5830  106.1230 O.2       1 BPH703      0.0000 
     11 C2D       105.0270   98.9820  109.2560 C.2       1 BPH703      0.0000 
     12 CMD       103.6860   99.3100  109.8250 C.3       1 BPH703      0.0000 
     13 C1D       106.1910   98.7520  110.0020 C.2       1 BPH703      0.0000 
     14 ND        107.2680   98.4410  109.1760 N.pl3     1 BPH703      0.0000 
     15 CHD       106.3560   98.7880  111.4130 C.2       1 BPH703      0.0000 
     16 C4C       107.4540   98.4310  112.1570 C.2       1 BPH703      0.0000 
     17 C3C       107.5360   98.5900  113.6370 C.3       1 BPH703      0.0000 
     18 CAC       107.2260  100.0320  114.0370 C.3       1 BPH703      0.0000 
     19 CBC       107.5740  100.3330  115.4710 C.3       1 BPH703      0.0000 
     20 C2C       108.9750   98.2010  113.9580 C.3       1 BPH703      0.0000 
     21 CMC       109.0850   97.0900  114.9750 C.3       1 BPH703      0.0000 
     22 C1C       109.5120   97.8150  112.6350 C.2       1 BPH703      0.0000 
     23 NC        108.6700   98.1100  111.6140 N.2       1 BPH703      0.0000 
     24 CHC       110.8410   97.4400  112.4100 C.2       1 BPH703      0.0000 
     25 C4B       111.5290   97.1200  111.2330 C.2       1 BPH703      0.0000 
     26 C3B       112.8470   96.5530  111.1150 C.2       1 BPH703      0.0000 
     27 CAB       113.6600   96.2070  112.2500 C.2       1 BPH703      0.0000 
     28 CBB       115.1180   96.5730  112.3230 C.3       1 BPH703      0.0000 
     29 OBB       113.1990   95.5950  113.2230 O.2       1 BPH703      0.0000 
     30 C2B       113.0770   96.4250  109.7560 C.2       1 BPH703      0.0000 
     31 CMB       114.3000   95.9150  109.0370 C.3       1 BPH703      0.0000 
     32 C1B       111.9330   96.8630  109.0890 C.2       1 BPH703      0.0000 
     33 NB        110.9740   97.2880  110.0000 N.pl3     1 BPH703      0.0000 
     34 CHB       111.7420   96.8820  107.7090 C.2       1 BPH703      0.0000 
     35 C4A       110.6650   97.2390  106.9310 C.2       1 BPH703      0.0000 
     36 C3A       110.6200   97.0930  105.4540 C.3       1 BPH703      0.0000 
     37 CMA       110.9730   95.6750  105.0440 C.3       1 BPH703      0.0000 
     38 C2A       109.1720   97.4510  105.0940 C.3       1 BPH703      0.0000 
     39 C1A       108.5960   97.8940  106.3950 C.2       1 BPH703      0.0000 
     40 NA        109.4360   97.5990  107.4440 N.2       1 BPH703      0.0000 
     41 CAA       109.1240   98.5010  103.9860 C.3       1 BPH703      0.0000 
     42 CBA       110.3210   99.4400  103.9080 C.3       1 BPH703      0.0000 
     43 CGA       110.6110  100.3780  105.0290 C.2       1 BPH703      0.0000 
     44 O1A       110.2940  100.2550  106.1450 O.2       1 BPH703      0.0000 
     45 O2A       111.3090  101.3820  104.5800 O.3       1 BPH703      0.0000 
     46 C1        111.7510  102.4340  105.4870 C.3       1 BPH703      0.0000 
     47 C2        113.2650  102.3020  105.4940 C.2       1 BPH703      0.0000 
     48 C3        114.0170  102.5750  104.4530 C.2       1 BPH703      0.0000 
     49 C4        113.5190  103.0620  103.0990 C.3       1 BPH703      0.0000 
     50 C5        115.5300  102.4180  104.5140 C.3       1 BPH703      0.0000 
     51 C6        116.1100  101.3430  103.6010 C.3       1 BPH703      0.0000 
     52 C7        115.6390   99.9350  103.9610 C.3       1 BPH703      0.0000 
     53 C8        116.2050   98.8690  103.0270 C.3       1 BPH703      0.0000 
     54 C9        115.2590   98.6600  101.8360 C.3       1 BPH703      0.0000 
     55 C10       116.3670   97.5460  103.7770 C.3       1 BPH703      0.0000 
     56 C11       115.0460   96.8990  104.0970 C.3       1 BPH703      0.0000 
     57 C12       115.1650   95.9500  105.2820 C.3       1 BPH703      0.0000 
     58 C13       116.0920   94.7560  105.0660 C.3       1 BPH703      0.0000 
     59 C14       115.4460   93.6650  104.2270 C.3       1 BPH703      0.0000 
     60 C15       116.3080   94.2740  106.5020 C.3       1 BPH703      0.0000 
     61 C16       117.2320   93.1600  106.9650 C.3       1 BPH703      0.0000 
     62 C17       117.0290   93.0510  108.4870 C.3       1 BPH703      0.0000 
     63 C18       117.7170   91.9130  109.2080 C.3       1 BPH703      0.0000 
     64 C19       117.0900   90.6350  108.6290 C.3       1 BPH703      0.0000 
     65 C20       117.5270   91.9330  110.7290 C.3       1 BPH703      0.0000 
@<TRIPOS>BOND
     1    1    2 2    
     2    2    3 1    
     3    2    5 1    
     4    3    4 1    
     5    5    6 1    
     6    5    9 1    
     7    6    7 1    
     8    6   39 2    
     9    7    8 2    
    10    7   14 1    
    11    8    9 1    
    12    8   11 1    
    13    9   10 2    
    14   11   12 1    
    15   11   13 2    
    16   13   14 1    
    17   13   15 1    
    18   15   16 2    
    19   16   17 1    
    20   16   23 1    
    21   17   18 1    
    22   17   20 1    
    23   18   19 1    
    24   20   21 1    
    25   20   22 1    
    26   22   23 2    
    27   22   24 1    
    28   24   25 2    
    29   25   26 1    
    30   25   33 1    
    31   26   27 1    
    32   26   30 2    
    33   27   28 1    
    34   27   29 2    
    35   30   31 1    
    36   30   32 1    
    37   32   33 1    
    38   32   34 2    
    39   34   35 1    
    40   35   36 1    
    41   35   40 2    
    42   36   37 1    
    43   36   38 1    
    44   38   39 1    
    45   38   41 1    
    46   39   40 1    
    47   41   42 1    
    48   42   43 1    
    49   43   44 2    
    50   43   45 1    
    51   45   46 1    
    52   46   47 1    
    53   47   48 2    
    54   48   49 1    
    55   48   50 1    
    56   50   51 1    
    57   51   52 1    
    58   52   53 1    
    59   53   54 1    
    60   53   55 1    
    61   55   56 1    
    62   56   57 1    
    63   57   58 1    
    64   58   59 1    
    65   58   60 1    
    66   60   61 1    
    67   61   62 1    
    68   62   63 1    
    69   63   64 1    
    70   63   65 1    
@<TRIPOS>SUBSTRUCTURE
     1 BPH703      1 GROUP   
@<TRIPOS>SET

