#    Name: 6fzb_1_ATP
#    Modification time : Fri May 22 19:26:22 2020

@<TRIPOS>MOLECULE
6fzb_1_ATP
   43    45     1     0     1
SMALL
NO_CHARGES


@<TRIPOS>ATOM
      1 PG        -13.5530   89.4850   72.1430 P.3       1 ATP304      0.0000 
      2 O1G       -13.3760   90.0350   70.7480 O.co2     1 ATP304      0.0000 
      3 O2G       -14.5940   88.4030   72.2680 O.co2     1 ATP304      0.0000 
      4 O3G       -13.6620   90.5500   73.2110 O.co2     1 ATP304      0.0000 
      5 PB        -11.9950   87.2570   73.0260 P.3       1 ATP304      0.0000 
      6 O1B       -10.6290   87.1710   73.6660 O.co2     1 ATP304      0.0000 
      7 O2B       -13.2180   86.8650   73.8220 O.co2     1 ATP304      0.0000 
      8 O3B       -12.1400   88.7680   72.4700 O.3       1 ATP304      0.0000 
      9 PA        -13.1180   85.5740   71.0230 P.3       1 ATP304      0.0000 
     10 O1A       -13.3120   86.1500   69.6410 O.co2     1 ATP304      0.0000 
     11 O2A       -14.2820   85.5070   71.9830 O.co2     1 ATP304      0.0000 
     12 O3A       -11.8940   86.3960   71.6700 O.3       1 ATP304      0.0000 
     13 O5'       -12.4870   84.1050   70.8640 O.3       1 ATP304      0.0000 
     14 C5'       -11.1920   83.9800   70.2850 C.3       1 ATP304      0.0000 
     15 C4'       -11.0660   82.6400   69.5740 C.3       1 ATP304      0.0000 
     16 O4'        -9.7710   82.5290   68.9700 O.3       1 ATP304      0.0000 
     17 C3'       -11.2190   81.4760   70.5380 C.3       1 ATP304      0.0000 
     18 O3'       -12.0880   80.4880   69.9780 O.3       1 ATP304      0.0000 
     19 C2'        -9.8150   80.9350   70.6890 C.3       1 ATP304      0.0000 
     20 O2'        -9.7670   79.5290   70.9300 O.3       1 ATP304      0.0000 
     21 C1'        -9.1770   81.2870   69.3540 C.3       1 ATP304      0.0000 
     22 N9         -7.7000   81.3770   69.4360 N.pl3     1 ATP304      0.0000 
     23 C8         -6.8630   80.8100   68.5440 C.2       1 ATP304      0.0000 
     24 N7         -5.5710   81.0440   68.8800 N.2       1 ATP304      0.0000 
     25 C5         -5.5770   81.7680   70.0130 C.ar      1 ATP304      0.0000 
     26 C6         -4.5530   82.3450   70.8950 C.ar      1 ATP304      0.0000 
     27 N6         -3.2530   82.1680   70.5880 N.pl3     1 ATP304      0.0000 
     28 N1         -4.9480   83.0380   71.9850 N.ar      1 ATP304      0.0000 
     29 C2         -6.2530   83.2030   72.2730 C.ar      1 ATP304      0.0000 
     30 N3         -7.2420   82.7000   71.5070 N.ar      1 ATP304      0.0000 
     31 C4         -6.9790   81.9820   70.3850 C.ar      1 ATP304      0.0000 
     32 H5'1      -11.0280   84.7910   69.5720 H         1 ATP304      0.0000 
     33 H5'2      -10.4310   84.0550   71.0650 H         1 ATP304      0.0000 
     34 H4'       -11.8470   82.5700   68.8040 H         1 ATP304      0.0000 
     35 H3'       -11.5930   81.8350   71.5080 H         1 ATP304      0.0000 
     36 HO3'      -12.1800   79.7510   70.5970 H         1 ATP304      0.0000 
     37 H2'        -9.3000   81.4810   71.4920 H         1 ATP304      0.0000 
     38 HO2'      -10.2250   79.3270   71.7570 H         1 ATP304      0.0000 
     39 H1'        -9.4540   80.5110   68.6260 H         1 ATP304      0.0000 
     40 H8         -7.1810   80.2490   67.6740 H         1 ATP304      0.0000 
     41 HN61       -2.9970   81.6450   69.7630 H         1 ATP304      0.0000 
     42 HN62       -2.5360   82.5590   71.1820 H         1 ATP304      0.0000 
     43 H2         -6.5200   83.7650   73.1600 H         1 ATP304      0.0000 
@<TRIPOS>BOND
     1    1    2 ar   
     2    1    3 ar   
     3    1    4 ar   
     4    1    8 1    
     5    5    6 ar   
     6    5    7 ar   
     7    5    8 1    
     8    5   12 1    
     9    9   10 ar   
    10    9   11 ar   
    11    9   12 1    
    12    9   13 1    
    13   13   14 1    
    14   14   15 1    
    15   14   32 1    
    16   14   33 1    
    17   15   16 1    
    18   15   17 1    
    19   15   34 1    
    20   16   21 1    
    21   17   18 1    
    22   17   19 1    
    23   17   35 1    
    24   18   36 1    
    25   19   20 1    
    26   19   21 1    
    27   19   37 1    
    28   20   38 1    
    29   21   22 1    
    30   21   39 1    
    31   22   23 1    
    32   22   31 1    
    33   23   24 2    
    34   23   40 1    
    35   24   25 1    
    36   25   26 ar   
    37   25   31 ar   
    38   26   27 1    
    39   26   28 ar   
    40   27   41 1    
    41   27   42 1    
    42   28   29 ar   
    43   29   30 ar   
    44   29   43 1    
    45   30   31 ar   
@<TRIPOS>SUBSTRUCTURE
     1 ATP304      1 GROUP   
@<TRIPOS>SET
ATOM$ORANGE STATIC     ATOMS   COLORGROUP SYSTEM 
20 14 14 15 15 17 17 19 19 21 21 23 23 25 25 26 26 29 \
29 31 31 

