#    Name: 6fzb_2_ATP_CAVITY_N1_12
#    Modification time : Fri May 22 19:26:28 2020

@<TRIPOS>MOLECULE
6fzb_2_ATP_CAVITY_N1_12
   96     0     7     0     0
SMALL
NO_CHARGES


@<TRIPOS>ATOM
      1 OG        -45.7300  101.2300   99.8200 O.3       1 SER1        0.0000 
      2 OG        -45.0300  101.4200   98.5100 O.3       1 SER1        0.0000 
      3 OG        -46.3700  102.5800   99.6700 O.3       1 SER1        0.0000 
      4 OG        -45.6700  102.7700   98.3600 O.3       1 SER1        0.0000 
      5 OG        -47.7100  103.7400  100.8400 O.3       1 SER1        0.0000 
      6 OG        -47.0100  103.9300   99.5200 O.3       1 SER1        0.0000 
      7 O         -49.7300  103.7800   94.6200 O.2       2 ALA2        0.0000 
      8 O         -50.3600  105.1300   94.4700 O.2       2 ALA2        0.0000 
      9 O         -51.0000  106.4800   94.3200 O.2       2 ALA2        0.0000 
     10 O         -48.5600  104.4100   95.3300 O.2       2 ALA2        0.0000 
     11 O         -47.8600  104.6000   94.0200 O.2       2 ALA2        0.0000 
     12 O         -49.2000  105.7600   95.1800 O.2       2 ALA2        0.0000 
     13 N         -48.5000  105.9500   93.8700 N.am      2 ALA2        0.0000 
     14 O         -49.8300  107.1100   95.0300 O.2       2 ALA2        0.0000 
     15 N         -49.1300  107.3000   93.7200 N.am      2 ALA2        0.0000 
     16 OD1       -45.4900  100.9800   96.4800 O.co2     3 ASP3        0.0000 
     17 OD1       -45.4300  102.5200   95.0200 O.co2     3 ASP3        0.0000 
     18 OD1       -46.0600  103.8700   94.8800 O.co2     3 ASP3        0.0000 
     19 OD1       -46.7000  105.2200   94.7300 O.co2     3 ASP3        0.0000 
     20 OD1       -47.9700  107.9200   94.4300 O.co2     3 ASP3        0.0000 
     21 OD1       -44.3300  101.6100   97.1900 O.co2     3 ASP3        0.0000 
     22 OD1       -43.6300  101.8000   95.8800 O.co2     3 ASP3        0.0000 
     23 OD1       -44.2600  103.1500   95.7400 O.co2     3 ASP3        0.0000 
     24 OD1       -43.5600  103.3300   94.4200 O.co2     3 ASP3        0.0000 
     25 OD1       -44.9000  104.5000   95.5900 O.co2     3 ASP3        0.0000 
     26 OD1       -44.2000  104.6800   94.2800 O.co2     3 ASP3        0.0000 
     27 OD1       -42.4600  102.4200   96.5900 O.co2     3 ASP3        0.0000 
     28 OD1       -41.7600  102.6100   95.2800 O.co2     3 ASP3        0.0000 
     29 OD1       -43.1000  103.7700   96.4500 O.co2     3 ASP3        0.0000 
     30 OD1       -42.4000  103.9600   95.1400 O.co2     3 ASP3        0.0000 
     31 OD1       -41.6900  104.1500   93.8200 O.co2     3 ASP3        0.0000 
     32 NZ        -50.5600  100.5200   98.8500 N.4       4 LYS4        0.0000 
     33 NZ        -48.4500  101.0800   94.9100 N.4       4 LYS4        0.0000 
     34 NZ        -49.0900  102.4300   94.7600 N.4       4 LYS4        0.0000 
     35 NZ        -46.6500  100.3600   95.7700 N.4       4 LYS4        0.0000 
     36 NZ        -49.4000  101.1400   99.5600 N.4       4 LYS4        0.0000 
     37 NZ        -48.7000  101.3300   98.2500 N.4       4 LYS4        0.0000 
     38 NZ        -47.9900  101.5200   96.9300 N.4       4 LYS4        0.0000 
     39 NZ        -47.2900  101.7100   95.6200 N.4       4 LYS4        0.0000 
     40 NZ        -50.0300  102.4900   99.4100 N.4       4 LYS4        0.0000 
     41 NZ        -49.3300  102.6800   98.1000 N.4       4 LYS4        0.0000 
     42 NZ        -48.6300  102.8700   96.7900 N.4       4 LYS4        0.0000 
     43 NZ        -49.9700  104.0300   97.9500 N.4       4 LYS4        0.0000 
     44 NZ        -49.2700  104.2200   96.6400 N.4       4 LYS4        0.0000 
     45 NZ        -45.5600   99.4400   97.9400 N.4       4 LYS4        0.0000 
     46 NZ        -44.8600   99.6300   96.6300 N.4       4 LYS4        0.0000 
     47 CZ        -51.6300  107.8300   94.1700 C.ar      5 PHE5        0.0000 
     48 CZ        -50.4700  108.4600   94.8900 C.ar      5 PHE5        0.0000 
     49 CZ        -49.7700  108.6500   93.5700 C.ar      5 PHE5        0.0000 
     50 CZ        -45.6200   97.9100   99.4000 C.ar      5 PHE5        0.0000 
     51 CZ        -44.4600   98.5300  100.1100 C.ar      5 PHE5        0.0000 
     52 CZ        -44.9700  102.9600   97.0500 C.ar      5 PHE5        0.0000 
     53 CZ        -46.3000  104.1200   98.2100 C.ar      5 PHE5        0.0000 
     54 CZ        -49.0500  104.9100  102.0000 C.ar      5 PHE5        0.0000 
     55 CZ        -43.1700  102.2300   97.9100 C.ar      5 PHE5        0.0000 
     56 CA        -48.3900  102.6200   93.4500 C.3       6 GLY6        0.0000 
     57 CA        -51.0600  104.9500   95.7800 C.3       6 GLY6        0.0000 
     58 CA        -51.7000  106.3000   95.6300 C.3       6 GLY6        0.0000 
     59 CA        -52.3400  107.6500   95.4900 C.3       6 GLY6        0.0000 
     60 CA        -50.6000  105.3800   97.8000 C.3       6 GLY6        0.0000 
     61 CA        -51.2400  106.7300   97.6600 C.3       6 GLY6        0.0000 
     62 CA        -50.5400  106.9200   96.3500 C.3       6 GLY6        0.0000 
     63 CA        -51.1700  108.2700   96.2000 C.3       6 GLY6        0.0000 
     64 CA        -50.2100  104.2800  101.2900 C.3       6 GLY6        0.0000 
     65 CA        -49.5100  104.4700   99.9800 C.3       6 GLY6        0.0000 
     66 CA        -48.8100  104.6600   98.6600 C.3       6 GLY6        0.0000 
     67 CA        -48.1000  104.8500   97.3500 C.3       6 GLY6        0.0000 
     68 CA        -50.1400  105.8200   99.8300 C.3       6 GLY6        0.0000 
     69 CA        -49.4400  106.0100   98.5200 C.3       6 GLY6        0.0000 
     70 CA        -48.7400  106.2000   97.2000 C.3       6 GLY6        0.0000 
     71 CA        -50.0800  107.3600   98.3700 C.3       6 GLY6        0.0000 
     72 CA        -49.3700  107.5500   97.0600 C.3       6 GLY6        0.0000 
     73 CA        -48.6700  107.7300   95.7500 C.3       6 GLY6        0.0000 
     74 CA        -50.0100  108.9000   96.9100 C.3       6 GLY6        0.0000 
     75 CA        -49.3100  109.0800   95.6000 C.3       6 GLY6        0.0000 
     76 CA        -42.3300  105.5000   93.6800 C.3       6 GLY6        0.0000 
     77 DU        -50.8000  100.7700  102.1800 H         7 CUB7        0.0000 
     78 DU        -50.1000  100.9600  100.8700 H         7 CUB7        0.0000 
     79 DU        -50.7400  102.3100  100.7200 H         7 CUB7        0.0000 
     80 DU        -47.9300  103.0600   95.4800 H         7 CUB7        0.0000 
     81 DU        -47.2200  103.2500   94.1600 H         7 CUB7        0.0000 
     82 DU        -49.9000  105.5700   96.4900 H         7 CUB7        0.0000 
     83 DU        -46.9000  100.6100   99.1100 H         7 CUB7        0.0000 
     84 DU        -46.1900  100.7900   97.7900 H         7 CUB7        0.0000 
     85 DU        -49.6400  101.3900  102.8900 H         7 CUB7        0.0000 
     86 DU        -48.2400  101.7700  100.2700 H         7 CUB7        0.0000 
     87 DU        -47.5300  101.9600   98.9600 H         7 CUB7        0.0000 
     88 DU        -46.8300  102.1400   97.6500 H         7 CUB7        0.0000 
     89 DU        -46.1300  102.3300   96.3300 H         7 CUB7        0.0000 
     90 DU        -49.5700  102.9300  101.4400 H         7 CUB7        0.0000 
     91 DU        -48.8700  103.1200  100.1200 H         7 CUB7        0.0000 
     92 DU        -48.1700  103.3100   98.8100 H         7 CUB7        0.0000 
     93 DU        -47.4700  103.5000   97.5000 H         7 CUB7        0.0000 
     94 DU        -46.7600  103.6800   96.1900 H         7 CUB7        0.0000 
     95 DU        -45.1000   99.8800   99.9700 H         7 CUB7        0.0000 
     96 DU        -44.4000  100.0700   98.6500 H         7 CUB7        0.0000 
@<TRIPOS>BOND
@<TRIPOS>SUBSTRUCTURE
     1 SER1        1 GROUP   
     2 ALA2        7 GROUP   
     3 ASP3       16 GROUP   
     4 LYS4       32 GROUP   
     5 PHE5       47 GROUP   
     6 GLY6       56 GROUP   
     7 CUB7       77 GROUP   
@<TRIPOS>SET

