#    Name: 6fzb_2_ATP
#    Modification time : Fri May 22 19:26:27 2020

@<TRIPOS>MOLECULE
6fzb_2_ATP
   43    45     1     0     1
SMALL
NO_CHARGES


@<TRIPOS>ATOM
      1 PG        -39.7260  104.5820   93.7400 P.3       1 ATP304      0.0000 
      2 O1G       -38.8550  105.0660   92.6050 O.co2     1 ATP304      0.0000 
      3 O2G       -40.1490  103.1370   93.6290 O.co2     1 ATP304      0.0000 
      4 O3G       -39.2240  104.9690   95.1120 O.co2     1 ATP304      0.0000 
      5 PB        -42.4250  104.8500   92.8650 P.3       1 ATP304      0.0000 
      6 O1B       -42.1170  103.6100   92.0630 O.co2     1 ATP304      0.0000 
      7 O2B       -43.1080  106.0200   92.1960 O.co2     1 ATP304      0.0000 
      8 O3B       -41.1020  105.4160   93.6000 O.3       1 ATP304      0.0000 
      9 PA        -43.3720  103.0280   94.8330 P.3       1 ATP304      0.0000 
     10 O1A       -42.8580  101.9570   93.8970 O.co2     1 ATP304      0.0000 
     11 O2A       -42.7420  103.2170   96.1900 O.co2     1 ATP304      0.0000 
     12 O3A       -43.3580  104.4730   94.1190 O.3       1 ATP304      0.0000 
     13 O5'       -44.9480  102.8160   95.0510 O.3       1 ATP304      0.0000 
     14 C5'       -45.7020  103.8990   95.5870 C.3       1 ATP304      0.0000 
     15 C4'       -46.9210  103.3610   96.3170 C.3       1 ATP304      0.0000 
     16 O4'       -47.6570  104.4380   96.9060 O.3       1 ATP304      0.0000 
     17 C3'       -47.8540  102.6350   95.3630 C.3       1 ATP304      0.0000 
     18 O3'       -48.2470  101.3800   95.9240 O.3       1 ATP304      0.0000 
     19 C2'       -49.0390  103.5660   95.2280 C.3       1 ATP304      0.0000 
     20 O2'       -50.2730  102.8840   95.0080 O.3       1 ATP304      0.0000 
     21 C1'       -49.0360  104.3040   96.5580 C.3       1 ATP304      0.0000 
     22 N9        -49.7250  105.6130   96.4720 N.pl3     1 ATP304      0.0000 
     23 C8        -50.6700  106.0260   97.3400 C.2       1 ATP304      0.0000 
     24 N7        -51.1320  107.2560   97.0010 N.2       1 ATP304      0.0000 
     25 C5        -50.4750  107.6350   95.8920 C.ar      1 ATP304      0.0000 
     26 C6        -50.4870  108.8190   95.0170 C.ar      1 ATP304      0.0000 
     27 N6        -51.3200  109.8380   95.3040 N.pl3     1 ATP304      0.0000 
     28 N1        -49.6540  108.8450   93.9540 N.ar      1 ATP304      0.0000 
     29 C2        -48.8270  107.8190   93.6820 C.ar      1 ATP304      0.0000 
     30 N3        -48.7680  106.7050   94.4400 N.ar      1 ATP304      0.0000 
     31 C4        -49.5530  106.5510   95.5370 C.ar      1 ATP304      0.0000 
     32 H5'1      -46.0190  104.5630   94.7800 H         1 ATP304      0.0000 
     33 H5'2      -45.0820  104.4750   96.2780 H         1 ATP304      0.0000 
     34 H4'       -46.5900  102.6590   97.0960 H         1 ATP304      0.0000 
     35 H3'       -47.3660  102.5020   94.3870 H         1 ATP304      0.0000 
     36 HO3'      -48.8400  100.9250   95.3110 H         1 ATP304      0.0000 
     37 H2'       -48.8460  104.2820   94.4170 H         1 ATP304      0.0000 
     38 HO2'      -50.2230  102.3860   94.1810 H         1 ATP304      0.0000 
     39 H1'       -49.5410  103.6730   97.3030 H         1 ATP304      0.0000 
     40 H8        -51.0110  105.4550   98.1950 H         1 ATP304      0.0000 
     41 HN61      -51.9260  109.7830   96.1100 H         1 ATP304      0.0000 
     42 HN62      -51.3370  110.6570   94.7140 H         1 ATP304      0.0000 
     43 H2        -48.1820  107.8890   92.8150 H         1 ATP304      0.0000 
@<TRIPOS>BOND
     1    1    2 ar   
     2    1    3 ar   
     3    1    4 ar   
     4    1    8 1    
     5    5    6 ar   
     6    5    7 ar   
     7    5    8 1    
     8    5   12 1    
     9    9   10 ar   
    10    9   11 ar   
    11    9   12 1    
    12    9   13 1    
    13   13   14 1    
    14   14   15 1    
    15   14   32 1    
    16   14   33 1    
    17   15   16 1    
    18   15   17 1    
    19   15   34 1    
    20   16   21 1    
    21   17   18 1    
    22   17   19 1    
    23   17   35 1    
    24   18   36 1    
    25   19   20 1    
    26   19   21 1    
    27   19   37 1    
    28   20   38 1    
    29   21   22 1    
    30   21   39 1    
    31   22   23 1    
    32   22   31 1    
    33   23   24 2    
    34   23   40 1    
    35   24   25 1    
    36   25   26 ar   
    37   25   31 ar   
    38   26   27 1    
    39   26   28 ar   
    40   27   41 1    
    41   27   42 1    
    42   28   29 ar   
    43   29   30 ar   
    44   29   43 1    
    45   30   31 ar   
@<TRIPOS>SUBSTRUCTURE
     1 ATP304      1 GROUP   
@<TRIPOS>SET
ATOM$ORANGE STATIC     ATOMS   COLORGROUP SYSTEM 
20 14 14 15 15 17 17 19 19 21 21 23 23 25 25 26 26 29 \
29 31 31 

