#    Name: 6fzb_1_ATP_CAVITY_N1_4
#    Modification time : Fri May 22 19:26:24 2020

@<TRIPOS>MOLECULE
6fzb_1_ATP_CAVITY_N1_4
   95     0     7     0     0
SMALL
NO_CHARGES


@<TRIPOS>ATOM
      1 OG        -11.6500   82.0800   67.3100 O.3       1 SER1        0.0000 
      2 OG        -10.9500   82.2700   66.0000 O.3       1 SER1        0.0000 
      3 OG        -12.2900   83.4300   67.1600 O.3       1 SER1        0.0000 
      4 OG         -9.7800   82.9000   66.7100 O.3       1 SER1        0.0000 
      5 N          -9.4600   80.2600   71.6500 N.am      2 ALA2        0.0000 
      6 N         -10.8000   81.4200   72.8200 N.am      2 ALA2        0.0000 
      7 N         -10.0900   81.6100   71.5100 N.am      2 ALA2        0.0000 
      8 N          -7.5900   81.0700   71.0500 N.am      2 ALA2        0.0000 
      9 N          -8.9300   82.2300   72.2200 N.am      2 ALA2        0.0000 
     10 N          -8.2300   82.4200   70.9100 N.am      2 ALA2        0.0000 
     11 O         -10.2700   83.4000   73.3800 O.2       2 ALA2        0.0000 
     12 N          -6.4300   81.7000   71.7700 N.am      2 ALA2        0.0000 
     13 OD1       -13.6900   83.0600   69.7900 O.co2     3 ASP3        0.0000 
     14 OD1       -14.3300   84.4100   69.6400 O.co2     3 ASP3        0.0000 
     15 OD1       -12.5300   83.6800   70.5000 O.co2     3 ASP3        0.0000 
     16 OD1       -13.1600   85.0300   70.3500 O.co2     3 ASP3        0.0000 
     17 OD1       -13.8000   86.3800   70.2000 O.co2     3 ASP3        0.0000 
     18 OD1       -10.7300   82.9600   71.3600 O.co2     3 ASP3        0.0000 
     19 OD1       -10.0300   83.1500   70.0500 O.co2     3 ASP3        0.0000 
     20 OD1       -11.3700   84.3100   71.2100 O.co2     3 ASP3        0.0000 
     21 OD1       -12.7000   85.4700   72.3800 O.co2     3 ASP3        0.0000 
     22 OD1       -12.0000   85.6600   71.0600 O.co2     3 ASP3        0.0000 
     23 OD1       -12.6400   87.0100   70.9200 O.co2     3 ASP3        0.0000 
     24 OD1        -9.5700   83.5800   72.0700 O.co2     3 ASP3        0.0000 
     25 OD1       -10.9100   84.7500   73.2300 O.co2     3 ASP3        0.0000 
     26 OD1       -11.5400   86.1000   73.0900 O.co2     3 ASP3        0.0000 
     27 OD1       -12.1800   87.4500   72.9400 O.co2     3 ASP3        0.0000 
     28 OD1        -7.0700   83.0500   71.6200 O.co2     3 ASP3        0.0000 
     29 NZ        -13.4100   77.9400   67.4900 N.4       4 LYS4        0.0000 
     30 NZ        -14.7400   79.1100   68.6600 N.4       4 LYS4        0.0000 
     31 NZ        -14.0400   79.2900   67.3400 N.4       4 LYS4        0.0000 
     32 NZ        -15.3800   80.4600   68.5100 N.4       4 LYS4        0.0000 
     33 NZ        -11.5400   78.7600   66.8900 N.4       4 LYS4        0.0000 
     34 NZ        -13.5800   79.7300   69.3700 N.4       4 LYS4        0.0000 
     35 NZ        -12.8800   79.9200   68.0600 N.4       4 LYS4        0.0000 
     36 NZ        -14.2200   81.0800   69.2200 N.4       4 LYS4        0.0000 
     37 NZ        -14.8500   82.4300   69.0700 N.4       4 LYS4        0.0000 
     38 NZ         -9.6700   79.5700   66.2900 N.4       4 LYS4        0.0000 
     39 NZ        -12.4200   80.3600   70.0800 N.4       4 LYS4        0.0000 
     40 NZ        -11.7200   80.5500   68.7700 N.4       4 LYS4        0.0000 
     41 NZ        -11.0100   80.7300   67.4600 N.4       4 LYS4        0.0000 
     42 NZ        -10.6200   79.6300   70.9400 N.4       4 LYS4        0.0000 
     43 NZ         -9.2100   80.0100   68.3200 N.4       4 LYS4        0.0000 
     44 NZ        -11.2600   80.9800   70.7900 N.4       4 LYS4        0.0000 
     45 NZ        -10.5500   81.1700   69.4800 N.4       4 LYS4        0.0000 
     46 NZ         -9.8500   81.3600   68.1700 N.4       4 LYS4        0.0000 
     47 NZ         -8.7500   80.4500   70.3400 N.4       4 LYS4        0.0000 
     48 NZ         -8.0500   80.6300   69.0300 N.4       4 LYS4        0.0000 
     49 NZ        -12.7700   83.9300   73.8300 N.4       4 LYS4        0.0000 
     50 CZ        -12.9900   83.2500   68.4700 C.ar      5 PHE5        0.0000 
     51 CZ        -13.6200   84.6000   68.3300 C.ar      5 PHE5        0.0000 
     52 CZ        -11.8300   83.8700   69.1900 C.ar      5 PHE5        0.0000 
     53 CZ        -11.1200   84.0600   67.8700 C.ar      5 PHE5        0.0000 
     54 CZ        -12.4600   85.2200   69.0400 C.ar      5 PHE5        0.0000 
     55 CZ        -12.1300   82.5800   73.9800 C.ar      5 PHE5        0.0000 
     56 CZ         -3.9300   81.1600   71.3100 C.ar      5 PHE5        0.0000 
     57 CZ         -5.2700   82.3200   72.4800 C.ar      5 PHE5        0.0000 
     58 CA        -13.1200   80.1700   71.3900 C.3       6 GLY6        0.0000 
     59 CA         -7.8100   80.3800   65.6900 C.3       6 GLY6        0.0000 
     60 CA        -11.9600   80.7900   72.1000 C.3       6 GLY6        0.0000 
     61 CA         -9.1500   81.5500   66.8600 C.3       6 GLY6        0.0000 
     62 CA         -7.3500   80.8200   67.7200 C.3       6 GLY6        0.0000 
     63 CA         -7.9900   82.1700   67.5700 C.3       6 GLY6        0.0000 
     64 CA        -11.3000   85.8500   69.7500 C.3       6 GLY6        0.0000 
     65 CA         -5.5500   80.1000   68.5800 C.3       6 GLY6        0.0000 
     66 CA         -6.8900   81.2600   69.7400 C.3       6 GLY6        0.0000 
     67 CA         -6.1900   81.4500   68.4300 C.3       6 GLY6        0.0000 
     68 CA         -6.8200   82.8000   68.2800 C.3       6 GLY6        0.0000 
     69 CA        -11.6100   84.5600   74.5500 C.3       6 GLY6        0.0000 
     70 CA        -11.4800   87.6400   71.6300 C.3       6 GLY6        0.0000 
     71 CA         -5.0900   80.5300   70.6000 C.3       6 GLY6        0.0000 
     72 CA         -4.3900   80.7200   69.2900 C.3       6 GLY6        0.0000 
     73 CA         -5.0200   82.0700   69.1400 C.3       6 GLY6        0.0000 
     74 CA         -6.3600   83.2300   70.3100 C.3       6 GLY6        0.0000 
     75 CA         -5.6600   83.4200   68.9900 C.3       6 GLY6        0.0000 
     76 CA         -4.5600   82.5100   71.1700 C.3       6 GLY6        0.0000 
     77 CA         -3.8600   82.7000   69.8500 C.3       6 GLY6        0.0000 
     78 CA         -5.2000   83.8600   71.0200 C.3       6 GLY6        0.0000 
     79 DU        -14.6800   80.6500   67.2000 H         7 CUB7        0.0000 
     80 DU        -12.1800   80.1100   66.7400 H         7 CUB7        0.0000 
     81 DU        -13.5100   81.2700   67.9100 H         7 CUB7        0.0000 
     82 DU        -12.8100   81.4600   66.6000 H         7 CUB7        0.0000 
     83 DU        -14.1500   82.6200   67.7600 H         7 CUB7        0.0000 
     84 DU        -10.3100   80.9200   66.1500 H         7 CUB7        0.0000 
     85 DU        -13.0500   81.7100   69.9300 H         7 CUB7        0.0000 
     86 DU        -12.3500   81.9000   68.6200 H         7 CUB7        0.0000 
     87 DU        -11.8900   82.3300   70.6500 H         7 CUB7        0.0000 
     88 DU        -11.1900   82.5200   69.3300 H         7 CUB7        0.0000 
     89 DU        -10.4900   82.7100   68.0200 H         7 CUB7        0.0000 
     90 DU         -9.3900   81.8000   70.1900 H         7 CUB7        0.0000 
     91 DU         -8.6900   81.9800   68.8800 H         7 CUB7        0.0000 
     92 DU        -11.4300   82.7700   72.6700 H         7 CUB7        0.0000 
     93 DU        -12.0700   84.1200   72.5200 H         7 CUB7        0.0000 
     94 DU         -7.5300   82.6100   69.5900 H         7 CUB7        0.0000 
     95 DU         -5.7300   81.8800   70.4500 H         7 CUB7        0.0000 
@<TRIPOS>BOND
@<TRIPOS>SUBSTRUCTURE
     1 SER1        1 GROUP   
     2 ALA2        5 GROUP   
     3 ASP3       13 GROUP   
     4 LYS4       29 GROUP   
     5 PHE5       50 GROUP   
     6 GLY6       58 GROUP   
     7 CUB7       79 GROUP   
@<TRIPOS>SET

