#    Name: 5ynm_1_SAM
#    Modification time : Fri May 22 19:14:15 2020

@<TRIPOS>MOLECULE
5ynm_1_SAM
   27    29     1     0     0
SMALL
NO_CHARGES


@<TRIPOS>ATOM
      1 N          68.7020   85.4660  151.8970 N.4       1 SAM401      0.0000 
      2 CA         68.6000   84.1710  151.1750 C.3       1 SAM401      0.0000 
      3 C          69.8050   83.3940  151.5840 C.2       1 SAM401      0.0000 
      4 O          70.2250   82.5820  150.7230 O.co2     1 SAM401      0.0000 
      5 OXT        70.1410   83.5060  152.7930 O.co2     1 SAM401      0.0000 
      6 CB         68.5460   84.3610  149.6480 C.3       1 SAM401      0.0000 
      7 CG         67.3010   85.2140  149.3370 C.3       1 SAM401      0.0000 
      8 SD         67.0300   85.5670  147.5680 S.3       1 SAM401      0.0000 
      9 CE         68.5020   86.4070  147.0800 C.3       1 SAM401      0.0000 
     10 C5'        65.7010   86.8440  147.4000 C.3       1 SAM401      0.0000 
     11 C4'        64.4450   86.3990  148.1940 C.3       1 SAM401      0.0000 
     12 O4'        63.4780   87.4850  148.2480 O.3       1 SAM401      0.0000 
     13 C3'        63.6890   85.2710  147.3790 C.3       1 SAM401      0.0000 
     14 O3'        63.6670   84.0240  148.1550 O.3       1 SAM401      0.0000 
     15 C2'        62.2900   85.8800  147.2550 C.3       1 SAM401      0.0000 
     16 O2'        61.2740   84.8750  147.3130 O.3       1 SAM401      0.0000 
     17 C1'        62.1980   86.8800  148.4320 C.3       1 SAM401      0.0000 
     18 N9         61.1780   87.9560  148.1690 N.pl3     1 SAM401      0.0000 
     19 C8         61.0750   88.7280  147.0710 C.2       1 SAM401      0.0000 
     20 N7         60.0150   89.5290  147.2040 N.2       1 SAM401      0.0000 
     21 C5         59.4530   89.2820  148.4080 C.ar      1 SAM401      0.0000 
     22 C6         58.3730   89.7740  149.0810 C.ar      1 SAM401      0.0000 
     23 N6         57.5990   90.7380  148.5570 N.pl3     1 SAM401      0.0000 
     24 N1         58.0400   89.3050  150.3020 N.ar      1 SAM401      0.0000 
     25 C2         58.8160   88.2730  150.8760 C.ar      1 SAM401      0.0000 
     26 N3         59.9200   87.7880  150.1850 N.ar      1 SAM401      0.0000 
     27 C4         60.1820   88.2900  148.9700 C.ar      1 SAM401      0.0000 
@<TRIPOS>BOND
     1   11   13 1    
     2   12   17 1    
     3   13   14 1    
     4   13   15 1    
     5   15   16 1    
     6   15   17 1    
     7   17   18 1    
     8   18   19 1    
     9   18   27 1    
    10   19   20 2    
    11   20   21 1    
    12   21   22 ar   
    13   21   27 ar   
    14   22   23 1    
    15   22   24 ar   
    16   24   25 ar   
    17   25   26 ar   
    18   26   27 ar   
    19    1    2 1    
    20    2    3 1    
    21    2    6 1    
    22    3    4 ar   
    23    3    5 ar   
    24    6    7 1    
    25    7    8 1    
    26    8    9 1    
    27    8   10 1    
    28   10   11 1    
    29   11   12 1    
@<TRIPOS>SUBSTRUCTURE
     1 SAM401      1 GROUP   
@<TRIPOS>SET

