#    Name: 5ynm_1_SAM_CAVITY_N1_6
#    Modification time : Fri May 22 19:14:16 2020

@<TRIPOS>MOLECULE
5ynm_1_SAM_CAVITY_N1_6
   82     0     6     0     0
SMALL
NO_CHARGES


@<TRIPOS>ATOM
      1 O          65.0100   82.8800  145.6200 O.2       1 ALA2        0.0000 
      2 N          61.8400   83.9600  145.4400 N.am      1 ALA2        0.0000 
      3 N          65.8600   83.5700  147.4400 N.am      1 ALA2        0.0000 
      4 N          64.4800   83.7900  147.9900 N.am      1 ALA2        0.0000 
      5 O          70.4100   84.2600  146.3000 O.2       1 ALA2        0.0000 
      6 N          68.0800   84.0500  148.7000 N.am      1 ALA2        0.0000 
      7 N          67.6600   84.6900  147.4100 N.am      1 ALA2        0.0000 
      8 N          66.2800   84.9100  147.9700 N.am      1 ALA2        0.0000 
      9 N          65.4400   86.2000  145.3900 N.am      1 ALA2        0.0000 
     10 N          65.0300   86.8400  144.1100 N.am      1 ALA2        0.0000 
     11 N          64.0700   86.4200  145.9500 N.am      1 ALA2        0.0000 
     12 N          62.6900   86.6300  146.5100 N.am      1 ALA2        0.0000 
     13 N          60.9000   87.4900  145.7800 N.am      1 ALA2        0.0000 
     14 O          60.3600   86.4200  148.9100 O.2       1 ALA2        0.0000 
     15 N          67.6700   86.6700  146.6600 N.am      1 ALA2        0.0000 
     16 N          66.7100   86.2400  148.5000 N.am      1 ALA2        0.0000 
     17 N          66.2900   86.8900  147.2100 N.am      1 ALA2        0.0000 
     18 N          65.3300   86.4600  149.0600 N.am      1 ALA2        0.0000 
     19 N          64.9100   87.1100  147.7700 N.am      1 ALA2        0.0000 
     20 N          63.1200   87.9700  147.0400 N.am      1 ALA2        0.0000 
     21 N          61.7400   88.1800  147.6000 N.am      1 ALA2        0.0000 
     22 N          61.3200   88.8300  146.3100 N.am      1 ALA2        0.0000 
     23 N          60.9000   89.4800  145.0200 N.am      1 ALA2        0.0000 
     24 O          59.4100   87.9700  150.0000 O.2       1 ALA2        0.0000 
     25 N          68.0900   88.0100  147.1900 N.am      1 ALA2        0.0000 
     26 O          61.7500   90.1700  146.8400 O.2       1 ALA2        0.0000 
     27 OD1        69.4700   87.7900  146.6300 O.co2     2 ASP3        0.0000 
     28 OD1        69.0500   88.4400  145.3400 O.co2     2 ASP3        0.0000 
     29 NZ         62.6900   84.6500  147.2600 N.4       3 LYS4        0.0000 
     30 NZ         64.9100   85.1200  148.5300 N.4       3 LYS4        0.0000 
     31 NZ         63.1100   85.9900  147.8000 N.4       3 LYS4        0.0000 
     32 NZ         61.7400   86.2000  148.3500 N.4       3 LYS4        0.0000 
     33 NZ         58.6800   89.0000  143.7600 N.4       3 LYS4        0.0000 
     34 NZ         69.4600   85.8100  147.3900 N.4       3 LYS4        0.0000 
     35 NZ         68.0900   86.0300  147.9400 N.4       3 LYS4        0.0000 
     36 NZ         59.5300   89.6900  145.5800 N.4       3 LYS4        0.0000 
     37 CZ         66.4000   86.6300  143.5500 C.ar      4 PHE5        0.0000 
     38 CZ         68.2000   87.7500  143.5300 C.ar      4 PHE5        0.0000 
     39 CZ         66.8300   87.9700  144.0800 C.ar      4 PHE5        0.0000 
     40 CZ         68.6300   89.0900  144.0600 C.ar      4 PHE5        0.0000 
     41 CZ         60.3700   90.3800  147.4000 C.ar      4 PHE5        0.0000 
     42 CZ         59.9500   91.0300  146.1100 C.ar      4 PHE5        0.0000 
     43 CZ         59.0000   90.6000  147.9600 C.ar      4 PHE5        0.0000 
     44 CA         64.6000   85.5100  143.5800 C.3       5 GLY6        0.0000 
     45 CA         64.1800   86.1500  142.2900 C.3       5 GLY6        0.0000 
     46 CA         61.8500   85.9400  144.6900 C.3       5 GLY6        0.0000 
     47 CA         60.8900   85.5100  146.5300 C.3       5 GLY6        0.0000 
     48 CA         60.4700   86.1600  145.2500 C.3       5 GLY6        0.0000 
     49 CA         60.0500   86.8000  143.9600 C.3       5 GLY6        0.0000 
     50 CA         61.3200   86.8500  147.0700 C.3       5 GLY6        0.0000 
     51 CA         60.4800   88.1400  144.4900 C.3       5 GLY6        0.0000 
     52 CA         59.1000   88.3600  145.0500 C.3       5 GLY6        0.0000 
     53 CA         56.3500   88.7900  146.1600 C.3       5 GLY6        0.0000 
     54 CA         67.2500   87.3200  145.3700 C.3       5 GLY6        0.0000 
     55 CA         63.5400   87.3200  148.3300 C.3       5 GLY6        0.0000 
     56 CA         62.1600   87.5400  148.8800 C.3       5 GLY6        0.0000 
     57 CA         60.7900   87.7500  149.4400 C.3       5 GLY6        0.0000 
     58 CA         60.3700   88.4000  148.1500 C.3       5 GLY6        0.0000 
     59 CA         59.9500   89.0500  146.8700 C.3       5 GLY6        0.0000 
     60 CA         58.9900   88.6200  148.7100 C.3       5 GLY6        0.0000 
     61 CA         58.5700   89.2600  147.4200 C.3       5 GLY6        0.0000 
     62 CA         58.1500   89.9100  146.1400 C.3       5 GLY6        0.0000 
     63 CA         57.6100   88.8300  149.2700 C.3       5 GLY6        0.0000 
     64 CA         57.2000   89.4800  147.9800 C.3       5 GLY6        0.0000 
     65 CA         56.7800   90.1200  146.6900 C.3       5 GLY6        0.0000 
     66 CA         67.6700   88.6600  145.9000 C.3       5 GLY6        0.0000 
     67 CA         62.1700   89.5200  148.1300 C.3       5 GLY6        0.0000 
     68 CA         60.7900   89.7400  148.6900 C.3       5 GLY6        0.0000 
     69 CA         59.4200   89.9500  149.2400 C.3       5 GLY6        0.0000 
     70 DU         66.8200   84.0000  145.5900 H         6 CUB7        0.0000 
     71 DU         65.4400   84.2200  146.1500 H         6 CUB7        0.0000 
     72 DU         65.0200   84.8600  144.8600 H         6 CUB7        0.0000 
     73 DU         64.0600   84.4300  146.7100 H         6 CUB7        0.0000 
     74 DU         63.6400   85.0800  145.4200 H         6 CUB7        0.0000 
     75 DU         62.2700   85.2900  145.9800 H         6 CUB7        0.0000 
     76 DU         69.0400   84.4800  146.8600 H         6 CUB7        0.0000 
     77 DU         66.8200   85.9800  144.8400 H         6 CUB7        0.0000 
     78 DU         65.8600   85.5500  146.6800 H         6 CUB7        0.0000 
     79 DU         64.4900   85.7700  147.2400 H         6 CUB7        0.0000 
     80 DU         70.0000   86.8900  144.2600 H         6 CUB7        0.0000 
     81 DU         69.0400   86.4600  146.1000 H         6 CUB7        0.0000 
     82 DU         68.6200   87.1000  144.8100 H         6 CUB7        0.0000 
@<TRIPOS>BOND
@<TRIPOS>SUBSTRUCTURE
     1 ALA2        1 GROUP   
     2 ASP3       27 GROUP   
     3 LYS4       29 GROUP   
     4 PHE5       37 GROUP   
     5 GLY6       44 GROUP   
     6 CUB7       70 GROUP   
@<TRIPOS>SET

