#    Name: 6tz2_1_UTP
#    Modification time : Fri May 22 19:26:30 2020

@<TRIPOS>MOLECULE
6tz2_1_UTP
   29    30     1     0     0
SMALL
NO_CHARGES


@<TRIPOS>ATOM
      1 PA        108.3820  155.2300  142.2590 P.3       1 UTP1302     0.0000 
      2 O1A       109.5110  154.7540  141.4000 O.co2     1 UTP1302     0.0000 
      3 O2A       108.0400  154.1930  143.2920 O.co2     1 UTP1302     0.0000 
      4 O3A       107.0440  155.5120  141.3150 O.3       1 UTP1302     0.0000 
      5 O5'       108.8450  156.6500  142.9770 O.3       1 UTP1302     0.0000 
      6 PB        107.0580  156.5700  140.0430 P.3       1 UTP1302     0.0000 
      7 O1B       106.5880  157.9200  140.4830 O.co2     1 UTP1302     0.0000 
      8 O2B       108.4600  156.6890  139.4690 O.co2     1 UTP1302     0.0000 
      9 O3B       106.0380  156.0050  138.8990 O.3       1 UTP1302     0.0000 
     10 PG        104.4710  156.4400  138.9590 P.3       1 UTP1302     0.0000 
     11 O1G       104.3530  157.8410  138.4300 O.co2     1 UTP1302     0.0000 
     12 O2G       103.6400  155.5030  138.1350 O.co2     1 UTP1302     0.0000 
     13 O3G       104.0210  156.4130  140.4040 O.co2     1 UTP1302     0.0000 
     14 C5'       109.9010  157.3670  142.3580 C.3       1 UTP1302     0.0000 
     15 C4'       110.1550  158.6950  143.1080 C.3       1 UTP1302     0.0000 
     16 O4'       111.5730  158.6540  143.7750 O.3       1 UTP1302     0.0000 
     17 C1'       112.4460  159.6710  143.0580 C.3       1 UTP1302     0.0000 
     18 C2'       111.6470  160.3330  142.2330 C.3       1 UTP1302     0.0000 
     19 O2'       111.5360  161.6890  142.6870 O.3       1 UTP1302     0.0000 
     20 C3'       110.1690  159.6680  142.2520 C.3       1 UTP1302     0.0000 
     21 O3'       109.1990  160.6730  142.6640 O.3       1 UTP1302     0.0000 
     22 N1        113.5550  159.0270  142.3240 N.am      1 UTP1302     0.0000 
     23 C6        113.3350  157.9890  141.5410 C.2       1 UTP1302     0.0000 
     24 C2        114.8080  159.5060  142.4580 C.2       1 UTP1302     0.0000 
     25 O2        115.0170  160.4330  143.1530 O.2       1 UTP1302     0.0000 
     26 N3        115.8300  158.9260  141.7910 N.am      1 UTP1302     0.0000 
     27 C4        115.6000  157.8900  141.0170 C.2       1 UTP1302     0.0000 
     28 O4        116.5030  157.3820  140.4310 O.2       1 UTP1302     0.0000 
     29 C5        114.3540  157.4030  140.8720 C.2       1 UTP1302     0.0000 
@<TRIPOS>BOND
     1    1    2 ar   
     2    1    3 ar   
     3    1    4 1    
     4    1    5 1    
     5    4    6 1    
     6    5   14 1    
     7    6    7 ar   
     8    6    8 ar   
     9    6    9 1    
    10    9   10 1    
    11   10   11 ar   
    12   10   12 ar   
    13   10   13 ar   
    14   14   15 1    
    15   15   16 1    
    16   15   20 1    
    17   16   17 1    
    18   17   18 1    
    19   17   22 1    
    20   18   19 1    
    21   18   20 1    
    22   20   21 1    
    23   22   23 1    
    24   22   24 1    
    25   23   29 2    
    26   24   25 2    
    27   24   26 1    
    28   26   27 1    
    29   27   28 2    
    30   27   29 1    
@<TRIPOS>SUBSTRUCTURE
     1 UTP1302     1 GROUP   
@<TRIPOS>SET

