#    Name: 6tz2_1_UTP_CAVITY_N1_4
#    Modification time : Fri May 22 19:26:32 2020

@<TRIPOS>MOLECULE
6tz2_1_UTP_CAVITY_N1_4
  126     0     7     0     0
SMALL
NO_CHARGES


@<TRIPOS>ATOM
      1 OG        110.7600  160.7400  144.2700 O.3       1 SER1        0.0000 
      2 OG        114.0900  160.8300  143.9000 O.3       1 SER1        0.0000 
      3 OG        112.7700  161.4200  144.3000 O.3       1 SER1        0.0000 
      4 O         102.1500  156.6600  138.7400 O.2       2 ALA2        0.0000 
      5 O         104.1600  157.3300  138.7700 O.2       2 ALA2        0.0000 
      6 N         109.3200  155.1200  142.1400 N.am      2 ALA2        0.0000 
      7 O         104.8500  158.5900  139.2000 O.2       2 ALA2        0.0000 
      8 N         110.0100  156.3800  142.5700 N.am      2 ALA2        0.0000 
      9 N         108.6900  156.9700  142.9700 N.am      2 ALA2        0.0000 
     10 O         106.8700  159.2600  139.2400 O.2       2 ALA2        0.0000 
     11 N         106.5300  160.3900  136.4800 N.am      2 ALA2        0.0000 
     12 O         105.5400  159.8500  139.6400 O.2       2 ALA2        0.0000 
     13 O         107.5600  160.5200  139.6700 O.2       2 ALA2        0.0000 
     14 N         110.2400  158.9200  145.2200 N.am      2 ALA2        0.0000 
     15 N         113.5700  159.0000  144.8500 N.am      2 ALA2        0.0000 
     16 N         113.4000  159.5700  143.4700 N.am      2 ALA2        0.0000 
     17 N         112.4200  159.0200  146.6300 N.am      2 ALA2        0.0000 
     18 N         112.2500  159.5900  145.2500 N.am      2 ALA2        0.0000 
     19 N         114.2600  160.2600  145.2800 N.am      2 ALA2        0.0000 
     20 OD1       104.7300  152.3800  136.6700 O.co2     3 ASP3        0.0000 
     21 OD1       104.5600  152.9400  135.2900 O.co2     3 ASP3        0.0000 
     22 OD1       103.2400  153.5300  135.6900 O.co2     3 ASP3        0.0000 
     23 OD1       107.2400  151.3500  140.8400 O.co2     3 ASP3        0.0000 
     24 OD1       106.0900  151.3700  142.6200 O.co2     3 ASP3        0.0000 
     25 OD1       105.9200  151.9400  141.2400 O.co2     3 ASP3        0.0000 
     26 OD1       105.7500  152.5000  139.8600 O.co2     3 ASP3        0.0000 
     27 OD1       105.2500  154.2000  135.7200 O.co2     3 ASP3        0.0000 
     28 OD1       103.9300  154.7900  136.1200 O.co2     3 ASP3        0.0000 
     29 OD1       102.6100  155.3800  136.5200 O.co2     3 ASP3        0.0000 
     30 OD1       102.4400  155.9500  135.1500 O.co2     3 ASP3        0.0000 
     31 OD1       107.9300  152.6100  141.2700 O.co2     3 ASP3        0.0000 
     32 OD1       107.7600  153.1700  139.8900 O.co2     3 ASP3        0.0000 
     33 OD1       107.6000  153.7400  138.5100 O.co2     3 ASP3        0.0000 
     34 OD1       107.4300  154.3100  137.1300 O.co2     3 ASP3        0.0000 
     35 OD1       107.2600  154.8700  135.7500 O.co2     3 ASP3        0.0000 
     36 OD1       106.4400  153.7600  140.2900 O.co2     3 ASP3        0.0000 
     37 OD1       106.2800  154.3300  138.9100 O.co2     3 ASP3        0.0000 
     38 OD1       106.1100  154.8900  137.5300 O.co2     3 ASP3        0.0000 
     39 OD1       105.9400  155.4600  136.1600 O.co2     3 ASP3        0.0000 
     40 OD1       105.1200  154.3500  140.6900 O.co2     3 ASP3        0.0000 
     41 OD1       104.9600  154.9200  139.3100 O.co2     3 ASP3        0.0000 
     42 OD1       104.7900  155.4800  137.9400 O.co2     3 ASP3        0.0000 
     43 OD1       103.6400  155.5000  139.7200 O.co2     3 ASP3        0.0000 
     44 OD1       103.4700  156.0700  138.3400 O.co2     3 ASP3        0.0000 
     45 OD1       108.6200  153.8700  141.7000 O.co2     3 ASP3        0.0000 
     46 OD1       108.4600  154.4300  140.3200 O.co2     3 ASP3        0.0000 
     47 OD1       107.1400  155.0200  140.7300 O.co2     3 ASP3        0.0000 
     48 OD1       106.9700  155.5900  139.3500 O.co2     3 ASP3        0.0000 
     49 OD1       106.8000  156.1500  137.9700 O.co2     3 ASP3        0.0000 
     50 OD1       105.4800  156.7400  138.3700 O.co2     3 ASP3        0.0000 
     51 OD1       102.5100  159.0500  136.4100 O.co2     3 ASP3        0.0000 
     52 OD1       110.4700  155.1000  140.3600 O.co2     3 ASP3        0.0000 
     53 OD1       109.1500  155.6900  140.7600 O.co2     3 ASP3        0.0000 
     54 OD1       107.9900  155.7100  142.5400 O.co2     3 ASP3        0.0000 
     55 OD1       107.8300  156.2800  141.1600 O.co2     3 ASP3        0.0000 
     56 OD1       107.6600  156.8400  139.7800 O.co2     3 ASP3        0.0000 
     57 OD1       107.4900  157.4100  138.4000 O.co2     3 ASP3        0.0000 
     58 OD1       106.1700  158.0000  138.8000 O.co2     3 ASP3        0.0000 
     59 OD1       104.6900  159.1500  137.8300 O.co2     3 ASP3        0.0000 
     60 OD1       111.1600  156.3600  140.7900 O.co2     3 ASP3        0.0000 
     61 OD1       109.8400  156.9500  141.1900 O.co2     3 ASP3        0.0000 
     62 OD1       109.6700  157.5200  139.8100 O.co2     3 ASP3        0.0000 
     63 OD1       108.5200  157.5400  141.5900 O.co2     3 ASP3        0.0000 
     64 OD1       108.3500  158.1000  140.2100 O.co2     3 ASP3        0.0000 
     65 OD1       108.1900  158.6700  138.8400 O.co2     3 ASP3        0.0000 
     66 OD1       108.0200  159.2400  137.4600 O.co2     3 ASP3        0.0000 
     67 OD1       107.0300  158.6900  140.6200 O.co2     3 ASP3        0.0000 
     68 OD1       106.7000  159.8200  137.8600 O.co2     3 ASP3        0.0000 
     69 OD1       105.2100  160.9800  136.8800 O.co2     3 ASP3        0.0000 
     70 OD1       113.1700  157.0300  140.8200 O.co2     3 ASP3        0.0000 
     71 OD1       111.8500  157.6200  141.2200 O.co2     3 ASP3        0.0000 
     72 OD1       110.5300  158.2100  141.6200 O.co2     3 ASP3        0.0000 
     73 OD1       108.8800  159.9300  139.2700 O.co2     3 ASP3        0.0000 
     74 NZ        102.4200  152.4200  140.2300 N.4       4 LYS4        0.0000 
     75 NZ        104.6000  152.5200  141.6400 N.4       4 LYS4        0.0000 
     76 NZ        104.4300  153.0900  140.2600 N.4       4 LYS4        0.0000 
     77 NZ        103.1100  153.6800  140.6600 N.4       4 LYS4        0.0000 
     78 NZ        101.7900  154.2700  141.0600 N.4       4 LYS4        0.0000 
     79 NZ        109.0400  159.3600  140.6500 N.4       4 LYS4        0.0000 
     80 NZ        111.2200  159.4700  142.0600 N.4       4 LYS4        0.0000 
     81 NZ        111.0600  160.0300  140.6800 N.4       4 LYS4        0.0000 
     82 NZ        109.9000  160.0500  142.4600 N.4       4 LYS4        0.0000 
     83 NZ        111.9200  160.7200  142.4900 N.4       4 LYS4        0.0000 
     84 NZ        110.5900  161.3100  142.8900 N.4       4 LYS4        0.0000 
     85 CZ        110.9300  160.1800  145.6500 C.ar      5 PHE5        0.0000 
     86 CA        106.9100  152.4800  138.0800 C.3       6 GLY6        0.0000 
     87 CA        106.7400  153.0500  136.7000 C.3       6 GLY6        0.0000 
     88 CA        101.6200  154.8300  139.6800 C.3       6 GLY6        0.0000 
     89 CA        101.2900  155.9700  136.9300 C.3       6 GLY6        0.0000 
     90 CA        102.3200  156.0900  140.1200 C.3       6 GLY6        0.0000 
     91 CA        103.2000  160.3100  136.8500 C.3       6 GLY6        0.0000 
     92 CA        105.3800  160.4100  138.2600 C.3       6 GLY6        0.0000 
     93 CA        103.8900  161.5700  137.2800 C.3       6 GLY6        0.0000 
     94 CA        112.0200  157.0500  142.6000 C.3       6 GLY6        0.0000 
     95 CA        110.7000  157.6400  143.0000 C.3       6 GLY6        0.0000 
     96 CA        110.3600  158.7700  140.2500 C.3       6 GLY6        0.0000 
     97 CA        109.3800  158.2300  143.4000 C.3       6 GLY6        0.0000 
     98 CA        108.0600  158.8200  143.8100 C.3       6 GLY6        0.0000 
     99 CA        107.8900  159.3800  142.4300 C.3       6 GLY6        0.0000 
    100 CA        107.7200  159.9500  141.0500 C.3       6 GLY6        0.0000 
    101 CA        113.8600  158.2900  141.2600 C.3       6 GLY6        0.0000 
    102 CA        112.7100  158.3100  143.0400 C.3       6 GLY6        0.0000 
    103 CA        112.5400  158.8800  141.6600 C.3       6 GLY6        0.0000 
    104 CA        111.5600  158.3300  144.8200 C.3       6 GLY6        0.0000 
    105 CA        111.3900  158.9000  143.4400 C.3       6 GLY6        0.0000 
    106 CA        110.8900  160.6000  139.3000 C.3       6 GLY6        0.0000 
    107 CA        108.7500  160.0700  144.2400 C.3       6 GLY6        0.0000 
    108 CA        108.5800  160.6400  142.8600 C.3       6 GLY6        0.0000 
    109 CA        113.2400  160.1400  142.0900 C.3       6 GLY6        0.0000 
    110 CA        112.6100  161.9800  142.9300 C.3       6 GLY6        0.0000 
    111 DU        104.8900  151.8100  138.0500 H         7 CUB7        0.0000 
    112 DU        103.5700  152.4000  138.4500 H         7 CUB7        0.0000 
    113 DU        103.4100  152.9700  137.0700 H         7 CUB7        0.0000 
    114 DU        102.2500  152.9900  138.8500 H         7 CUB7        0.0000 
    115 DU        102.0900  153.5500  137.4700 H         7 CUB7        0.0000 
    116 DU        101.9200  154.1200  136.0900 H         7 CUB7        0.0000 
    117 DU        105.5900  153.0700  138.4800 H         7 CUB7        0.0000 
    118 DU        105.4200  153.6400  137.1000 H         7 CUB7        0.0000 
    119 DU        104.2700  153.6600  138.8800 H         7 CUB7        0.0000 
    120 DU        104.1000  154.2200  137.5000 H         7 CUB7        0.0000 
    121 DU        102.9400  154.2400  139.2800 H         7 CUB7        0.0000 
    122 DU        102.7800  154.8100  137.9000 H         7 CUB7        0.0000 
    123 DU        109.2100  158.7900  142.0300 H         7 CUB7        0.0000 
    124 DU        107.3900  161.0800  138.2900 H         7 CUB7        0.0000 
    125 DU        110.0700  159.4900  143.8400 H         7 CUB7        0.0000 
    126 DU        112.0800  160.1600  143.8700 H         7 CUB7        0.0000 
@<TRIPOS>BOND
@<TRIPOS>SUBSTRUCTURE
     1 SER1        1 GROUP   
     2 ALA2        4 GROUP   
     3 ASP3       20 GROUP   
     4 LYS4       74 GROUP   
     5 PHE5       85 GROUP   
     6 GLY6       86 GROUP   
     7 CUB7      111 GROUP   
@<TRIPOS>SET

