#    Name: 6tz2_2_ATP
#    Modification time : Fri May 22 19:26:41 2020

@<TRIPOS>MOLECULE
6tz2_2_ATP
   31    33     1     0     1
SMALL
NO_CHARGES


@<TRIPOS>ATOM
      1 PG        130.8160  138.8000  115.5380 P.3       1 ATP1301     0.0000 
      2 O1G       129.7980  137.7500  115.0710 O.co2     1 ATP1301     0.0000 
      3 O2G       131.1570  138.5570  116.9880 O.co2     1 ATP1301     0.0000 
      4 O3G       130.2090  140.1760  115.3960 O.co2     1 ATP1301     0.0000 
      5 PB        133.6850  138.6190  115.2320 P.3       1 ATP1301     0.0000 
      6 O1B       133.8010  139.6090  116.3800 O.co2     1 ATP1301     0.0000 
      7 O2B       133.9540  137.2300  115.7210 O.co2     1 ATP1301     0.0000 
      8 O3B       132.1760  138.6890  114.6100 O.3       1 ATP1301     0.0000 
      9 PA        134.4290  139.1330  112.4530 P.3       1 ATP1301     0.0000 
     10 O1A       134.0500  137.7710  111.9070 O.co2     1 ATP1301     0.0000 
     11 O2A       135.6340  139.6770  111.6800 O.co2     1 ATP1301     0.0000 
     12 O3A       134.8020  138.9990  114.0660 O.3       1 ATP1301     0.0000 
     13 O5'       133.1170  140.2040  112.2610 O.3       1 ATP1301     0.0000 
     14 C5'       132.4610  140.1990  110.9660 C.3       1 ATP1301     0.0000 
     15 C4'       131.4490  141.1670  110.9160 C.3       1 ATP1301     0.0000 
     16 O4'       130.2870  140.6680  110.1020 O.3       1 ATP1301     0.0000 
     17 C3'       130.7860  141.4080  112.3500 C.3       1 ATP1301     0.0000 
     18 O3'       131.6430  142.3330  113.1630 O.3       1 ATP1301     0.0000 
     19 C2'       129.7240  141.9760  112.0460 C.3       1 ATP1301     0.0000 
     20 O2'       130.0060  143.4140  111.8280 O.3       1 ATP1301     0.0000 
     21 C1'       129.2420  141.2840  110.6200 C.3       1 ATP1301     0.0000 
     22 N9        128.1970  140.3720  110.8590 N.pl3     1 ATP1301     0.0000 
     23 C8        127.7120  139.5970  111.8180 C.2       1 ATP1301     0.0000 
     24 N7        126.6330  138.9880  111.2930 N.2       1 ATP1301     0.0000 
     25 C5        126.4740  139.4200  110.0310 C.ar      1 ATP1301     0.0000 
     26 C6        125.5490  139.1220  109.0510 C.ar      1 ATP1301     0.0000 
     27 N6        124.3770  138.3350  108.7950 N.pl3     1 ATP1301     0.0000 
     28 N1        125.6360  139.6930  107.8630 N.ar      1 ATP1301     0.0000 
     29 C2        126.6320  140.5690  107.5890 C.ar      1 ATP1301     0.0000 
     30 N3        127.5400  140.8590  108.5440 N.ar      1 ATP1301     0.0000 
     31 C4        127.4510  140.2780  109.7540 C.ar      1 ATP1301     0.0000 
@<TRIPOS>BOND
     1    1    2 ar   
     2    1    3 ar   
     3    1    4 ar   
     4    1    8 1    
     5    5    6 ar   
     6    5    7 ar   
     7    5    8 1    
     8    5   12 1    
     9    9   10 ar   
    10    9   11 ar   
    11    9   12 1    
    12    9   13 1    
    13   13   14 1    
    14   14   15 1    
    15   15   16 1    
    16   15   17 1    
    17   16   21 1    
    18   17   18 1    
    19   17   19 1    
    20   19   20 1    
    21   19   21 1    
    22   21   22 1    
    23   22   23 1    
    24   22   31 1    
    25   23   24 2    
    26   24   25 1    
    27   25   26 ar   
    28   25   31 ar   
    29   26   27 1    
    30   26   28 ar   
    31   28   29 ar   
    32   29   30 ar   
    33   30   31 ar   
@<TRIPOS>SUBSTRUCTURE
     1 ATP1301     1 GROUP   
@<TRIPOS>SET
ATOM$ORANGE STATIC     ATOMS   COLORGROUP SYSTEM 
20 14 14 15 15 17 17 19 19 21 21 23 23 25 25 26 26 29 \
29 31 31 

