#    Name: 6tz2_2_ATP_CAVITY_N1_4
#    Modification time : Fri May 22 19:26:42 2020

@<TRIPOS>MOLECULE
6tz2_2_ATP_CAVITY_N1_4
   62     0     6     0     0
SMALL
NO_CHARGES


@<TRIPOS>ATOM
      1 O         123.6000  137.3600  108.6300 O.2       1 ALA2        0.0000 
      2 O         124.2900  138.6200  109.0600 O.2       1 ALA2        0.0000 
      3 O         126.1400  139.8600  107.7100 O.2       1 ALA2        0.0000 
      4 N         128.1900  140.1100  114.1000 N.am      1 ALA2        0.0000 
      5 N         126.8700  140.6900  114.5000 N.am      1 ALA2        0.0000 
      6 N         128.8800  141.3600  114.5300 N.am      1 ALA2        0.0000 
      7 N         129.7400  142.0600  116.3400 N.am      1 ALA2        0.0000 
      8 OD1       126.2400  136.1900  107.8200 O.co2     2 ASP3        0.0000 
      9 OD1       126.7700  138.0100  106.8800 O.co2     2 ASP3        0.0000 
     10 OD1       125.7800  137.4600  110.0400 O.co2     2 ASP3        0.0000 
     11 OD1       125.6100  138.0300  108.6600 O.co2     2 ASP3        0.0000 
     12 OD1       126.9700  137.0200  114.6100 O.co2     2 ASP3        0.0000 
     13 OD1       126.8100  137.5900  113.2300 O.co2     2 ASP3        0.0000 
     14 OD1       126.6400  138.1600  111.8500 O.co2     2 ASP3        0.0000 
     15 OD1       126.4700  138.7200  110.4700 O.co2     2 ASP3        0.0000 
     16 OD1       126.3000  139.2900  109.0900 O.co2     2 ASP3        0.0000 
     17 OD1       128.9800  137.6900  114.6400 O.co2     2 ASP3        0.0000 
     18 OD1       128.8200  138.2600  113.2600 O.co2     2 ASP3        0.0000 
     19 OD1       131.0000  138.3600  114.6700 O.co2     2 ASP3        0.0000 
     20 OD1       129.5100  139.5200  113.6900 O.co2     2 ASP3        0.0000 
     21 OD1       129.3400  140.0900  112.3200 O.co2     2 ASP3        0.0000 
     22 OD1       129.1800  140.6500  110.9400 O.co2     2 ASP3        0.0000 
     23 NZ        126.0700  136.7500  106.4500 N.4       3 LYS4        0.0000 
     24 NZ        125.4500  138.6000  107.2800 N.4       3 LYS4        0.0000 
     25 NZ        127.6600  138.2800  115.0400 N.4       3 LYS4        0.0000 
     26 NZ        126.3400  138.8700  115.4400 N.4       3 LYS4        0.0000 
     27 NZ        129.6800  138.9500  115.0700 N.4       3 LYS4        0.0000 
     28 NZ        128.3600  139.5400  115.4700 N.4       3 LYS4        0.0000 
     29 NZ        127.0400  140.1300  115.8800 N.4       3 LYS4        0.0000 
     30 NZ        130.3700  140.2100  115.5100 N.4       3 LYS4        0.0000 
     31 NZ        129.0500  140.8000  115.9100 N.4       3 LYS4        0.0000 
     32 NZ        130.8900  142.0400  114.5600 N.4       3 LYS4        0.0000 
     33 CZ        124.4000  134.9500  109.1700 C.ar      4 PHE5        0.0000 
     34 CZ        123.7700  136.7900  110.0100 C.ar      4 PHE5        0.0000 
     35 CZ        124.7900  136.9200  113.2000 C.ar      4 PHE5        0.0000 
     36 CZ        124.6300  137.4900  111.8200 C.ar      4 PHE5        0.0000 
     37 CZ        124.9800  139.8800  109.4900 C.ar      4 PHE5        0.0000 
     38 CZ        124.1600  138.7600  114.0300 C.ar      4 PHE5        0.0000 
     39 CZ        127.1600  139.9800  110.9000 C.ar      4 PHE5        0.0000 
     40 CZ        127.0000  140.5500  109.5300 C.ar      4 PHE5        0.0000 
     41 CZ        126.8300  141.1200  108.1500 C.ar      4 PHE5        0.0000 
     42 CZ        128.0200  140.6700  112.7200 C.ar      4 PHE5        0.0000 
     43 CZ        127.8600  141.2400  111.3400 C.ar      4 PHE5        0.0000 
     44 CZ        127.6900  141.8100  109.9600 C.ar      4 PHE5        0.0000 
     45 CZ        128.7100  141.9300  113.1500 C.ar      4 PHE5        0.0000 
     46 CA        125.5500  134.9300  107.3900 C.3       5 GLY6        0.0000 
     47 CA        124.2300  135.5100  107.7900 C.3       5 GLY6        0.0000 
     48 CA        125.0900  136.2100  109.6000 C.3       5 GLY6        0.0000 
     49 CA        124.9200  136.7700  108.2300 C.3       5 GLY6        0.0000 
     50 CA        126.1100  136.3300  112.8000 C.3       5 GLY6        0.0000 
     51 CA        125.9500  136.9000  111.4200 C.3       5 GLY6        0.0000 
     52 CA        124.4600  138.0500  110.4400 C.3       5 GLY6        0.0000 
     53 CA        123.3100  138.0700  112.2200 C.3       5 GLY6        0.0000 
     54 CA        123.1400  138.6400  110.8400 C.3       5 GLY6        0.0000 
     55 CA        125.4800  138.1800  113.6300 C.3       5 GLY6        0.0000 
     56 CA        125.3200  138.7400  112.2500 C.3       5 GLY6        0.0000 
     57 CA        125.1500  139.3100  110.8700 C.3       5 GLY6        0.0000 
     58 CA        127.5000  138.8500  113.6600 C.3       5 GLY6        0.0000 
     59 CA        127.3300  139.4100  112.2800 C.3       5 GLY6        0.0000 
     60 CA        126.1800  139.4400  114.0600 C.3       5 GLY6        0.0000 
     61 DU        130.2000  140.7800  114.1300 H         6 CUB7        0.0000 
     62 DU        131.0600  141.4700  115.9400 H         6 CUB7        0.0000 
@<TRIPOS>BOND
@<TRIPOS>SUBSTRUCTURE
     1 ALA2        1 GROUP   
     2 ASP3        8 GROUP   
     3 LYS4       23 GROUP   
     4 PHE5       33 GROUP   
     5 GLY6       46 GROUP   
     6 CUB7       61 GROUP   
@<TRIPOS>SET

