#    Name: 5uw0_1_U2F
#    Modification time : Fri May 22 19:19:29 2020

@<TRIPOS>MOLECULE
5uw0_1_U2F
   36    38     1     0     0
SMALL
NO_CHARGES


@<TRIPOS>ATOM
      1 C1         73.0340   47.3250   67.0110 C.3       1 U2F801      0.0000 
      2 O1         72.9270   47.2390   68.5250 O.3       1 U2F801      0.0000 
      3 PB         71.7410   46.9610   69.6790 P.3       1 U2F801      0.0000 
      4 O1B        72.2570   46.8550   71.1020 O.co2     1 U2F801      0.0000 
      5 O2B        70.8050   45.8390   69.3450 O.co2     1 U2F801      0.0000 
      6 O3A        71.0130   48.4020   69.6450 O.3       1 U2F801      0.0000 
      7 PA         69.4240   48.6680   69.8020 P.3       1 U2F801      0.0000 
      8 O1A        68.7950   48.5050   68.4400 O.co2     1 U2F801      0.0000 
      9 O2A        69.3430   50.0210   70.4870 O.co2     1 U2F801      0.0000 
     10 O5'        68.8030   47.4810   70.7140 O.3       1 U2F801      0.0000 
     11 C5'        68.8450   47.5510   72.1500 C.3       1 U2F801      0.0000 
     12 C4'        67.5810   46.9980   72.7980 C.3       1 U2F801      0.0000 
     13 O4'        67.7940   46.8400   74.2100 O.3       1 U2F801      0.0000 
     14 C1'        66.5510   47.1430   74.8760 C.3       1 U2F801      0.0000 
     15 C2'        65.8930   48.2370   74.0220 C.3       1 U2F801      0.0000 
     16 C3'        66.3530   47.8990   72.6170 C.3       1 U2F801      0.0000 
     17 O3'        65.3260   47.1870   71.9170 O.3       1 U2F801      0.0000 
     18 O2'        64.4700   48.2150   74.1990 O.3       1 U2F801      0.0000 
     19 N1         66.6870   47.5260   76.3090 N.am      1 U2F801      0.0000 
     20 C6'        66.1380   46.7050   77.3260 C.2       1 U2F801      0.0000 
     21 O6'        65.5430   45.6540   77.0460 O.2       1 U2F801      0.0000 
     22 N3         66.2430   47.0360   78.6220 N.am      1 U2F801      0.0000 
     23 C7'        66.8750   48.1670   78.9890 C.2       1 U2F801      0.0000 
     24 O7'        66.9690   48.4760   80.2040 O.2       1 U2F801      0.0000 
     25 C8'        67.4330   49.0040   78.0190 C.2       1 U2F801      0.0000 
     26 C9'        67.3230   48.6610   76.6730 C.2       1 U2F801      0.0000 
     27 C2         71.9880   48.0190   66.0930 C.3       1 U2F801      0.0000 
     28 F1         71.9340   49.3670   66.3350 F         1 U2F801      0.0000 
     29 C3         70.6190   47.3020   66.1350 C.3       1 U2F801      0.0000 
     30 O3         69.4920   47.9910   65.5520 O.3       1 U2F801      0.0000 
     31 C4         70.8330   45.9430   65.4810 C.3       1 U2F801      0.0000 
     32 O4         69.5770   45.2160   65.4340 O.3       1 U2F801      0.0000 
     33 C5         71.9540   45.3040   66.3190 C.3       1 U2F801      0.0000 
     34 C6         72.3260   43.9080   65.9230 C.3       1 U2F801      0.0000 
     35 O6         71.0860   43.2210   65.9150 O.3       1 U2F801      0.0000 
     36 O5         73.1580   46.0780   66.3070 O.3       1 U2F801      0.0000 
@<TRIPOS>BOND
     1    1    2 1    
     2    1   27 1    
     3    1   36 1    
     4    2    3 1    
     5    3    4 ar   
     6    3    5 ar   
     7    3    6 1    
     8    6    7 1    
     9    7    8 ar   
    10    7    9 ar   
    11    7   10 1    
    12   10   11 1    
    13   11   12 1    
    14   12   13 1    
    15   12   16 1    
    16   13   14 1    
    17   14   15 1    
    18   14   19 1    
    19   15   16 1    
    20   15   18 1    
    21   16   17 1    
    22   19   20 1    
    23   19   26 1    
    24   20   21 2    
    25   20   22 1    
    26   22   23 1    
    27   23   24 2    
    28   23   25 1    
    29   25   26 2    
    30   27   28 1    
    31   27   29 1    
    32   29   30 1    
    33   29   31 1    
    34   31   32 1    
    35   31   33 1    
    36   33   34 1    
    37   33   36 1    
    38   34   35 1    
@<TRIPOS>SUBSTRUCTURE
     1 U2F801      1 GROUP   
@<TRIPOS>SET

