#    Name: 6bxk_1_MTA
#    Modification time : Fri May 22 19:35:54 2020

@<TRIPOS>MOLECULE
6bxk_1_MTA
   20    22     1     0     0
SMALL
NO_CHARGES


@<TRIPOS>ATOM
      1 CS         26.6460   28.0140   23.4500 C.3       1 MTA401      0.0000 
      2 S5'        25.5930   29.4250   23.4510 S.3       1 MTA401      0.0000 
      3 C5'        26.6100   30.6120   22.6240 C.3       1 MTA401      0.0000 
      4 C4'        26.8340   30.2940   21.1440 C.3       1 MTA401      0.0000 
      5 O4'        25.5990   30.3220   20.4260 O.3       1 MTA401      0.0000 
      6 C2'        27.0040   31.8780   19.3020 C.3       1 MTA401      0.0000 
      7 O2'        27.6610   31.4730   18.0980 O.3       1 MTA401      0.0000 
      8 C3'        27.7440   31.3300   20.5020 C.3       1 MTA401      0.0000 
      9 O3'        28.9750   30.7200   20.1000 O.3       1 MTA401      0.0000 
     10 C1'        25.6140   31.2740   19.3660 C.3       1 MTA401      0.0000 
     11 N9         24.6600   32.3480   19.7220 N.pl3     1 MTA401      0.0000 
     12 C8         24.1690   32.5960   20.9520 C.2       1 MTA401      0.0000 
     13 N7         23.3220   33.6550   20.9290 N.2       1 MTA401      0.0000 
     14 C5         23.2690   34.1080   19.6600 C.ar      1 MTA401      0.0000 
     15 C6         22.5710   35.1920   18.9290 C.ar      1 MTA401      0.0000 
     16 N6         21.7290   36.0480   19.5550 N.pl3     1 MTA401      0.0000 
     17 N1         22.7980   35.3010   17.6030 N.ar      1 MTA401      0.0000 
     18 C2         23.6220   34.4690   16.9490 C.ar      1 MTA401      0.0000 
     19 N3         24.2860   33.4670   17.5430 N.ar      1 MTA401      0.0000 
     20 C4         24.1540   33.2400   18.8710 C.ar      1 MTA401      0.0000 
@<TRIPOS>BOND
     1    1    2 1    
     2    2    3 1    
     3    3    4 1    
     4    4    5 1    
     5    4    8 1    
     6    5   10 1    
     7    6    7 1    
     8    6    8 1    
     9    6   10 1    
    10    8    9 1    
    11   10   11 1    
    12   11   12 1    
    13   11   20 1    
    14   12   13 2    
    15   13   14 1    
    16   14   15 ar   
    17   14   20 ar   
    18   15   16 1    
    19   15   17 ar   
    20   17   18 ar   
    21   18   19 ar   
    22   19   20 ar   
@<TRIPOS>SUBSTRUCTURE
     1 MTA401      1 GROUP   
@<TRIPOS>SET

