#    Name: 6bxk_2_MTA_CAVITY_N1_8
#    Modification time : Fri May 22 19:35:57 2020

@<TRIPOS>MOLECULE
6bxk_2_MTA_CAVITY_N1_8
   80     0     6     0     0
SMALL
NO_CHARGES


@<TRIPOS>ATOM
      1 OG          8.9100   36.5100   -7.2000 O.3       1 SER1        0.0000 
      2 OG          9.0500   37.8400   -7.8800 O.3       1 SER1        0.0000 
      3 OG         10.8200   39.5700   -4.1300 O.3       1 SER1        0.0000 
      4 OG         12.2000   39.1900   -4.6000 O.3       1 SER1        0.0000 
      5 OG         10.9600   40.9000   -4.8100 O.3       1 SER1        0.0000 
      6 OG         12.3300   40.5200   -5.2900 O.3       1 SER1        0.0000 
      7 N           6.3500   33.8600   -2.9600 N.am      2 ALA2        0.0000 
      8 O           7.7200   33.4800   -3.4400 O.2       2 ALA2        0.0000 
      9 O           7.8600   34.8100   -4.1200 O.2       2 ALA2        0.0000 
     10 O           8.0000   36.1400   -4.8000 O.2       2 ALA2        0.0000 
     11 O           9.3700   35.7600   -5.2700 O.2       2 ALA2        0.0000 
     12 O          11.1500   39.3600   -7.7900 O.2       2 ALA2        0.0000 
     13 N           6.8100   33.1100   -1.0300 N.am      2 ALA2        0.0000 
     14 N           5.5700   34.8200   -1.2400 N.am      2 ALA2        0.0000 
     15 N           6.9500   34.4400   -1.7100 N.am      2 ALA2        0.0000 
     16 N           8.3200   34.0600   -2.1900 N.am      2 ALA2        0.0000 
     17 N           9.6900   33.6800   -2.6600 N.am      2 ALA2        0.0000 
     18 N           8.4500   35.3900   -2.8700 N.am      2 ALA2        0.0000 
     19 N           9.8200   35.0100   -3.3400 N.am      2 ALA2        0.0000 
     20 N           8.5900   36.7200   -3.5500 N.am      2 ALA2        0.0000 
     21 N           9.9600   36.3400   -4.0200 N.am      2 ALA2        0.0000 
     22 O          11.7400   39.9400   -6.5400 O.2       2 ALA2        0.0000 
     23 N           8.7700   33.3100   -0.2500 N.am      2 ALA2        0.0000 
     24 N          10.1500   32.9300   -0.7300 N.am      2 ALA2        0.0000 
     25 N          11.5200   32.5400   -1.2000 N.am      2 ALA2        0.0000 
     26 N           8.9100   34.6400   -0.9400 N.am      2 ALA2        0.0000 
     27 N          10.2800   34.2600   -1.4100 N.am      2 ALA2        0.0000 
     28 N          11.6500   33.8700   -1.8800 N.am      2 ALA2        0.0000 
     29 N           6.3000   36.7300   -0.6700 N.am      2 ALA2        0.0000 
     30 N           7.6700   36.3500   -1.1400 N.am      2 ALA2        0.0000 
     31 N          11.7900   35.2000   -2.5600 N.am      2 ALA2        0.0000 
     32 O           6.4400   38.0600   -1.3500 O.2       2 ALA2        0.0000 
     33 N          11.9200   36.5300   -3.2400 N.am      2 ALA2        0.0000 
     34 N          13.3000   36.1500   -3.7200 N.am      2 ALA2        0.0000 
     35 N           9.3200   38.6300   -2.9800 N.am      2 ALA2        0.0000 
     36 N          10.6900   38.2400   -3.4500 N.am      2 ALA2        0.0000 
     37 N          12.0600   37.8600   -3.9200 N.am      2 ALA2        0.0000 
     38 O          10.7400   33.5100    0.5200 O.2       2 ALA2        0.0000 
     39 OD1         9.1000   33.1000   -3.9100 O.co2     3 ASP3        0.0000 
     40 OD1         9.2300   34.4300   -4.5900 O.co2     3 ASP3        0.0000 
     41 OD1        10.7400   35.3700   -5.7400 O.co2     3 ASP3        0.0000 
     42 OD1        12.1100   34.9900   -6.2200 O.co2     3 ASP3        0.0000 
     43 OD1        12.2500   36.3200   -6.9000 O.co2     3 ASP3        0.0000 
     44 OD1        11.2000   34.6200   -3.8100 O.co2     3 ASP3        0.0000 
     45 OD1        12.5700   34.2400   -4.2900 O.co2     3 ASP3        0.0000 
     46 OD1        11.3300   35.9500   -4.4900 O.co2     3 ASP3        0.0000 
     47 OD1        12.7000   35.5700   -4.9700 O.co2     3 ASP3        0.0000 
     48 CZ         10.4200   37.4500   -8.3600 C.ar      4 PHE5        0.0000 
     49 CZ         10.8700   36.7000   -6.4200 C.ar      4 PHE5        0.0000 
     50 CZ          8.8600   39.3800   -4.9100 C.ar      4 PHE5        0.0000 
     51 CZ          9.0000   40.7100   -5.5900 C.ar      4 PHE5        0.0000 
     52 CZ         10.3700   40.3200   -6.0600 C.ar      4 PHE5        0.0000 
     53 CZ         14.0200   38.0600   -3.1500 C.ar      4 PHE5        0.0000 
     54 CA          7.5400   36.8900   -6.7300 C.3       5 GLY6        0.0000 
     55 CA          5.1200   35.5700   -3.1700 C.3       5 GLY6        0.0000 
     56 CA          6.4900   35.1900   -3.6400 C.3       5 GLY6        0.0000 
     57 CA          6.6300   36.5200   -4.3200 C.3       5 GLY6        0.0000 
     58 CA          8.1300   37.4700   -5.4800 C.3       5 GLY6        0.0000 
     59 CA          8.2700   38.8000   -6.1600 C.3       5 GLY6        0.0000 
     60 CA         11.0600   33.2900   -3.1300 C.3       5 GLY6        0.0000 
     61 CA          5.7100   36.1500   -1.9200 C.3       5 GLY6        0.0000 
     62 CA          5.8500   37.4800   -2.6000 C.3       5 GLY6        0.0000 
     63 CA          7.2200   37.1000   -3.0700 C.3       5 GLY6        0.0000 
     64 CA          5.9800   38.8100   -3.2800 C.3       5 GLY6        0.0000 
     65 CA          7.3500   38.4300   -3.7600 C.3       5 GLY6        0.0000 
     66 CA          8.7300   38.0500   -4.2300 C.3       5 GLY6        0.0000 
     67 CA          7.4900   39.7600   -4.4400 C.3       5 GLY6        0.0000 
     68 CA          7.8100   37.6800   -1.8200 C.3       5 GLY6        0.0000 
     69 CA          7.9500   39.0100   -2.5100 C.3       5 GLY6        0.0000 
     70 CA         12.2500   34.4500   -0.6300 C.3       5 GLY6        0.0000 
     71 DU          9.5000   37.0900   -5.9500 H         6 CUB7        0.0000 
     72 DU          9.6400   38.4200   -6.6300 H         6 CUB7        0.0000 
     73 DU         11.0100   38.0300   -7.1000 H         6 CUB7        0.0000 
     74 DU          9.7800   39.7500   -7.3100 H         6 CUB7        0.0000 
     75 DU          7.0800   35.7700   -2.3900 H         6 CUB7        0.0000 
     76 DU         10.1000   37.6700   -4.7000 H         6 CUB7        0.0000 
     77 DU         11.4700   37.2800   -5.1700 H         6 CUB7        0.0000 
     78 DU         12.8400   36.9000   -5.6500 H         6 CUB7        0.0000 
     79 DU         10.2300   39.0000   -5.3800 H         6 CUB7        0.0000 
     80 DU         11.6000   38.6100   -5.8500 H         6 CUB7        0.0000 
@<TRIPOS>BOND
@<TRIPOS>SUBSTRUCTURE
     1 SER1        1 GROUP   
     2 ALA2        7 GROUP   
     3 ASP3       39 GROUP   
     4 PHE5       48 GROUP   
     5 GLY6       54 GROUP   
     6 CUB7       71 GROUP   
@<TRIPOS>SET

