#    Name: 6bxk_2_MTA_CAVITY_N1_4
#    Modification time : Fri May 22 19:35:57 2020

@<TRIPOS>MOLECULE
6bxk_2_MTA_CAVITY_N1_4
   32     0     6     0     0
SMALL
NO_CHARGES


@<TRIPOS>ATOM
      1 OG         12.2000   39.1900   -4.6000 O.3       1 SER1        0.0000 
      2 O           9.3700   35.7600   -5.2700 O.2       2 ALA2        0.0000 
      3 N           9.6900   33.6800   -2.6600 N.am      2 ALA2        0.0000 
      4 N           9.8200   35.0100   -3.3400 N.am      2 ALA2        0.0000 
      5 N           9.9600   36.3400   -4.0200 N.am      2 ALA2        0.0000 
      6 N           8.7700   33.3100   -0.2500 N.am      2 ALA2        0.0000 
      7 N          10.1500   32.9300   -0.7300 N.am      2 ALA2        0.0000 
      8 N          11.5200   32.5400   -1.2000 N.am      2 ALA2        0.0000 
      9 N          10.2800   34.2600   -1.4100 N.am      2 ALA2        0.0000 
     10 N          11.6500   33.8700   -1.8800 N.am      2 ALA2        0.0000 
     11 N          11.7900   35.2000   -2.5600 N.am      2 ALA2        0.0000 
     12 N          11.9200   36.5300   -3.2400 N.am      2 ALA2        0.0000 
     13 N          13.3000   36.1500   -3.7200 N.am      2 ALA2        0.0000 
     14 N          10.6900   38.2400   -3.4500 N.am      2 ALA2        0.0000 
     15 N          12.0600   37.8600   -3.9200 N.am      2 ALA2        0.0000 
     16 O          10.7400   33.5100    0.5200 O.2       2 ALA2        0.0000 
     17 OD1         9.1000   33.1000   -3.9100 O.co2     3 ASP3        0.0000 
     18 OD1         9.2300   34.4300   -4.5900 O.co2     3 ASP3        0.0000 
     19 OD1        10.7400   35.3700   -5.7400 O.co2     3 ASP3        0.0000 
     20 OD1        12.1100   34.9900   -6.2200 O.co2     3 ASP3        0.0000 
     21 OD1        12.2500   36.3200   -6.9000 O.co2     3 ASP3        0.0000 
     22 OD1        11.2000   34.6200   -3.8100 O.co2     3 ASP3        0.0000 
     23 OD1        12.5700   34.2400   -4.2900 O.co2     3 ASP3        0.0000 
     24 OD1        11.3300   35.9500   -4.4900 O.co2     3 ASP3        0.0000 
     25 OD1        12.7000   35.5700   -4.9700 O.co2     3 ASP3        0.0000 
     26 CZ         10.8700   36.7000   -6.4200 C.ar      4 PHE5        0.0000 
     27 CZ         14.0200   38.0600   -3.1500 C.ar      4 PHE5        0.0000 
     28 CA         11.0600   33.2900   -3.1300 C.3       5 GLY6        0.0000 
     29 CA         12.2500   34.4500   -0.6300 C.3       5 GLY6        0.0000 
     30 DU         10.1000   37.6700   -4.7000 H         6 CUB7        0.0000 
     31 DU         11.4700   37.2800   -5.1700 H         6 CUB7        0.0000 
     32 DU         12.8400   36.9000   -5.6500 H         6 CUB7        0.0000 
@<TRIPOS>BOND
@<TRIPOS>SUBSTRUCTURE
     1 SER1        1 GROUP   
     2 ALA2        2 GROUP   
     3 ASP3       17 GROUP   
     4 PHE5       26 GROUP   
     5 GLY6       28 GROUP   
     6 CUB7       30 GROUP   
@<TRIPOS>SET

