#    Name: 6bxk_2_MTA
#    Modification time : Fri May 22 19:35:57 2020

@<TRIPOS>MOLECULE
6bxk_2_MTA
   20    22     1     0     0
SMALL
NO_CHARGES


@<TRIPOS>ATOM
      1 CS         14.0210   35.9530   -3.3090 C.3       1 MTA401      0.0000 
      2 S5'        12.4280   35.1980   -3.3020 S.3       1 MTA401      0.0000 
      3 C5'        12.6560   33.8580   -2.1790 C.3       1 MTA401      0.0000 
      4 C4'        14.1230   33.4940   -1.9960 C.3       1 MTA401      0.0000 
      5 O4'        14.4290   33.5380   -0.6010 O.3       1 MTA401      0.0000 
      6 C2'        14.5900   31.2500   -1.2070 C.3       1 MTA401      0.0000 
      7 O2'        15.8060   30.4990   -1.2570 O.3       1 MTA401      0.0000 
      8 C3'        14.4220   32.0820   -2.4640 C.3       1 MTA401      0.0000 
      9 O3'        15.6160   32.0820   -3.2540 O.3       1 MTA401      0.0000 
     10 C1'        14.6270   32.2380   -0.0550 C.3       1 MTA401      0.0000 
     11 N9         13.5150   31.9440    0.8780 N.pl3     1 MTA401      0.0000 
     12 C8         12.2220   32.2940    0.7200 C.2       1 MTA401      0.0000 
     13 N7         11.4620   31.8700    1.7660 N.2       1 MTA401      0.0000 
     14 C5         12.2850   31.2290    2.6200 C.ar      1 MTA401      0.0000 
     15 C6         12.1500   30.5340    3.9240 C.ar      1 MTA401      0.0000 
     16 N6         10.9560   30.4240    4.5510 N.pl3     1 MTA401      0.0000 
     17 N1         13.2640   30.0060    4.4670 N.ar      1 MTA401      0.0000 
     18 C2         14.4640   30.0950    3.8650 C.ar      1 MTA401      0.0000 
     19 N3         14.6650   30.7070    2.6890 N.ar      1 MTA401      0.0000 
     20 C4         13.6330   31.2840    2.0280 C.ar      1 MTA401      0.0000 
@<TRIPOS>BOND
     1    1    2 1    
     2    2    3 1    
     3    3    4 1    
     4    4    5 1    
     5    4    8 1    
     6    5   10 1    
     7    6    7 1    
     8    6    8 1    
     9    6   10 1    
    10    8    9 1    
    11   10   11 1    
    12   11   12 1    
    13   11   20 1    
    14   12   13 2    
    15   13   14 1    
    16   14   15 ar   
    17   14   20 ar   
    18   15   16 1    
    19   15   17 ar   
    20   17   18 ar   
    21   18   19 ar   
    22   19   20 ar   
@<TRIPOS>SUBSTRUCTURE
     1 MTA401      1 GROUP   
@<TRIPOS>SET

