#    Name: 6ck7_3_BB2
#    Modification time : Fri May 22 19:26:29 2020

@<TRIPOS>MOLECULE
6ck7_3_BB2
   27    27     1     0     0
SMALL
NO_CHARGES


@<TRIPOS>ATOM
      1 C5        -10.0740   48.8950   12.7100 C.3       1 BB2202      0.0000 
      2 C3         -9.0380   48.6610   11.6540 C.2       1 BB2202      0.0000 
      3 O4         -7.9220   48.2450   11.9260 O.2       1 BB2202      0.0000 
      4 N1         -9.3740   48.9350   10.4090 N.am      1 BB2202      0.0000 
      5 O2         -8.2740   48.8590    9.5730 O.3       1 BB2202      0.0000 
      6 C6         -9.7070   50.1320   13.5330 C.3       1 BB2202      0.0000 
      7 C12       -10.4090   49.9990   14.8500 C.2       1 BB2202      0.0000 
      8 O13       -11.5750   49.6080   14.9050 O.2       1 BB2202      0.0000 
      9 C7        -10.1380   51.4390   12.8600 C.3       1 BB2202      0.0000 
     10 C8         -9.5330   52.5990   13.6670 C.3       1 BB2202      0.0000 
     11 C9         -9.7380   53.9930   13.0740 C.3       1 BB2202      0.0000 
     12 C10       -11.0950   54.5630   13.4630 C.3       1 BB2202      0.0000 
     13 C11       -11.2590   54.6020   14.9670 C.3       1 BB2202      0.0000 
     14 N14        -9.6940   50.3240   15.9270 N.am      1 BB2202      0.0000 
     15 C15       -10.2780   50.3650   17.2480 C.3       1 BB2202      0.0000 
     16 C16        -9.4590   49.4470   18.1460 C.3       1 BB2202      0.0000 
     17 C18       -10.0180   49.4410   19.5640 C.3       1 BB2202      0.0000 
     18 C17        -9.3930   48.0520   17.5340 C.3       1 BB2202      0.0000 
     19 C19       -10.2000   51.7850   17.7270 C.2       1 BB2202      0.0000 
     20 O20        -9.1470   52.3920   17.6490 O.2       1 BB2202      0.0000 
     21 N21       -11.3240   52.3380   18.1680 N.am      1 BB2202      0.0000 
     22 C22       -11.3400   53.7350   18.5980 C.3       1 BB2202      0.0000 
     23 C23       -12.6440   51.7120   18.2220 C.3       1 BB2202      0.0000 
     24 C24       -13.5870   52.9030   18.1780 C.3       1 BB2202      0.0000 
     25 C25       -12.8140   54.0730   18.7530 C.3       1 BB2202      0.0000 
     26 C26       -10.6770   53.7450   19.9690 C.3       1 BB2202      0.0000 
     27 O27       -10.5280   55.1030   20.3830 O.3       1 BB2202      0.0000 
@<TRIPOS>BOND
     1    1    2 1    
     2    1    6 1    
     3    2    3 2    
     4    2    4 am   
     5    4    5 1    
     6    6    7 1    
     7    6    9 1    
     8    7    8 2    
     9    7   14 am   
    10    9   10 1    
    11   10   11 1    
    12   11   12 1    
    13   12   13 1    
    14   14   15 1    
    15   15   16 1    
    16   15   19 1    
    17   16   17 1    
    18   16   18 1    
    19   19   20 2    
    20   19   21 am   
    21   21   22 1    
    22   21   23 1    
    23   22   25 1    
    24   22   26 1    
    25   23   24 1    
    26   24   25 1    
    27   26   27 1    
@<TRIPOS>SUBSTRUCTURE
     1 BB2202      1 GROUP   
@<TRIPOS>SET

