#    Name: 6ck7_2_BB2_CAVITY_N1_6
#    Modification time : Fri May 22 19:26:25 2020

@<TRIPOS>MOLECULE
6ck7_2_BB2_CAVITY_N1_6
   88     0     7     0     0
SMALL
NO_CHARGES


@<TRIPOS>ATOM
      1 OG        -15.5200   10.2300   12.2000 O.3       1 SER1        0.0000 
      2 OG        -11.0800   11.2700   17.5500 O.3       1 SER1        0.0000 
      3 OG        -10.7200   11.9700   16.2800 O.3       1 SER1        0.0000 
      4 OG        -12.2100   12.9600   18.1600 O.3       1 SER1        0.0000 
      5 N         -14.0300    9.2400   10.3100 N.am      2 ALA2        0.0000 
      6 N         -11.2600    5.6700   17.9500 N.am      2 ALA2        0.0000 
      7 N         -12.3200    6.8100   16.5100 N.am      2 ALA2        0.0000 
      8 N         -10.9000    6.3800   16.6700 N.am      2 ALA2        0.0000 
      9 O         -13.3900    7.9500   15.0700 O.2       2 ALA2        0.0000 
     10 N         -14.4600    9.0900   13.6400 N.am      2 ALA2        0.0000 
     11 N         -13.0300    8.6500   13.8000 N.am      2 ALA2        0.0000 
     12 N         -14.1000    9.7900   12.3600 N.am      2 ALA2        0.0000 
     13 N         -12.3900    7.3600   18.5600 N.am      2 ALA2        0.0000 
     14 N         -10.9600    6.9200   18.7200 N.am      2 ALA2        0.0000 
     15 N          -9.5400    6.4900   18.8800 N.am      2 ALA2        0.0000 
     16 O         -12.0300    8.0600   17.2800 O.2       2 ALA2        0.0000 
     17 O         -13.0900    9.2000   15.8500 O.2       2 ALA2        0.0000 
     18 N         -12.7400    9.9000   14.5700 N.am      2 ALA2        0.0000 
     19 N         -15.2300   11.4800   12.9700 N.am      2 ALA2        0.0000 
     20 N         -13.8000   11.0400   13.1300 N.am      2 ALA2        0.0000 
     21 O         -13.4400   11.7400   11.8600 O.2       2 ALA2        0.0000 
     22 O         -12.0200   11.3100   12.0200 O.2       2 ALA2        0.0000 
     23 O         -13.1600    9.7500   17.8900 O.2       2 ALA2        0.0000 
     24 O         -12.8000   10.4500   16.6200 O.2       2 ALA2        0.0000 
     25 N         -13.8700   11.5900   15.1800 N.am      2 ALA2        0.0000 
     26 N         -12.4400   11.1600   15.3400 N.am      2 ALA2        0.0000 
     27 O         -14.9300   12.7300   13.7400 O.2       2 ALA2        0.0000 
     28 N         -13.5100   12.2900   13.9000 N.am      2 ALA2        0.0000 
     29 O         -13.5700   12.8400   15.9500 O.2       2 ALA2        0.0000 
     30 N         -11.8500   13.6600   16.8900 N.am      2 ALA2        0.0000 
     31 OD1       -13.2700   14.1000   16.7200 O.co2     3 ASP3        0.0000 
     32 NZ        -15.0500    6.5800   12.0900 N.4       4 LYS4        0.0000 
     33 NZ        -13.6200    6.1500   12.2500 N.4       4 LYS4        0.0000 
     34 NZ        -13.6900    6.7000   14.3000 N.4       4 LYS4        0.0000 
     35 NZ        -12.2600    6.2600   14.4600 N.4       4 LYS4        0.0000 
     36 NZ        -13.3300    7.4000   13.0300 N.4       4 LYS4        0.0000 
     37 NZ         -8.7500    7.3400   14.2800 N.4       4 LYS4        0.0000 
     38 NZ        -15.1600   10.9300   10.9200 N.4       4 LYS4        0.0000 
     39 NZ        -14.8700   12.1800   11.7000 N.4       4 LYS4        0.0000 
     40 CZ        -15.8200    8.9700   11.4300 C.ar      5 PHE5        0.0000 
     41 CZ        -14.3900    8.5400   11.5900 C.ar      5 PHE5        0.0000 
     42 CZ         -8.8200    7.8900   16.3300 C.ar      5 PHE5        0.0000 
     43 CZ         -8.4600    8.5900   15.0600 C.ar      5 PHE5        0.0000 
     44 CZ        -12.0900    8.6100   19.3300 C.ar      5 PHE5        0.0000 
     45 CZ        -11.7300    9.3100   18.0600 C.ar      5 PHE5        0.0000 
     46 CZ         -9.9500    9.5800   16.9400 C.ar      5 PHE5        0.0000 
     47 CZ         -9.5900   10.2800   15.6700 C.ar      5 PHE5        0.0000 
     48 CZ         -9.2300   10.9800   14.3900 C.ar      5 PHE5        0.0000 
     49 CZ        -11.4400   10.5700   18.8300 C.ar      5 PHE5        0.0000 
     50 CZ        -12.5000   11.7000   17.3900 C.ar      5 PHE5        0.0000 
     51 CZ         -9.6500   10.8300   17.7100 C.ar      5 PHE5        0.0000 
     52 CA        -14.6900    7.2900   10.8200 C.3       6 GLY6        0.0000 
     53 CA        -13.2600    6.8500   10.9800 C.3       6 GLY6        0.0000 
     54 CA        -10.8300    5.8300   14.6300 C.3       6 GLY6        0.0000 
     55 CA        -14.7500    7.8400   12.8600 C.3       6 GLY6        0.0000 
     56 CA        -11.9000    6.9600   13.1900 C.3       6 GLY6        0.0000 
     57 CA        -12.9700    8.1000   11.7500 C.3       6 GLY6        0.0000 
     58 CA         -9.8300    5.2400   18.1100 C.3       6 GLY6        0.0000 
     59 CA         -9.4700    5.9400   16.8400 C.3       6 GLY6        0.0000 
     60 CA         -9.1100    6.6400   15.5600 C.3       6 GLY6        0.0000 
     61 CA        -11.6000    8.2200   13.9600 C.3       6 GLY6        0.0000 
     62 CA        -10.1800    7.7800   14.1200 C.3       6 GLY6        0.0000 
     63 CA        -12.6700    9.3500   12.5200 C.3       6 GLY6        0.0000 
     64 CA         -9.8200    8.4800   12.8500 C.3       6 GLY6        0.0000 
     65 CA        -13.7400   10.4900   11.0800 C.3       6 GLY6        0.0000 
     66 CA         -9.1800    7.1900   17.6100 C.3       6 GLY6        0.0000 
     67 CA         -7.7500    6.7500   17.7700 C.3       6 GLY6        0.0000 
     68 CA        -12.3800   10.6100   13.2900 C.3       6 GLY6        0.0000 
     69 CA        -10.9500   10.1700   13.4600 C.3       6 GLY6        0.0000 
     70 CA         -9.5200    9.7300   13.6200 C.3       6 GLY6        0.0000 
     71 CA         -8.1000    9.3000   13.7800 C.3       6 GLY6        0.0000 
     72 CA        -12.0800   11.8600   14.0700 C.3       6 GLY6        0.0000 
     73 CA        -14.5700   13.4300   12.4700 C.3       6 GLY6        0.0000 
     74 CA        -13.1500   13.0000   12.6300 C.3       6 GLY6        0.0000 
     75 CA        -13.2100   13.5500   14.6800 C.3       6 GLY6        0.0000 
     76 CA        -11.7800   13.1100   14.8400 C.3       6 GLY6        0.0000 
     77 DU        -11.9600    7.5100   15.2400 H         7 CUB7        0.0000 
     78 DU        -10.5400    7.0800   15.4000 H         7 CUB7        0.0000 
     79 DU        -10.6000    7.6300   17.4500 H         7 CUB7        0.0000 
     80 DU        -11.6700    8.7700   16.0100 H         7 CUB7        0.0000 
     81 DU        -10.2400    8.3300   16.1700 H         7 CUB7        0.0000 
     82 DU        -11.3100    9.4700   14.7300 H         7 CUB7        0.0000 
     83 DU         -9.8800    9.0300   14.8900 H         7 CUB7        0.0000 
     84 DU        -10.6700    8.1800   19.4900 H         7 CUB7        0.0000 
     85 DU        -10.3100    8.8800   18.2200 H         7 CUB7        0.0000 
     86 DU        -11.3700   10.0200   16.7800 H         7 CUB7        0.0000 
     87 DU        -11.0100   10.7200   15.5000 H         7 CUB7        0.0000 
     88 DU        -12.1400   12.4100   16.1100 H         7 CUB7        0.0000 
@<TRIPOS>BOND
@<TRIPOS>SUBSTRUCTURE
     1 SER1        1 GROUP   
     2 ALA2        5 GROUP   
     3 ASP3       31 GROUP   
     4 LYS4       32 GROUP   
     5 PHE5       40 GROUP   
     6 GLY6       52 GROUP   
     7 CUB7       77 GROUP   
@<TRIPOS>SET

