#    Name: 6ck7_1_BB2_CAVITY_N1_6
#    Modification time : Fri May 22 19:26:18 2020

@<TRIPOS>MOLECULE
6ck7_1_BB2_CAVITY_N1_6
  100     0     6     0     0
SMALL
NO_CHARGES


@<TRIPOS>ATOM
      1 OG        -10.0700   10.6800   21.0400 O.3       1 SER1        0.0000 
      2 OG        -10.1400   11.2300   23.0800 O.3       1 SER1        0.0000 
      3 OG         -9.7800   11.9300   21.8100 O.3       1 SER1        0.0000 
      4 OG         -9.4200   12.6300   20.5300 O.3       1 SER1        0.0000 
      5 OG         -4.5000   10.0300   25.7800 O.3       1 SER1        0.0000 
      6 OG         -9.1200   13.8900   21.3000 O.3       1 SER1        0.0000 
      7 N          -9.9000    5.7900   20.1600 N.am      2 ALA2        0.0000 
      8 N          -9.6000    7.0400   20.9300 N.am      2 ALA2        0.0000 
      9 N          -8.1700    6.6000   21.0900 N.am      2 ALA2        0.0000 
     10 N          -7.8100    7.3000   19.8200 N.am      2 ALA2        0.0000 
     11 O          -7.8800    7.8500   21.8600 O.2       2 ALA2        0.0000 
     12 O          -7.5200    8.5600   20.5900 O.2       2 ALA2        0.0000 
     13 N          -6.5200    7.9700   24.0700 N.am      2 ALA2        0.0000 
     14 O          -7.5800    9.1100   22.6400 O.2       2 ALA2        0.0000 
     15 O          -7.2200    9.8100   21.3600 O.2       2 ALA2        0.0000 
     16 N          -6.9400    7.8100   27.4000 N.am      2 ALA2        0.0000 
     17 N          -7.6500    9.6500   24.6800 N.am      2 ALA2        0.0000 
     18 N          -6.2200    9.2200   24.8500 N.am      2 ALA2        0.0000 
     19 N          -7.2900   10.3600   23.4100 N.am      2 ALA2        0.0000 
     20 N          -6.6400    9.0700   28.1700 N.am      2 ALA2        0.0000 
     21 O          -8.7800   11.3400   25.2900 O.2       2 ALA2        0.0000 
     22 O          -7.3500   10.9100   25.4600 O.2       2 ALA2        0.0000 
     23 N          -5.9200   10.4700   25.6200 N.am      2 ALA2        0.0000 
     24 N          -6.9900   11.6100   24.1800 N.am      2 ALA2        0.0000 
     25 N          -9.4800   13.1800   22.5800 N.am      2 ALA2        0.0000 
     26 O          -7.4100   11.4600   27.5000 O.2       2 ALA2        0.0000 
     27 N          -7.0500   12.1600   26.2300 N.am      2 ALA2        0.0000 
     28 N          -5.6300   11.7200   26.3900 N.am      2 ALA2        0.0000 
     29 O          -5.2700   12.4200   25.1100 O.2       2 ALA2        0.0000 
     30 N          -6.7600   13.4100   27.0000 N.am      2 ALA2        0.0000 
     31 N          -5.3300   12.9700   27.1600 N.am      2 ALA2        0.0000 
     32 NZ        -11.7400    6.0700   23.3200 N.4       3 LYS4        0.0000 
     33 NZ        -12.8100    7.2100   21.8800 N.4       3 LYS4        0.0000 
     34 NZ         -8.9600    5.7500   25.6900 N.4       3 LYS4        0.0000 
     35 NZ         -7.5300    5.3100   25.8500 N.4       3 LYS4        0.0000 
     36 NZ         -8.6000    6.4500   24.4200 N.4       3 LYS4        0.0000 
     37 NZ         -7.1700    6.0100   24.5800 N.4       3 LYS4        0.0000 
     38 NZ         -6.8100    6.7200   23.3000 N.4       3 LYS4        0.0000 
     39 NZ         -5.2200    8.6300   28.3300 N.4       3 LYS4        0.0000 
     40 NZ         -6.2800    9.7700   26.8900 N.4       3 LYS4        0.0000 
     41 NZ         -5.9900   11.0200   27.6700 N.4       3 LYS4        0.0000 
     42 NZ         -4.5600   10.5800   27.8300 N.4       3 LYS4        0.0000 
     43 CZ        -12.4500    7.9100   20.6100 C.ar      4 PHE5        0.0000 
     44 CZ         -8.8800    8.4400   18.3800 C.ar      4 PHE5        0.0000 
     45 CZ         -7.4500    8.0100   18.5400 C.ar      4 PHE5        0.0000 
     46 CZ        -11.0900    8.0200   22.8200 C.ar      4 PHE5        0.0000 
     47 CZ        -10.7300    8.7300   21.5400 C.ar      4 PHE5        0.0000 
     48 CZ        -10.3700    9.4300   20.2700 C.ar      4 PHE5        0.0000 
     49 CZ        -10.0100   10.1300   18.9900 C.ar      4 PHE5        0.0000 
     50 CZ         -8.5900    9.6900   19.1500 C.ar      4 PHE5        0.0000 
     51 CZ         -7.1600    9.2600   19.3100 C.ar      4 PHE5        0.0000 
     52 CZ        -10.7900    9.2800   23.5900 C.ar      4 PHE5        0.0000 
     53 CZ        -10.4300    9.9800   22.3100 C.ar      4 PHE5        0.0000 
     54 CZ         -9.7200   11.3800   19.7600 C.ar      4 PHE5        0.0000 
     55 CZ         -8.2900   10.9500   19.9200 C.ar      4 PHE5        0.0000 
     56 CZ         -5.1500    8.0800   26.2800 C.ar      4 PHE5        0.0000 
     57 CZ         -7.9900   12.2000   20.6900 C.ar      4 PHE5        0.0000 
     58 CZ         -4.8600    9.3300   27.0600 C.ar      4 PHE5        0.0000 
     59 CA        -11.3200    6.2200   20.0000 C.3       5 GLY6        0.0000 
     60 CA        -10.3200    5.6300   23.4800 C.3       5 GLY6        0.0000 
     61 CA        -11.3800    6.7700   22.0500 C.3       5 GLY6        0.0000 
     62 CA        -10.3800    6.1800   25.5300 C.3       5 GLY6        0.0000 
     63 CA        -11.4500    7.3200   24.0900 C.3       5 GLY6        0.0000 
     64 CA        -10.0200    6.8900   24.2500 C.3       5 GLY6        0.0000 
     65 CA         -8.6600    7.0000   26.4600 C.3       5 GLY6        0.0000 
     66 CA         -7.2300    6.5600   26.6300 C.3       5 GLY6        0.0000 
     67 CA         -5.8100    6.1300   26.7900 C.3       5 GLY6        0.0000 
     68 CA        -11.1500    8.5700   24.8600 C.3       5 GLY6        0.0000 
     69 CA         -9.7300    8.1400   25.0300 C.3       5 GLY6        0.0000 
     70 CA         -8.3000    7.7000   25.1900 C.3       5 GLY6        0.0000 
     71 CA         -5.4500    6.8300   25.5100 C.3       5 GLY6        0.0000 
     72 CA         -9.3700    8.8400   23.7500 C.3       5 GLY6        0.0000 
     73 CA         -6.8600   10.5100   20.0800 C.3       5 GLY6        0.0000 
     74 CA         -5.5100    7.3800   27.5600 C.3       5 GLY6        0.0000 
     75 CA         -8.0100    8.9500   25.9600 C.3       5 GLY6        0.0000 
     76 CA         -6.5800    8.5200   26.1200 C.3       5 GLY6        0.0000 
     77 CA        -10.5000   10.5300   24.3600 C.3       5 GLY6        0.0000 
     78 CA         -9.0700   10.0900   24.5200 C.3       5 GLY6        0.0000 
     79 CA         -6.9300   11.0600   22.1300 C.3       5 GLY6        0.0000 
     80 CA         -6.5700   11.7600   20.8600 C.3       5 GLY6        0.0000 
     81 CA         -7.7100   10.2000   26.7300 C.3       5 GLY6        0.0000 
     82 CA         -8.4200   12.0400   24.0200 C.3       5 GLY6        0.0000 
     83 CA         -8.0600   12.7500   22.7400 C.3       5 GLY6        0.0000 
     84 CA         -6.6300   12.3100   22.9000 C.3       5 GLY6        0.0000 
     85 CA         -7.7000   13.4500   21.4700 C.3       5 GLY6        0.0000 
     86 CA         -8.1200   13.3000   24.7900 C.3       5 GLY6        0.0000 
     87 CA         -6.7000   12.8600   24.9500 C.3       5 GLY6        0.0000 
     88 DU         -9.9600    6.3400   22.2100 H         6 CUB7        0.0000 
     89 DU        -11.0300    7.4700   20.7700 H         6 CUB7        0.0000 
     90 DU         -9.2400    7.7400   19.6500 H         6 CUB7        0.0000 
     91 DU         -9.6600    7.5900   22.9800 H         6 CUB7        0.0000 
     92 DU         -8.2400    7.1500   23.1400 H         6 CUB7        0.0000 
     93 DU         -9.3000    8.2900   21.7000 H         6 CUB7        0.0000 
     94 DU         -8.9400    8.9900   20.4300 H         6 CUB7        0.0000 
     95 DU         -6.8800    7.2600   25.3500 H         6 CUB7        0.0000 
     96 DU         -7.9400    8.4000   23.9100 H         6 CUB7        0.0000 
     97 DU         -9.0100    9.5400   22.4700 H         6 CUB7        0.0000 
     98 DU         -8.6500   10.2400   21.2000 H         6 CUB7        0.0000 
     99 DU         -8.7100   10.7900   23.2500 H         6 CUB7        0.0000 
    100 DU         -8.3500   11.5000   21.9700 H         6 CUB7        0.0000 
@<TRIPOS>BOND
@<TRIPOS>SUBSTRUCTURE
     1 SER1        1 GROUP   
     2 ALA2        7 GROUP   
     3 LYS4       32 GROUP   
     4 PHE5       43 GROUP   
     5 GLY6       59 GROUP   
     6 CUB7       88 GROUP   
@<TRIPOS>SET

