#    Name: 6ck7_1_BB2
#    Modification time : Fri May 22 19:26:16 2020

@<TRIPOS>MOLECULE
6ck7_1_BB2
   27    27     1     0     0
SMALL
NO_CHARGES


@<TRIPOS>ATOM
      1 C5         -5.9870   12.0620   26.7900 C.3       1 BB2202      0.0000 
      2 C3         -4.5640   12.3360   27.1820 C.2       1 BB2202      0.0000 
      3 O4         -3.7750   12.8190   26.3770 O.2       1 BB2202      0.0000 
      4 N1         -4.2000   12.0410   28.4130 N.am      1 BB2202      0.0000 
      5 O2         -2.8240   12.1910   28.5030 O.3       1 BB2202      0.0000 
      6 C6         -6.0630   10.7980   25.9360 C.3       1 BB2202      0.0000 
      7 C12        -7.3160   10.8900   25.1160 C.2       1 BB2202      0.0000 
      8 O13        -8.4020   11.2230   25.5930 O.2       1 BB2202      0.0000 
      9 C7         -6.0530    9.5120   26.7530 C.3       1 BB2202      0.0000 
     10 C8         -5.7850    8.3540   25.7750 C.3       1 BB2202      0.0000 
     11 C9         -5.6830    6.9590   26.3710 C.3       1 BB2202      0.0000 
     12 C10        -7.0370    6.2910   26.5610 C.3       1 BB2202      0.0000 
     13 C11        -7.8490    6.3590   25.2860 C.3       1 BB2202      0.0000 
     14 N14        -7.1540   10.5970   23.8340 N.am      1 BB2202      0.0000 
     15 C15        -8.2820   10.5290   22.9250 C.3       1 BB2202      0.0000 
     16 C16        -8.0330   11.4850   21.7570 C.3       1 BB2202      0.0000 
     17 C18        -9.1780   11.4340   20.7360 C.3       1 BB2202      0.0000 
     18 C17        -7.7570   12.9160   22.2410 C.3       1 BB2202      0.0000 
     19 C19        -8.4300    9.1210   22.4290 C.2       1 BB2202      0.0000 
     20 O20        -7.4590    8.5620   21.9600 O.2       1 BB2202      0.0000 
     21 N21        -9.6270    8.5550   22.6040 N.am      1 BB2202      0.0000 
     22 C22        -9.8760    7.1420   22.2920 C.3       1 BB2202      0.0000 
     23 C23       -10.7970    9.2030   23.1750 C.3       1 BB2202      0.0000 
     24 C24       -11.6070    8.0650   23.7700 C.3       1 BB2202      0.0000 
     25 C25       -11.1900    6.8250   22.9980 C.3       1 BB2202      0.0000 
     26 C26       -10.1180    7.0670   20.7930 C.3       1 BB2202      0.0000 
     27 O27        -8.9880    6.4560   20.1660 O.3       1 BB2202      0.0000 
@<TRIPOS>BOND
     1    1    2 1    
     2    1    6 1    
     3    2    3 2    
     4    2    4 am   
     5    4    5 1    
     6    6    7 1    
     7    6    9 1    
     8    7    8 2    
     9    7   14 am   
    10    9   10 1    
    11   10   11 1    
    12   11   12 1    
    13   12   13 1    
    14   14   15 1    
    15   15   16 1    
    16   15   19 1    
    17   16   17 1    
    18   16   18 1    
    19   19   20 2    
    20   19   21 am   
    21   21   22 1    
    22   21   23 1    
    23   22   25 1    
    24   22   26 1    
    25   23   24 1    
    26   24   25 1    
    27   26   27 1    
@<TRIPOS>SUBSTRUCTURE
     1 BB2202      1 GROUP   
@<TRIPOS>SET

