#    Name: 6ck7_2_BB2
#    Modification time : Fri May 22 19:26:23 2020

@<TRIPOS>MOLECULE
6ck7_2_BB2
   27    27     1     0     0
SMALL
NO_CHARGES


@<TRIPOS>ATOM
      1 C5        -14.4360   12.9110   11.7680 C.3       1 BB2202      0.0000 
      2 C3        -15.8630   13.2520   11.4170 C.2       1 BB2202      0.0000 
      3 O4        -16.6590   13.5960   12.2710 O.2       1 BB2202      0.0000 
      4 N1        -16.2260   13.1790   10.1580 N.am      1 BB2202      0.0000 
      5 O2        -17.5910   13.3650   10.0070 O.3       1 BB2202      0.0000 
      6 C6        -14.4100   11.5970   12.5410 C.3       1 BB2202      0.0000 
      7 C12       -13.1680   11.5630   13.3790 C.2       1 BB2202      0.0000 
      8 O13       -12.0840   11.9180   12.9250 O.2       1 BB2202      0.0000 
      9 C7        -14.4270   10.3890   11.6120 C.3       1 BB2202      0.0000 
     10 C8        -14.7230    9.1490   12.4660 C.3       1 BB2202      0.0000 
     11 C9        -14.9470    7.8680   11.6760 C.3       1 BB2202      0.0000 
     12 C10       -13.6500    7.1080   11.4550 C.3       1 BB2202      0.0000 
     13 C11       -12.8760    7.0270   12.7590 C.3       1 BB2202      0.0000 
     14 N14       -13.3320   11.0870   14.6050 N.am      1 BB2202      0.0000 
     15 C15       -12.2020   10.9100   15.4920 C.3       1 BB2202      0.0000 
     16 C16       -12.4380   11.7270   16.7640 C.3       1 BB2202      0.0000 
     17 C18       -11.3060   11.4950   17.7640 C.3       1 BB2202      0.0000 
     18 C17       -12.5960   13.2190   16.5070 C.3       1 BB2202      0.0000 
     19 C19       -12.0490    9.4490   15.8040 C.2       1 BB2202      0.0000 
     20 O20       -13.0060    8.7940   16.2150 O.2       1 BB2202      0.0000 
     21 N21       -10.8570    8.9150   15.5380 N.am      1 BB2202      0.0000 
     22 C22       -10.6350    7.4780   15.7240 C.3       1 BB2202      0.0000 
     23 C23        -9.6810    9.6040   15.0130 C.3       1 BB2202      0.0000 
     24 C24        -8.8830    8.4930   14.3420 C.3       1 BB2202      0.0000 
     25 C25        -9.3610    7.1830   14.9450 C.3       1 BB2202      0.0000 
     26 C26       -10.3450    7.2960   17.2090 C.3       1 BB2202      0.0000 
     27 O27       -11.5490    6.8990   17.8740 O.3       1 BB2202      0.0000 
@<TRIPOS>BOND
     1    1    2 1    
     2    1    6 1    
     3    2    3 2    
     4    2    4 am   
     5    4    5 1    
     6    6    7 1    
     7    6    9 1    
     8    7    8 2    
     9    7   14 am   
    10    9   10 1    
    11   10   11 1    
    12   11   12 1    
    13   12   13 1    
    14   14   15 1    
    15   15   16 1    
    16   15   19 1    
    17   16   17 1    
    18   16   18 1    
    19   19   20 2    
    20   19   21 am   
    21   21   22 1    
    22   21   23 1    
    23   22   25 1    
    24   22   26 1    
    25   23   24 1    
    26   24   25 1    
    27   26   27 1    
@<TRIPOS>SUBSTRUCTURE
     1 BB2202      1 GROUP   
@<TRIPOS>SET

