#    Name: 6ck7_4_BB2
#    Modification time : Fri May 22 19:26:35 2020

@<TRIPOS>MOLECULE
6ck7_4_BB2
   27    27     1     0     0
SMALL
NO_CHARGES


@<TRIPOS>ATOM
      1 C5        -10.1470   47.9520   30.0090 C.3       1 BB2202      0.0000 
      2 C3        -11.1900   47.5410   31.0100 C.2       1 BB2202      0.0000 
      3 O4        -12.3080   47.1770   30.6630 O.2       1 BB2202      0.0000 
      4 N1        -10.8580   47.5850   32.2900 N.am      1 BB2202      0.0000 
      5 O2        -11.9540   47.4160   33.1220 O.3       1 BB2202      0.0000 
      6 C6        -10.5710   49.2390   29.3070 C.3       1 BB2202      0.0000 
      7 C12        -9.8670   49.2460   27.9890 C.2       1 BB2202      0.0000 
      8 O13        -8.7010   48.8750   27.8980 O.2       1 BB2202      0.0000 
      9 C7        -10.2060   50.4660   30.1450 C.3       1 BB2202      0.0000 
     10 C8        -10.8470   51.7220   29.5340 C.3       1 BB2202      0.0000 
     11 C9        -10.5490   53.0110   30.3080 C.3       1 BB2202      0.0000 
     12 C10        -9.1750   53.5720   29.9510 C.3       1 BB2202      0.0000 
     13 C11        -9.0560   53.8770   28.4750 C.3       1 BB2202      0.0000 
     14 N14       -10.5880   49.6790   26.9560 N.am      1 BB2202      0.0000 
     15 C15       -10.0150   49.9100   25.6500 C.3       1 BB2202      0.0000 
     16 C16       -10.8470   49.1520   24.6160 C.3       1 BB2202      0.0000 
     17 C18       -10.2780   49.3310   23.2090 C.3       1 BB2202      0.0000 
     18 C17       -10.9380   47.6690   24.9640 C.3       1 BB2202      0.0000 
     19 C19       -10.0570   51.3800   25.3690 C.2       1 BB2202      0.0000 
     20 O20       -11.0990   52.0070   25.5070 O.2       1 BB2202      0.0000 
     21 N21        -8.9270   51.9750   25.0220 N.am      1 BB2202      0.0000 
     22 C22        -8.9440   53.4040   24.7350 C.3       1 BB2202      0.0000 
     23 C23        -7.5960   51.3770   24.9330 C.3       1 BB2202      0.0000 
     24 C24        -6.6770   52.5750   25.1180 C.3       1 BB2202      0.0000 
     25 C25        -7.4750   53.8050   24.7300 C.3       1 BB2202      0.0000 
     26 C26        -9.5280   53.5360   23.3300 C.3       1 BB2202      0.0000 
     27 O27        -9.6250   54.9280   23.0180 O.3       1 BB2202      0.0000 
@<TRIPOS>BOND
     1    1    2 1    
     2    1    6 1    
     3    2    3 2    
     4    2    4 am   
     5    4    5 1    
     6    6    7 1    
     7    6    9 1    
     8    7    8 2    
     9    7   14 am   
    10    9   10 1    
    11   10   11 1    
    12   11   12 1    
    13   12   13 1    
    14   14   15 1    
    15   15   16 1    
    16   15   19 1    
    17   16   17 1    
    18   16   18 1    
    19   19   20 2    
    20   19   21 am   
    21   21   22 1    
    22   21   23 1    
    23   22   25 1    
    24   22   26 1    
    25   23   24 1    
    26   24   25 1    
    27   26   27 1    
@<TRIPOS>SUBSTRUCTURE
     1 BB2202      1 GROUP   
@<TRIPOS>SET

