#    Name: 6osa_1_LYS_LYS_PRO_TYR_ILE_LEU
#    Modification time : Fri May 22 19:30:32 2020

@<TRIPOS>MOLECULE
6osa_1_LYS_LYS_PRO_TYR_ILE_LEU
   53    54     6     0     0
SMALL
NO_CHARGES


@<TRIPOS>ATOM
      1 N         114.5240  167.6740  154.7530 N.4       1 LYS8        0.0000 
      2 CA        113.4700  166.9120  154.0990 C.3       1 LYS8        0.0000 
      3 C         114.0520  165.9360  153.0920 C.2       1 LYS8        0.0000 
      4 CB        112.4800  167.8460  153.4120 C.3       1 LYS8        0.0000 
      5 CG        111.3020  167.1250  152.7980 C.3       1 LYS8        0.0000 
      6 CD        110.1440  168.0660  152.5500 C.3       1 LYS8        0.0000 
      7 CE        108.8330  167.3070  152.5370 C.3       1 LYS8        0.0000 
      8 NZ        107.6550  168.2110  152.5290 N.4       1 LYS8        0.0000 
      9 N         114.5780  164.8450  153.6030 N.am      2 LYS9        0.0000 
     10 CA        115.1620  163.8170  152.7590 C.3       2 LYS9        0.0000 
     11 C         114.0580  162.9690  152.1680 C.2       2 LYS9        0.0000 
     12 O         113.1420  162.5710  152.8980 O.2       2 LYS9        0.0000 
     13 CB        116.1090  162.9370  153.5670 C.3       2 LYS9        0.0000 
     14 CG        116.8330  161.8780  152.7560 C.3       2 LYS9        0.0000 
     15 CD        117.8280  161.1110  153.6000 C.3       2 LYS9        0.0000 
     16 CE        118.5530  160.0770  152.7710 C.3       2 LYS9        0.0000 
     17 NZ        119.5260  159.3210  153.5930 N.4       2 LYS9        0.0000 
     18 N         114.0850  162.6910  150.8660 N.am      3 PRO10       0.0000 
     19 CA        113.0960  161.7820  150.2810 C.3       3 PRO10       0.0000 
     20 C         113.3720  160.3670  150.7550 C.2       3 PRO10       0.0000 
     21 O         114.4840  160.0520  151.1740 O.2       3 PRO10       0.0000 
     22 CB        113.3240  161.9350  148.7790 C.3       3 PRO10       0.0000 
     23 CG        114.7460  162.3100  148.6690 C.3       3 PRO10       0.0000 
     24 CD        115.0390  163.1680  149.8540 C.3       3 PRO10       0.0000 
     25 N         112.3460  159.5270  150.7310 N.am      4 TYR11       0.0000 
     26 CA        112.4790  158.2350  151.3840 C.3       4 TYR11       0.0000 
     27 C         112.4120  157.0840  150.3900 C.2       4 TYR11       0.0000 
     28 O         112.8250  155.9640  150.7060 O.2       4 TYR11       0.0000 
     29 CB        111.4220  158.1090  152.4760 C.3       4 TYR11       0.0000 
     30 CG        109.9900  158.1620  152.0180 C.ar      4 TYR11       0.0000 
     31 CD1       109.3220  159.3700  151.9260 C.ar      4 TYR11       0.0000 
     32 CD2       109.2910  157.0030  151.7300 C.ar      4 TYR11       0.0000 
     33 CE1       108.0200  159.4270  151.5310 C.ar      4 TYR11       0.0000 
     34 CE2       107.9850  157.0510  151.3390 C.ar      4 TYR11       0.0000 
     35 CZ        107.3550  158.2640  151.2390 C.ar      4 TYR11       0.0000 
     36 OH        106.0430  158.3100  150.8410 O.3       4 TYR11       0.0000 
     37 N         111.8920  157.3300  149.1900 N.am      5 ILE12       0.0000 
     38 CA        111.7850  156.2650  148.2050 C.3       5 ILE12       0.0000 
     39 C         113.1470  155.9710  147.6040 C.2       5 ILE12       0.0000 
     40 O         113.7040  156.7760  146.8500 O.2       5 ILE12       0.0000 
     41 CB        110.7760  156.6410  147.1120 C.3       5 ILE12       0.0000 
     42 CG1       109.3760  156.7820  147.6940 C.3       5 ILE12       0.0000 
     43 CG2       110.7620  155.5930  146.0260 C.3       5 ILE12       0.0000 
     44 CD1       108.8370  155.4990  148.2530 C.3       5 ILE12       0.0000 
     45 N         113.7000  154.8230  147.9590 N.am      6 LEU13       0.0000 
     46 CA        114.7350  154.1970  147.1560 C.3       6 LEU13       0.0000 
     47 C         114.3550  152.7470  147.0620 C.2       6 LEU13       0.0000 
     48 O         113.8400  152.2900  146.0430 O.2       6 LEU13       0.0000 
     49 CB        116.1400  154.3660  147.7470 C.3       6 LEU13       0.0000 
     50 CG        117.2850  153.7570  146.9160 C.3       6 LEU13       0.0000 
     51 CD1       118.4480  154.6580  146.9190 C.3       6 LEU13       0.0000 
     52 CD2       117.7710  152.4330  147.4550 C.3       6 LEU13       0.0000 
     53 OXT       114.5330  152.0180  148.0330 O.3       6 LEU13       0.0000 
@<TRIPOS>BOND
     1    1    2 1    
     2    2    3 1    
     3    2    4 1    
     4    3    9 am   
     5    4    5 1    
     6    5    6 1    
     7    6    7 1    
     8    7    8 1    
     9    9   10 1    
    10   10   11 1    
    11   10   13 1    
    12   11   12 2    
    13   11   18 am   
    14   13   14 1    
    15   14   15 1    
    16   15   16 1    
    17   16   17 1    
    18   18   19 1    
    19   18   24 1    
    20   19   20 1    
    21   19   22 1    
    22   20   21 2    
    23   20   25 am   
    24   22   23 1    
    25   23   24 1    
    26   25   26 1    
    27   26   27 1    
    28   26   29 1    
    29   27   28 2    
    30   27   37 am   
    31   29   30 1    
    32   30   31 ar   
    33   30   32 ar   
    34   31   33 ar   
    35   32   34 ar   
    36   33   35 ar   
    37   34   35 ar   
    38   35   36 1    
    39   37   38 1    
    40   38   39 1    
    41   38   41 1    
    42   39   40 2    
    43   39   45 am   
    44   41   42 1    
    45   41   43 1    
    46   42   44 1    
    47   45   46 1    
    48   46   47 1    
    49   46   49 1    
    50   47   48 2    
    51   47   53 1    
    52   49   50 1    
    53   50   51 1    
    54   50   52 1    
@<TRIPOS>SUBSTRUCTURE
     1 LYS8        1 RESIDUE 
     2 LYS9        9 RESIDUE 
     3 PRO10      18 RESIDUE 
     4 TYR11      25 RESIDUE 
     5 ILE12      37 RESIDUE 
     6 LEU13      45 RESIDUE 
@<TRIPOS>SET

