#    Name: 5og9_2_TES
#    Modification time : Fri May 22 19:26:24 2020

@<TRIPOS>MOLECULE
5og9_2_TES
   21    24     1     0     0
SMALL
NO_CHARGES


@<TRIPOS>ATOM
      1 C1         55.0240    8.5300   99.6060 C.3       1 TES504      0.0000 
      2 C2         54.7910    7.0490   99.8730 C.3       1 TES504      0.0000 
      3 C3         56.1330    6.3780   99.7770 C.2       1 TES504      0.0000 
      4 O3         56.1760    5.1880   99.5310 O.2       1 TES504      0.0000 
      5 C4         57.3860    7.1480   99.9700 C.2       1 TES504      0.0000 
      6 C5         57.3870    8.4590  100.2580 C.2       1 TES504      0.0000 
      7 C6         58.7000    9.2030  100.3040 C.3       1 TES504      0.0000 
      8 C7         58.6930   10.5740  100.9990 C.3       1 TES504      0.0000 
      9 C8         57.3450   11.2810  101.1540 C.3       1 TES504      0.0000 
     10 C9         56.2350   10.6680  100.2820 C.3       1 TES504      0.0000 
     11 C10        56.0870    9.1510  100.5240 C.3       1 TES504      0.0000 
     12 C11        54.8840   11.4580  100.3760 C.3       1 TES504      0.0000 
     13 C12        54.9230   13.0010  100.4700 C.3       1 TES504      0.0000 
     14 C13        56.0810   13.4750  101.3390 C.3       1 TES504      0.0000 
     15 C14        57.3460   12.7770  100.8000 C.3       1 TES504      0.0000 
     16 C15        58.5370   13.6390  101.1740 C.3       1 TES504      0.0000 
     17 C16        57.9350   15.0370  101.3350 C.3       1 TES504      0.0000 
     18 C17        56.3960   14.9700  101.2840 C.3       1 TES504      0.0000 
     19 O17        55.7530   15.7260  102.3480 O.3       1 TES504      0.0000 
     20 C18        55.7490   13.1640  102.8070 C.3       1 TES504      0.0000 
     21 C19        55.8310    8.8400  102.0030 C.3       1 TES504      0.0000 
@<TRIPOS>BOND
     1    1    2 1    
     2    1   11 1    
     3    2    3 1    
     4    3    4 2    
     5    3    5 1    
     6    5    6 2    
     7    6    7 1    
     8    6   11 1    
     9    7    8 1    
    10    8    9 1    
    11    9   10 1    
    12    9   15 1    
    13   10   11 1    
    14   10   12 1    
    15   11   21 1    
    16   12   13 1    
    17   13   14 1    
    18   14   15 1    
    19   14   18 1    
    20   14   20 1    
    21   15   16 1    
    22   16   17 1    
    23   17   18 1    
    24   18   19 1    
@<TRIPOS>SUBSTRUCTURE
     1 TES504      1 GROUP   
@<TRIPOS>SET

