#    Name: 5og9_4_TES
#    Modification time : Fri May 22 19:26:32 2020

@<TRIPOS>MOLECULE
5og9_4_TES
   21    24     1     0     0
SMALL
NO_CHARGES


@<TRIPOS>ATOM
      1 C1         37.6350   13.7140  132.8080 C.3       1 TES503      0.0000 
      2 C2         38.8880   13.6990  131.9270 C.3       1 TES503      0.0000 
      3 C3         39.7270   14.9040  132.2500 C.2       1 TES503      0.0000 
      4 O3         40.5680   15.2790  131.4560 O.2       1 TES503      0.0000 
      5 C4         39.5520   15.5920  133.5440 C.2       1 TES503      0.0000 
      6 C5         38.7360   15.0930  134.4940 C.2       1 TES503      0.0000 
      7 C6         38.6630   15.8410  135.7940 C.3       1 TES503      0.0000 
      8 C7         37.2900   15.7100  136.4200 C.3       1 TES503      0.0000 
      9 C8         36.9020   14.2560  136.5490 C.3       1 TES503      0.0000 
     10 C9         36.6990   13.6620  135.1640 C.3       1 TES503      0.0000 
     11 C10        37.9760   13.7970  134.2970 C.3       1 TES503      0.0000 
     12 C11        36.1150   12.2220  135.2330 C.3       1 TES503      0.0000 
     13 C12        35.0560   11.9080  136.3130 C.3       1 TES503      0.0000 
     14 C13        35.2940   12.6520  137.6270 C.3       1 TES503      0.0000 
     15 C14        35.5710   14.0960  137.2770 C.3       1 TES503      0.0000 
     16 C15        35.2930   14.8990  138.5460 C.3       1 TES503      0.0000 
     17 C16        34.1960   14.1170  139.2720 C.3       1 TES503      0.0000 
     18 C17        34.0640   12.7860  138.5350 C.3       1 TES503      0.0000 
     19 O17        33.9140   11.7410  139.4830 O.3       1 TES503      0.0000 
     20 C18        36.4940   12.0570  138.3800 C.3       1 TES503      0.0000 
     21 C19        38.9740   12.7060  134.6870 C.3       1 TES503      0.0000 
@<TRIPOS>BOND
     1    1    2 1    
     2    1   11 1    
     3    2    3 1    
     4    3    4 2    
     5    3    5 1    
     6    5    6 2    
     7    6    7 1    
     8    6   11 1    
     9    7    8 1    
    10    8    9 1    
    11    9   10 1    
    12    9   15 1    
    13   10   11 1    
    14   10   12 1    
    15   11   21 1    
    16   12   13 1    
    17   13   14 1    
    18   14   15 1    
    19   14   18 1    
    20   14   20 1    
    21   15   16 1    
    22   16   17 1    
    23   17   18 1    
    24   18   19 1    
@<TRIPOS>SUBSTRUCTURE
     1 TES503      1 GROUP   
@<TRIPOS>SET

