#    Name: 5og9_3_TES
#    Modification time : Fri May 22 19:26:28 2020

@<TRIPOS>MOLECULE
5og9_3_TES
   21    24     1     0     0
SMALL
NO_CHARGES


@<TRIPOS>ATOM
      1 C1         47.2210    8.7840  136.8670 C.3       1 TES502      0.0000 
      2 C2         48.5620    8.2620  136.3620 C.3       1 TES502      0.0000 
      3 C3         48.9580    8.9360  135.0620 C.2       1 TES502      0.0000 
      4 O3         49.7480    8.3900  134.3010 O.2       1 TES502      0.0000 
      5 C4         48.3790   10.2530  134.7070 C.2       1 TES502      0.0000 
      6 C5         47.4680   10.8560  135.4830 C.2       1 TES502      0.0000 
      7 C6         46.7670   12.0440  134.9010 C.3       1 TES502      0.0000 
      8 C7         46.0870   12.9080  135.9350 C.3       1 TES502      0.0000 
      9 C8         45.3610   12.1750  137.0560 C.3       1 TES502      0.0000 
     10 C9         45.6370   10.6800  137.1330 C.3       1 TES502      0.0000 
     11 C10        47.0940   10.3140  136.8430 C.3       1 TES502      0.0000 
     12 C11        45.1070   10.1860  138.4840 C.3       1 TES502      0.0000 
     13 C12        43.5830   10.3740  138.6090 C.3       1 TES502      0.0000 
     14 C13        43.1760   11.8120  138.3390 C.3       1 TES502      0.0000 
     15 C14        43.8280   12.2670  137.0280 C.3       1 TES502      0.0000 
     16 C15        43.1500   13.5880  136.7310 C.3       1 TES502      0.0000 
     17 C16        41.7040   13.3570  137.2020 C.3       1 TES502      0.0000 
     18 C17        41.6850   12.0750  138.0500 C.3       1 TES502      0.0000 
     19 O17        40.8250   12.2680  139.2000 O.3       1 TES502      0.0000 
     20 C18        43.5920   12.6500  139.5480 C.3       1 TES502      0.0000 
     21 C19        48.0430   10.9660  137.8250 C.3       1 TES502      0.0000 
@<TRIPOS>BOND
     1    1    2 1    
     2    1   11 1    
     3    2    3 1    
     4    3    4 2    
     5    3    5 1    
     6    5    6 2    
     7    6    7 1    
     8    6   11 1    
     9    7    8 1    
    10    8    9 1    
    11    9   10 1    
    12    9   15 1    
    13   10   11 1    
    14   10   12 1    
    15   11   21 1    
    16   12   13 1    
    17   13   14 1    
    18   14   15 1    
    19   14   18 1    
    20   14   20 1    
    21   15   16 1    
    22   16   17 1    
    23   17   18 1    
    24   18   19 1    
@<TRIPOS>SUBSTRUCTURE
     1 TES502      1 GROUP   
@<TRIPOS>SET

