#    Name: 5og9_1_TES
#    Modification time : Fri May 22 19:26:20 2020

@<TRIPOS>MOLECULE
5og9_1_TES
   21    24     1     0     0
SMALL
NO_CHARGES


@<TRIPOS>ATOM
      1 C1         54.7260    3.9950  110.7970 C.3       1 TES503      0.0000 
      2 C2         53.2180    3.9140  110.5160 C.3       1 TES503      0.0000 
      3 C3         52.8340    2.8140  109.5540 C.2       1 TES503      0.0000 
      4 O3         51.6630    2.4830  109.4580 O.2       1 TES503      0.0000 
      5 C4         53.8700    2.1780  108.7080 C.2       1 TES503      0.0000 
      6 C5         55.1490    2.6190  108.7020 C.2       1 TES503      0.0000 
      7 C6         56.0810    2.1350  107.6290 C.3       1 TES503      0.0000 
      8 C7         56.3300    3.3530  106.7420 C.3       1 TES503      0.0000 
      9 C8         56.9040    4.5400  107.5120 C.3       1 TES503      0.0000 
     10 C9         56.0850    4.8930  108.7650 C.3       1 TES503      0.0000 
     11 C10        55.7150    3.6740  109.6420 C.3       1 TES503      0.0000 
     12 C11        56.8020    6.0470  109.4860 C.3       1 TES503      0.0000 
     13 C12        56.8740    7.3110  108.6010 C.3       1 TES503      0.0000 
     14 C13        57.5960    6.9970  107.2970 C.3       1 TES503      0.0000 
     15 C14        56.9310    5.7960  106.6490 C.3       1 TES503      0.0000 
     16 C15        57.5810    5.7240  105.2810 C.3       1 TES503      0.0000 
     17 C16        57.7450    7.1920  104.8810 C.3       1 TES503      0.0000 
     18 C17        57.4950    8.0130  106.1540 C.3       1 TES503      0.0000 
     19 O17        58.4180    9.1210  106.2300 O.3       1 TES503      0.0000 
     20 C18        59.0710    6.7730  107.6210 C.3       1 TES503      0.0000 
     21 C19        56.9940    3.1070  110.2610 C.3       1 TES503      0.0000 
@<TRIPOS>BOND
     1    1    2 1    
     2    1   11 1    
     3    2    3 1    
     4    3    4 2    
     5    3    5 1    
     6    5    6 2    
     7    6    7 1    
     8    6   11 1    
     9    7    8 1    
    10    8    9 1    
    11    9   10 1    
    12    9   15 1    
    13   10   11 1    
    14   10   12 1    
    15   11   21 1    
    16   12   13 1    
    17   13   14 1    
    18   14   15 1    
    19   14   18 1    
    20   14   20 1    
    21   15   16 1    
    22   16   17 1    
    23   17   18 1    
    24   18   19 1    
@<TRIPOS>SUBSTRUCTURE
     1 TES503      1 GROUP   
@<TRIPOS>SET

