#    Name: 6fcy_1_ADP
#    Modification time : Fri May 22 19:30:55 2020

@<TRIPOS>MOLECULE
6fcy_1_ADP
   27    29     1     0     1
SMALL
NO_CHARGES


@<TRIPOS>ATOM
      1 PB        -29.5970  -12.6460    3.5820 P.3       1 ADP302      0.0000 
      2 O1B       -30.0620  -13.0410    2.2010 O.co2     1 ADP302      0.0000 
      3 O2B       -30.6470  -11.8580    4.3410 O.co2     1 ADP302      0.0000 
      4 O3B       -29.0500  -13.8150    4.3750 O.co2     1 ADP302      0.0000 
      5 PA        -27.2430  -10.9960    4.3520 P.3       1 ADP302      0.0000 
      6 O1A       -26.6610   -9.7860    3.7000 O.co2     1 ADP302      0.0000 
      7 O2A       -27.8430  -10.8280    5.7110 O.co2     1 ADP302      0.0000 
      8 O3A       -28.3430  -11.6380    3.3670 O.3       1 ADP302      0.0000 
      9 O5'       -26.1450  -12.1690    4.3960 O.3       1 ADP302      0.0000 
     10 C5'       -24.7390  -11.8380    4.5490 C.3       1 ADP302      0.0000 
     11 C4'       -24.0710  -12.7740    5.5320 C.3       1 ADP302      0.0000 
     12 O4'       -23.5000  -11.9940    6.6170 O.3       1 ADP302      0.0000 
     13 C3'       -24.9470  -13.8210    6.2340 C.3       1 ADP302      0.0000 
     14 O3'       -25.1300  -14.9740    5.4200 O.3       1 ADP302      0.0000 
     15 C2'       -24.1200  -14.0850    7.4990 C.3       1 ADP302      0.0000 
     16 O2'       -23.0020  -14.9190    7.2810 O.3       1 ADP302      0.0000 
     17 C1'       -23.6210  -12.6830    7.8440 C.3       1 ADP302      0.0000 
     18 N9        -24.4910  -11.8970    8.7350 N.pl3     1 ADP302      0.0000 
     19 C8        -25.8690  -11.9220    8.8260 C.2       1 ADP302      0.0000 
     20 N7        -26.3290  -11.0890    9.7300 N.2       1 ADP302      0.0000 
     21 C5        -25.1990  -10.4760   10.2540 C.ar      1 ADP302      0.0000 
     22 C6        -25.0270   -9.4910   11.2470 C.ar      1 ADP302      0.0000 
     23 N6        -26.0360   -8.9350   11.9100 N.pl3     1 ADP302      0.0000 
     24 N1        -23.7580   -9.0960   11.5240 N.ar      1 ADP302      0.0000 
     25 C2        -22.7470   -9.6690   10.8490 C.ar      1 ADP302      0.0000 
     26 N3        -22.7910  -10.6070    9.9030 N.ar      1 ADP302      0.0000 
     27 C4        -24.0620  -10.9710    9.6500 C.ar      1 ADP302      0.0000 
@<TRIPOS>BOND
     1    1    2 ar   
     2    1    3 ar   
     3    1    4 ar   
     4    1    8 1    
     5    5    6 ar   
     6    5    7 ar   
     7    5    8 1    
     8    5    9 1    
     9    9   10 1    
    10   10   11 1    
    11   11   12 1    
    12   11   13 1    
    13   12   17 1    
    14   13   14 1    
    15   13   15 1    
    16   15   16 1    
    17   15   17 1    
    18   17   18 1    
    19   18   19 1    
    20   18   27 1    
    21   19   20 2    
    22   20   21 1    
    23   21   22 ar   
    24   21   27 ar   
    25   22   23 1    
    26   22   24 ar   
    27   24   25 ar   
    28   25   26 ar   
    29   26   27 ar   
@<TRIPOS>SUBSTRUCTURE
     1 ADP302      1 GROUP   
@<TRIPOS>SET
ATOM$ORANGE STATIC     ATOMS   COLORGROUP SYSTEM 
20 10 10 11 11 13 13 15 15 17 17 19 19 21 21 22 22 25 \
25 27 27 

