#    Name: 6fcy_1_ADP_CAVITY_N1_ALL
#    Modification time : Fri May 22 19:30:56 2020

@<TRIPOS>MOLECULE
6fcy_1_ADP_CAVITY_N1_ALL
  101     0     6     0     0
SMALL
NO_CHARGES


@<TRIPOS>ATOM
      1 OG        -27.6300  -14.4800    6.9500 O.3       1 SER1        0.0000 
      2 OG        -30.9500   -9.4800   11.2100 O.3       1 SER1        0.0000 
      3 OG        -31.8700  -10.0700   12.2300 O.3       1 SER1        0.0000 
      4 OG        -30.2000  -10.7900   13.3200 O.3       1 SER1        0.0000 
      5 OG        -29.2100   -8.3900   13.4000 O.3       1 SER1        0.0000 
      6 OG        -29.3300  -10.2500   14.4200 O.3       1 SER1        0.0000 
      7 OG        -28.3400   -7.8500   14.4900 O.3       1 SER1        0.0000 
      8 N         -27.3200  -10.7300    2.7900 N.am      2 ALA2        0.0000 
      9 N         -24.1700  -14.0700    8.1200 N.am      2 ALA2        0.0000 
     10 N         -30.2700  -12.6100   12.2300 N.am      2 ALA2        0.0000 
     11 N         -31.0700  -11.3400   12.2300 N.am      2 ALA2        0.0000 
     12 N         -22.3800  -12.9400    8.1900 N.am      2 ALA2        0.0000 
     13 N         -24.1000  -12.2600    9.2100 N.am      2 ALA2        0.0000 
     14 N         -28.4800  -11.4700   12.3000 N.am      2 ALA2        0.0000 
     15 N         -22.3100  -11.1300    9.2800 N.am      2 ALA2        0.0000 
     16 N         -23.2300  -11.7100   10.3100 N.am      2 ALA2        0.0000 
     17 N         -27.6100  -10.9300   13.3900 N.am      2 ALA2        0.0000 
     18 N         -23.1700   -9.9000   11.4100 N.am      2 ALA2        0.0000 
     19 O         -27.5400   -9.1200   14.4900 O.2       2 ALA2        0.0000 
     20 OD1       -28.4400  -14.9800    3.7400 O.co2     3 ASP3        0.0000 
     21 OD1       -29.2400  -13.7100    3.7400 O.co2     3 ASP3        0.0000 
     22 OD1       -30.0400  -12.4400    3.7400 O.co2     3 ASP3        0.0000 
     23 OD1       -30.9700  -13.0300    4.7700 O.co2     3 ASP3        0.0000 
     24 OD1       -28.1200   -9.4600    2.7900 O.co2     3 ASP3        0.0000 
     25 OD1       -28.2500  -11.3100    3.8100 O.co2     3 ASP3        0.0000 
     26 OD1       -27.5800  -14.4300    4.8300 O.co2     3 ASP3        0.0000 
     27 OD1       -28.3800  -13.1700    4.8400 O.co2     3 ASP3        0.0000 
     28 OD1       -28.5000  -15.0200    5.8600 O.co2     3 ASP3        0.0000 
     29 OD1       -29.3000  -13.7500    5.8600 O.co2     3 ASP3        0.0000 
     30 OD1       -25.6600  -11.4500    3.8800 O.co2     3 ASP3        0.0000 
     31 OD1       -26.4600  -10.1800    3.8800 O.co2     3 ASP3        0.0000 
     32 OD1       -26.5800  -12.0400    4.9100 O.co2     3 ASP3        0.0000 
     33 OD1       -27.3800  -10.7700    4.9100 O.co2     3 ASP3        0.0000 
     34 OD1       -27.5100  -12.6200    5.9300 O.co2     3 ASP3        0.0000 
     35 OD1       -28.4300  -13.2100    6.9600 O.co2     3 ASP3        0.0000 
     36 OD1       -29.3600  -13.7900    7.9800 O.co2     3 ASP3        0.0000 
     37 OD1       -30.1600  -12.5200    7.9800 O.co2     3 ASP3        0.0000 
     38 OD1       -24.7900  -10.9100    4.9800 O.co2     3 ASP3        0.0000 
     39 OD1       -25.7100  -11.4900    6.0000 O.co2     3 ASP3        0.0000 
     40 OD1       -26.6400  -12.0800    7.0300 O.co2     3 ASP3        0.0000 
     41 OD1       -28.3600  -11.3900    8.0500 O.co2     3 ASP3        0.0000 
     42 OD1       -30.0900  -10.7100    9.0800 O.co2     3 ASP3        0.0000 
     43 OD1       -25.7700  -11.5300    8.1200 O.co2     3 ASP3        0.0000 
     44 OD1       -27.5000  -10.8500    9.1500 O.co2     3 ASP3        0.0000 
     45 OD1       -28.3000   -9.5800    9.1500 O.co2     3 ASP3        0.0000 
     46 OD1       -24.9000  -10.9900    9.2200 O.co2     3 ASP3        0.0000 
     47 OD1       -26.6300  -10.3000   10.2400 O.co2     3 ASP3        0.0000 
     48 OD1       -27.4300   -9.0300   10.2500 O.co2     3 ASP3        0.0000 
     49 OD1       -24.0300  -10.4400   10.3100 O.co2     3 ASP3        0.0000 
     50 OD1       -24.8300   -9.1700   10.3100 O.co2     3 ASP3        0.0000 
     51 OD1       -26.5600   -8.4900   11.3400 O.co2     3 ASP3        0.0000 
     52 OD1       -23.0400   -8.0400   10.3800 O.co2     3 ASP3        0.0000 
     53 OD1       -23.8400   -6.7700   10.3900 O.co2     3 ASP3        0.0000 
     54 NZ        -25.9100  -15.1600    5.9300 N.4       4 LYS4        0.0000 
     55 NZ        -26.7100  -13.8900    5.9300 N.4       4 LYS4        0.0000 
     56 NZ        -24.1100  -14.0300    6.0000 N.4       4 LYS4        0.0000 
     57 NZ        -25.0400  -14.6100    7.0200 N.4       4 LYS4        0.0000 
     58 NZ        -25.8400  -13.3500    7.0200 N.4       4 LYS4        0.0000 
     59 NZ        -31.1400  -13.1500   11.1300 N.4       4 LYS4        0.0000 
     60 NZ        -31.9400  -11.8800   11.1300 N.4       4 LYS4        0.0000 
     61 NZ        -32.7400  -10.6100   11.1400 N.4       4 LYS4        0.0000 
     62 NZ        -32.8600  -12.4700   12.1600 N.4       4 LYS4        0.0000 
     63 NZ        -23.2500  -13.4800    7.0900 N.4       4 LYS4        0.0000 
     64 NZ        -32.0000  -11.9200   13.2500 N.4       4 LYS4        0.0000 
     65 NZ        -23.9700   -8.6300   11.4100 N.4       4 LYS4        0.0000 
     66 CA        -28.3200  -13.1300    2.7200 C.3       5 GLY6        0.0000 
     67 CA        -27.6400  -16.2500    3.7400 C.3       5 GLY6        0.0000 
     68 CA        -26.5200  -11.9900    2.7900 C.3       5 GLY6        0.0000 
     69 CA        -26.6500  -13.8500    3.8100 C.3       5 GLY6        0.0000 
     70 CA        -27.4500  -12.5800    3.8100 C.3       5 GLY6        0.0000 
     71 CA        -26.7800  -15.7000    4.8300 C.3       5 GLY6        0.0000 
     72 CA        -24.8600  -12.7200    3.8800 C.3       5 GLY6        0.0000 
     73 CA        -25.7800  -13.3000    4.9000 C.3       5 GLY6        0.0000 
     74 CA        -23.9900  -12.1700    4.9700 C.3       5 GLY6        0.0000 
     75 CA        -26.7600  -13.9300    8.0500 C.3       5 GLY6        0.0000 
     76 CA        -27.5600  -12.6600    8.0500 C.3       5 GLY6        0.0000 
     77 CA        -29.2900  -11.9800    9.0800 C.3       5 GLY6        0.0000 
     78 CA        -30.2100  -12.5600   10.1100 C.3       5 GLY6        0.0000 
     79 CA        -23.1200  -11.6300    6.0700 C.3       5 GLY6        0.0000 
     80 CA        -24.0500  -12.2100    7.0900 C.3       5 GLY6        0.0000 
     81 CA        -24.9700  -12.8000    8.1200 C.3       5 GLY6        0.0000 
     82 CA        -26.7000  -12.1200    9.1500 C.3       5 GLY6        0.0000 
     83 CA        -28.4200  -11.4300   10.1800 C.3       5 GLY6        0.0000 
     84 CA        -29.3500  -12.0200   11.2000 C.3       5 GLY6        0.0000 
     85 CA        -23.1800  -11.6700    8.1900 C.3       5 GLY6        0.0000 
     86 CA        -25.8300  -11.5700   10.2400 C.3       5 GLY6        0.0000 
     87 CA        -27.5500  -10.8900   11.2700 C.3       5 GLY6        0.0000 
     88 CA        -24.9600  -11.0300   11.3400 C.3       5 GLY6        0.0000 
     89 CA        -25.7600   -9.7600   11.3400 C.3       5 GLY6        0.0000 
     90 CA        -25.8800  -11.6100   12.3600 C.3       5 GLY6        0.0000 
     91 CA        -26.6800  -10.3400   12.3700 C.3       5 GLY6        0.0000 
     92 CA        -22.2400   -9.3100   10.3800 C.3       5 GLY6        0.0000 
     93 CA        -24.0900  -10.4800   12.4300 C.3       5 GLY6        0.0000 
     94 DU        -24.9100  -12.7600    6.0000 H         6 CUB7        0.0000 
     95 DU        -31.0100  -11.3000   10.1100 H         6 CUB7        0.0000 
     96 DU        -29.2200  -10.1600   10.1800 H         6 CUB7        0.0000 
     97 DU        -30.1500  -10.7500   11.2000 H         6 CUB7        0.0000 
     98 DU        -28.3500   -9.6200   11.2700 H         6 CUB7        0.0000 
     99 DU        -29.2800  -10.2100   12.3000 H         6 CUB7        0.0000 
    100 DU        -27.4800   -9.0800   12.3700 H         6 CUB7        0.0000 
    101 DU        -28.4100   -9.6600   13.3900 H         6 CUB7        0.0000 
@<TRIPOS>BOND
@<TRIPOS>SUBSTRUCTURE
     1 SER1        1 GROUP   
     2 ALA2        8 GROUP   
     3 ASP3       20 GROUP   
     4 LYS4       54 GROUP   
     5 GLY6       66 GROUP   
     6 CUB7       94 GROUP   
@<TRIPOS>SET

