#    Name: 6iey_1_CLM
#    Modification time : Fri May 22 19:27:42 2020

@<TRIPOS>MOLECULE
6iey_1_CLM
   20    20     1     0     0
SMALL
NO_CHARGES


@<TRIPOS>ATOM
      1 C1        -58.9710   34.6090   -9.7040 C.2       1 CLM401      0.0000 
      2 CL1       -57.6890   33.8510  -10.6330 Cl        1 CLM401      0.0000 
      3 CL2       -58.6680   36.3340   -9.6930 Cl        1 CLM401      0.0000 
      4 C2        -59.2540   34.0830   -8.2750 C.2       1 CLM401      0.0000 
      5 O2        -60.3920   34.1580   -7.8380 O.2       1 CLM401      0.0000 
      6 N2        -58.2640   33.5100   -7.3980 N.am      1 CLM401      0.0000 
      7 C3        -58.7150   33.1250   -6.0860 C.3       1 CLM401      0.0000 
      8 C4        -58.4030   34.2690   -5.1450 C.3       1 CLM401      0.0000 
      9 O4        -59.1760   34.1730   -3.9670 O.3       1 CLM401      0.0000 
     10 C5        -58.2030   31.8230   -5.4570 C.3       1 CLM401      0.0000 
     11 O5        -58.8120   31.7210   -4.2000 O.3       1 CLM401      0.0000 
     12 C6        -56.6910   31.5520   -5.2680 C.ar      1 CLM401      0.0000 
     13 C7        -55.6680   32.4830   -5.4350 C.ar      1 CLM401      0.0000 
     14 C8        -54.3330   32.1190   -5.2560 C.ar      1 CLM401      0.0000 
     15 C9        -54.0010   30.8090   -4.8960 C.ar      1 CLM401      0.0000 
     16 N9        -52.6260   30.3990   -4.7030 N.pl3     1 CLM401      0.0000 
     17 O9A       -51.5850   31.2170   -5.0930 O.2       1 CLM401      0.0000 
     18 O9B       -52.3940   29.2960   -4.1970 O.2       1 CLM401      0.0000 
     19 C10       -55.0120   29.8680   -4.7230 C.ar      1 CLM401      0.0000 
     20 C11       -56.3450   30.2450   -4.8980 C.ar      1 CLM401      0.0000 
@<TRIPOS>BOND
     1    1    2 1    
     2    1    3 1    
     3    1    4 1    
     4    4    5 2    
     5    4    6 am   
     6    6    7 1    
     7    7    8 1    
     8    7   10 1    
     9    8    9 1    
    10   10   11 1    
    11   10   12 1    
    12   12   13 ar   
    13   12   20 ar   
    14   13   14 ar   
    15   14   15 ar   
    16   15   16 1    
    17   15   19 ar   
    18   16   17 2    
    19   16   18 2    
    20   19   20 ar   
@<TRIPOS>SUBSTRUCTURE
     1 CLM401      1 GROUP   
@<TRIPOS>SET

