#    Name: 6fz6_1_SAH_CAVITY_N1_4
#    Modification time : Fri May 22 19:26:12 2020

@<TRIPOS>MOLECULE
6fz6_1_SAH_CAVITY_N1_4
   68     0     6     0     0
SMALL
NO_CHARGES


@<TRIPOS>ATOM
      1 OG        -15.7500   -2.0800  -66.7100 O.3       1 SER1        0.0000 
      2 OG        -14.1600   -1.4000  -65.4700 O.3       1 SER1        0.0000 
      3 OG        -15.6300   -1.6300  -65.2800 O.3       1 SER1        0.0000 
      4 OG        -17.1000   -1.8700  -65.0900 O.3       1 SER1        0.0000 
      5 OG        -13.7700   -2.3700  -63.6200 O.3       1 SER1        0.0000 
      6 OG        -14.0500   -0.9600  -64.0400 O.3       1 SER1        0.0000 
      7 OG        -15.5200   -1.1900  -63.8500 O.3       1 SER1        0.0000 
      8 OG        -16.9900   -1.4200  -63.6600 O.3       1 SER1        0.0000 
      9 OG        -13.6600   -1.9300  -62.1900 O.3       1 SER1        0.0000 
     10 OG        -13.9400   -0.5100  -62.6100 O.3       1 SER1        0.0000 
     11 OG        -15.4100   -0.7500  -62.4200 O.3       1 SER1        0.0000 
     12 N         -16.7000    1.7200  -69.3800 N.am      2 ALA2        0.0000 
     13 N         -11.3400   -1.3700  -67.2700 N.am      2 ALA2        0.0000 
     14 N         -14.8300    0.9900  -67.7300 N.am      2 ALA2        0.0000 
     15 O         -16.5800    2.1600  -67.9600 O.2       2 ALA2        0.0000 
     16 N          -9.7600   -0.7000  -66.0300 N.am      2 ALA2        0.0000 
     17 N         -11.2200   -0.9300  -65.8400 N.am      2 ALA2        0.0000 
     18 N         -11.5000    0.4800  -66.2600 N.am      2 ALA2        0.0000 
     19 N         -12.9700    0.2500  -66.0700 N.am      2 ALA2        0.0000 
     20 N         -13.2500    1.6600  -66.4900 N.am      2 ALA2        0.0000 
     21 O         -14.7200    1.4300  -66.3000 O.2       2 ALA2        0.0000 
     22 N          -9.6400   -0.2500  -64.6000 N.am      2 ALA2        0.0000 
     23 N          -9.9200    1.1600  -65.0200 N.am      2 ALA2        0.0000 
     24 N         -11.1100   -0.4900  -64.4200 N.am      2 ALA2        0.0000 
     25 N         -11.3900    0.9300  -64.8300 N.am      2 ALA2        0.0000 
     26 N         -11.6700    2.3400  -65.2500 N.am      2 ALA2        0.0000 
     27 N         -13.1400    2.1100  -65.0600 N.am      2 ALA2        0.0000 
     28 N          -9.8100    1.6000  -63.5900 N.am      2 ALA2        0.0000 
     29 N         -11.0000   -0.0400  -62.9900 N.am      2 ALA2        0.0000 
     30 N         -11.2800    1.3700  -63.4000 N.am      2 ALA2        0.0000 
     31 N         -11.5600    2.7800  -63.8200 N.am      2 ALA2        0.0000 
     32 N         -12.4700   -0.2800  -62.8000 N.am      2 ALA2        0.0000 
     33 N         -12.7500    1.1400  -63.2100 N.am      2 ALA2        0.0000 
     34 N         -14.2200    0.9000  -63.0300 N.am      2 ALA2        0.0000 
     35 N         -14.5000    2.3100  -63.4400 N.am      2 ALA2        0.0000 
     36 N         -13.8300   -0.0700  -61.1800 N.am      2 ALA2        0.0000 
     37 NZ        -10.8300   -1.9000  -64.0000 N.4       3 LYS4        0.0000 
     38 NZ        -12.1900   -1.6900  -62.3800 N.4       3 LYS4        0.0000 
     39 CZ        -16.8100    1.2800  -70.8100 C.ar      4 PHE5        0.0000 
     40 CZ        -14.9500    0.5400  -69.1600 C.ar      4 PHE5        0.0000 
     41 CZ        -16.1400   -1.1100  -68.5500 C.ar      4 PHE5        0.0000 
     42 CZ        -16.4200    0.3100  -68.9700 C.ar      4 PHE5        0.0000 
     43 CZ        -14.5600   -0.4300  -67.3100 C.ar      4 PHE5        0.0000 
     44 CA        -18.2800    1.0400  -70.6200 C.3       5 GLY6        0.0000 
     45 CA        -17.8900    0.0700  -68.7800 C.3       5 GLY6        0.0000 
     46 CA        -18.1700    1.4900  -69.2000 C.3       5 GLY6        0.0000 
     47 CA        -11.6200    0.0400  -67.6900 C.3       5 GLY6        0.0000 
     48 CA        -13.0900   -0.1900  -67.5000 C.3       5 GLY6        0.0000 
     49 CA        -16.3000    0.7500  -67.5400 C.3       5 GLY6        0.0000 
     50 CA        -17.4900   -0.9000  -66.9300 C.3       5 GLY6        0.0000 
     51 CA        -17.7700    0.5200  -67.3500 C.3       5 GLY6        0.0000 
     52 CA        -10.9500   -2.3400  -65.4300 C.3       5 GLY6        0.0000 
     53 CA        -16.1900    1.1900  -66.1100 C.3       5 GLY6        0.0000 
     54 CA        -17.6600    0.9600  -65.9200 C.3       5 GLY6        0.0000 
     55 CA        -12.3000   -2.1300  -63.8100 C.3       5 GLY6        0.0000 
     56 CA        -16.0800    1.6400  -64.6800 C.3       5 GLY6        0.0000 
     57 CA        -17.2700   -0.0100  -64.0800 C.3       5 GLY6        0.0000 
     58 CA        -15.6900    0.6700  -62.8400 C.3       5 GLY6        0.0000 
     59 CA        -14.1000    1.3400  -61.6000 C.3       5 GLY6        0.0000 
     60 DU        -16.0200   -0.6600  -67.1200 H         6 CUB7        0.0000 
     61 DU        -12.6900   -1.1600  -65.6600 H         6 CUB7        0.0000 
     62 DU        -14.4400    0.0100  -65.8800 H         6 CUB7        0.0000 
     63 DU        -15.9100   -0.2200  -65.6900 H         6 CUB7        0.0000 
     64 DU        -17.3800   -0.4500  -65.5100 H         6 CUB7        0.0000 
     65 DU        -12.5800   -0.7200  -64.2300 H         6 CUB7        0.0000 
     66 DU        -12.8600    0.6900  -64.6400 H         6 CUB7        0.0000 
     67 DU        -14.3300    0.4600  -64.4500 H         6 CUB7        0.0000 
     68 DU        -15.8000    0.2200  -64.2700 H         6 CUB7        0.0000 
@<TRIPOS>BOND
@<TRIPOS>SUBSTRUCTURE
     1 SER1        1 GROUP   
     2 ALA2       12 GROUP   
     3 LYS4       37 GROUP   
     4 PHE5       39 GROUP   
     5 GLY6       44 GROUP   
     6 CUB7       60 GROUP   
@<TRIPOS>SET

