#    Name: 6fz6_2_SAH
#    Modification time : Fri May 22 19:26:16 2020

@<TRIPOS>MOLECULE
6fz6_2_SAH
   26    28     1     0     0
SMALL
NO_CHARGES


@<TRIPOS>ATOM
      1 N         -11.1750   23.7770   -6.0920 N.4       1 SAH402      0.0000 
      2 CA        -12.3790   23.1200   -5.5910 C.3       1 SAH402      0.0000 
      3 CB        -13.4270   24.1490   -5.1730 C.3       1 SAH402      0.0000 
      4 CG        -13.5620   25.4150   -6.0270 C.3       1 SAH402      0.0000 
      5 SD        -14.1190   25.1100   -7.7270 S.3       1 SAH402      0.0000 
      6 C         -12.9240   22.1420   -6.6150 C.2       1 SAH402      0.0000 
      7 O         -12.4470   22.1400   -7.7700 O.co2     1 SAH402      0.0000 
      8 OXT       -13.8260   21.3390   -6.2980 O.co2     1 SAH402      0.0000 
      9 C5'       -15.8350   24.6910   -7.3190 C.3       1 SAH402      0.0000 
     10 C4'       -16.5360   23.9600   -8.4560 C.3       1 SAH402      0.0000 
     11 O4'       -16.6010   24.7800   -9.6130 O.3       1 SAH402      0.0000 
     12 C3'       -15.7950   22.7020   -8.8870 C.3       1 SAH402      0.0000 
     13 O3'       -16.6520   21.5800   -8.8620 O.3       1 SAH402      0.0000 
     14 C2'       -15.3860   23.0660  -10.2860 C.3       1 SAH402      0.0000 
     15 O2'       -15.0870   21.9520  -11.1000 O.3       1 SAH402      0.0000 
     16 C1'       -16.5460   23.9320  -10.7380 C.3       1 SAH402      0.0000 
     17 N9        -16.2600   24.6810  -11.9640 N.pl3     1 SAH402      0.0000 
     18 C8        -15.0620   25.1950  -12.3510 C.2       1 SAH402      0.0000 
     19 N7        -15.1780   25.7920  -13.5400 N.2       1 SAH402      0.0000 
     20 C5        -16.4790   25.6820  -13.9400 C.ar      1 SAH402      0.0000 
     21 C6        -17.1760   26.1140  -15.0660 C.ar      1 SAH402      0.0000 
     22 N6        -16.6500   26.8070  -16.0650 N.pl3     1 SAH402      0.0000 
     23 N1        -18.4920   25.7940  -15.1240 N.ar      1 SAH402      0.0000 
     24 C2        -19.1620   25.1020  -14.1380 C.ar      1 SAH402      0.0000 
     25 N3        -18.4990   24.6620  -13.0310 N.ar      1 SAH402      0.0000 
     26 C4        -17.1670   24.9560  -12.9420 C.ar      1 SAH402      0.0000 
@<TRIPOS>BOND
     1    1    2 1    
     2    2    3 1    
     3    2    6 1    
     4    3    4 1    
     5    4    5 1    
     6    5    9 1    
     7    6    7 ar   
     8    6    8 ar   
     9    9   10 1    
    10   10   11 1    
    11   10   12 1    
    12   11   16 1    
    13   12   13 1    
    14   12   14 1    
    15   14   15 1    
    16   14   16 1    
    17   16   17 1    
    18   17   18 1    
    19   17   26 1    
    20   18   19 2    
    21   19   20 1    
    22   20   21 ar   
    23   20   26 ar   
    24   21   22 1    
    25   21   23 ar   
    26   23   24 ar   
    27   24   25 ar   
    28   25   26 ar   
@<TRIPOS>SUBSTRUCTURE
     1 SAH402      1 GROUP   
@<TRIPOS>SET

