#    Name: 6fz6_1_SAH
#    Modification time : Fri May 22 19:26:10 2020

@<TRIPOS>MOLECULE
6fz6_1_SAH
   26    28     1     0     0
SMALL
NO_CHARGES


@<TRIPOS>ATOM
      1 N         -11.5240   -0.7810  -62.5030 N.4       1 SAH402      0.0000 
      2 CA        -12.8230   -1.1950  -62.0100 C.3       1 SAH402      0.0000 
      3 CB        -13.6230    0.0170  -61.5710 C.3       1 SAH402      0.0000 
      4 CG        -13.6200    1.2670  -62.4760 C.3       1 SAH402      0.0000 
      5 SD        -14.2380    1.0100  -64.1690 S.3       1 SAH402      0.0000 
      6 C         -13.5290   -2.0940  -63.0210 C.2       1 SAH402      0.0000 
      7 O         -13.0900   -2.2060  -64.1720 O.co2     1 SAH402      0.0000 
      8 OXT       -14.5360   -2.7170  -62.6830 O.co2     1 SAH402      0.0000 
      9 C5'       -15.9930    0.8330  -63.7360 C.3       1 SAH402      0.0000 
     10 C4'       -16.8020    0.2090  -64.8800 C.3       1 SAH402      0.0000 
     11 O4'       -16.7860    1.0100  -66.0700 O.3       1 SAH402      0.0000 
     12 C3'       -16.2920   -1.1680  -65.2900 C.3       1 SAH402      0.0000 
     13 O3'       -17.3540   -2.1230  -65.2080 O.3       1 SAH402      0.0000 
     14 C2'       -15.7860   -0.8990  -66.6960 C.3       1 SAH402      0.0000 
     15 O2'       -15.6540   -2.0330  -67.5350 O.3       1 SAH402      0.0000 
     16 C1'       -16.7920    0.1300  -67.1860 C.3       1 SAH402      0.0000 
     17 N9        -16.4110    0.8160  -68.4170 N.pl3     1 SAH402      0.0000 
     18 C8        -15.1370    1.1400  -68.8100 C.2       1 SAH402      0.0000 
     19 N7        -15.2010    1.7600  -69.9910 N.2       1 SAH402      0.0000 
     20 C5        -16.4980    1.8070  -70.4030 C.ar      1 SAH402      0.0000 
     21 C6        -17.1270    2.3130  -71.5250 C.ar      1 SAH402      0.0000 
     22 N6        -16.4960    2.9250  -72.5220 N.pl3     1 SAH402      0.0000 
     23 N1        -18.4860    2.1990  -71.5610 N.ar      1 SAH402      0.0000 
     24 C2        -19.2260    1.6060  -70.5670 C.ar      1 SAH402      0.0000 
     25 N3        -18.6170    1.0960  -69.4660 N.ar      1 SAH402      0.0000 
     26 C4        -17.2720    1.2140  -69.3950 C.ar      1 SAH402      0.0000 
@<TRIPOS>BOND
     1    1    2 1    
     2    2    3 1    
     3    2    6 1    
     4    3    4 1    
     5    4    5 1    
     6    5    9 1    
     7    6    7 ar   
     8    6    8 ar   
     9    9   10 1    
    10   10   11 1    
    11   10   12 1    
    12   11   16 1    
    13   12   13 1    
    14   12   14 1    
    15   14   15 1    
    16   14   16 1    
    17   16   17 1    
    18   17   18 1    
    19   17   26 1    
    20   18   19 2    
    21   19   20 1    
    22   20   21 ar   
    23   20   26 ar   
    24   21   22 1    
    25   21   23 ar   
    26   23   24 ar   
    27   24   25 ar   
    28   25   26 ar   
@<TRIPOS>SUBSTRUCTURE
     1 SAH402      1 GROUP   
@<TRIPOS>SET

