#    Name: 6j9q_1_ANP_CAVITY_N1_4
#    Modification time : Fri May 22 19:36:40 2020

@<TRIPOS>MOLECULE
6j9q_1_ANP_CAVITY_N1_4
   64     0     7     0     0
SMALL
NO_CHARGES


@<TRIPOS>ATOM
      1 OG         -5.0400   -1.5900   59.1800 O.3       1 SER1        0.0000 
      2 OG         -3.7700   -1.7800   58.4200 O.3       1 SER1        0.0000 
      3 OG          1.2400   -2.0100   60.9600 O.3       1 SER1        0.0000 
      4 OG         -3.9800   -0.5900   60.7200 O.3       1 SER1        0.0000 
      5 OG         -2.7000   -0.7800   59.9600 O.3       1 SER1        0.0000 
      6 O          -4.2100   -6.4800   58.8500 O.2       2 ALA2        0.0000 
      7 N          -2.9300   -6.6700   58.0900 N.am      2 ALA2        0.0000 
      8 O          -4.9000   -6.0500   57.5900 O.2       2 ALA2        0.0000 
      9 O          -4.4200   -5.2900   61.1500 O.2       2 ALA2        0.0000 
     10 O          -3.1400   -5.4800   60.3900 O.2       2 ALA2        0.0000 
     11 O          -3.8300   -5.0500   59.1300 O.2       2 ALA2        0.0000 
     12 N           0.5800   -5.5200   63.6900 N.am      2 ALA2        0.0000 
     13 O          -0.9000   -4.0100   57.8800 O.2       2 ALA2        0.0000 
     14 N           0.3700   -4.3400   65.9900 N.am      2 ALA2        0.0000 
     15 N          -0.3200   -3.9100   64.7300 N.am      2 ALA2        0.0000 
     16 N           0.9600   -4.1000   63.9700 N.am      2 ALA2        0.0000 
     17 O           0.1700   -3.0100   59.4200 O.2       2 ALA2        0.0000 
     18 O          -1.8000   -2.3900   58.9200 O.2       2 ALA2        0.0000 
     19 O          -2.4900   -1.9700   57.6600 O.2       2 ALA2        0.0000 
     20 O           0.5500   -1.5800   59.6900 O.2       2 ALA2        0.0000 
     21 OD1        -0.6300   -2.0600   63.7400 O.co2     3 ASP3        0.0000 
     22 OD1        -0.9400   -0.2100   62.7600 O.co2     3 ASP3        0.0000 
     23 NZ         -1.4200   -0.9700   59.2000 N.4       4 LYS4        0.0000 
     24 NZ         -0.3600    0.0300   60.7300 N.4       4 LYS4        0.0000 
     25 CZ         -3.2400   -4.8200   57.1000 C.ar      5 PHE5        0.0000 
     26 CZ         -2.8600   -3.3900   57.3800 C.ar      5 PHE5        0.0000 
     27 CA         -2.2400   -7.1000   59.3500 C.3       6 GLY6        0.0000 
     28 CA         -6.1700   -5.8600   58.3500 C.3       6 GLY6        0.0000 
     29 CA         -1.7600   -6.3300   62.9100 C.3       6 GLY6        0.0000 
     30 CA         -2.4500   -5.9100   61.6500 C.3       6 GLY6        0.0000 
     31 CA         -1.1700   -6.1000   60.8900 C.3       6 GLY6        0.0000 
     32 CA         -1.8600   -5.6700   59.6300 C.3       6 GLY6        0.0000 
     33 CA         -0.5800   -5.8600   58.8700 C.3       6 GLY6        0.0000 
     34 CA         -5.8000   -4.4400   58.6300 C.3       6 GLY6        0.0000 
     35 CA          1.8600   -5.7100   62.9300 C.3       6 GLY6        0.0000 
     36 CA         -0.1100   -5.1000   62.4300 C.3       6 GLY6        0.0000 
     37 CA         -0.8000   -4.6700   61.1700 C.3       6 GLY6        0.0000 
     38 CA         -0.2100   -4.4300   59.1400 C.3       6 GLY6        0.0000 
     39 CA          1.5500   -3.8600   61.9400 C.3       6 GLY6        0.0000 
     40 CA          0.8600   -3.4400   60.6800 C.3       6 GLY6        0.0000 
     41 CA         -1.6300    0.2200   61.5000 C.3       6 GLY6        0.0000 
     42 DU         -2.5500   -5.2400   58.3700 H         7 CUB7        0.0000 
     43 DU         -4.5200   -4.6300   57.8700 H         7 CUB7        0.0000 
     44 DU         -1.3800   -4.9100   63.1900 H         7 CUB7        0.0000 
     45 DU         -3.3500   -4.2900   62.6900 H         7 CUB7        0.0000 
     46 DU         -2.0700   -4.4800   61.9300 H         7 CUB7        0.0000 
     47 DU         -4.0400   -3.8600   61.4300 H         7 CUB7        0.0000 
     48 DU         -2.7600   -4.0500   60.6700 H         7 CUB7        0.0000 
     49 DU         -1.4900   -4.2400   59.9000 H         7 CUB7        0.0000 
     50 DU         -4.7300   -3.4400   60.1700 H         7 CUB7        0.0000 
     51 DU         -2.1700   -3.8200   58.6400 H         7 CUB7        0.0000 
     52 DU         -5.4200   -3.0100   58.9100 H         7 CUB7        0.0000 
     53 DU         -4.1400   -3.2000   58.1400 H         7 CUB7        0.0000 
     54 DU         -1.0100   -3.4800   63.4700 H         7 CUB7        0.0000 
     55 DU          0.2700   -3.6700   62.7000 H         7 CUB7        0.0000 
     56 DU         -0.4200   -3.2500   61.4400 H         7 CUB7        0.0000 
     57 DU         -1.1100   -2.8200   60.1800 H         7 CUB7        0.0000 
     58 DU         -5.6300   -1.8200   61.2100 H         7 CUB7        0.0000 
     59 DU         -4.3500   -2.0100   60.4400 H         7 CUB7        0.0000 
     60 DU         -3.0800   -2.2000   59.6800 H         7 CUB7        0.0000 
     61 DU          0.6500   -2.2500   62.9800 H         7 CUB7        0.0000 
     62 DU         -1.3200   -1.6300   62.4800 H         7 CUB7        0.0000 
     63 DU         -0.0400   -1.8200   61.7200 H         7 CUB7        0.0000 
     64 DU         -0.7300   -1.3900   60.4600 H         7 CUB7        0.0000 
@<TRIPOS>BOND
@<TRIPOS>SUBSTRUCTURE
     1 SER1        1 GROUP   
     2 ALA2        6 GROUP   
     3 ASP3       21 GROUP   
     4 LYS4       23 GROUP   
     5 PHE5       25 GROUP   
     6 GLY6       27 GROUP   
     7 CUB7       42 GROUP   
@<TRIPOS>SET

