#    Name: 6j9q_3_ANP_CAVITY_N1_6
#    Modification time : Fri May 22 19:36:53 2020

@<TRIPOS>MOLECULE
6j9q_3_ANP_CAVITY_N1_6
   93     0     7     0     0
SMALL
NO_CHARGES


@<TRIPOS>ATOM
      1 OG         28.0400   27.4900   18.8500 O.3       1 SER1        0.0000 
      2 OG         27.3500   27.9100   17.5900 O.3       1 SER1        0.0000 
      3 OG         26.6600   28.3400   16.3200 O.3       1 SER1        0.0000 
      4 OG         28.4100   28.9100   19.1200 O.3       1 SER1        0.0000 
      5 OG         26.4500   29.5300   18.6200 O.3       1 SER1        0.0000 
      6 OG         27.7200   29.3400   17.8600 O.3       1 SER1        0.0000 
      7 OG         32.8300   28.5800   14.8100 O.3       1 SER1        0.0000 
      8 OG         25.7600   29.9600   17.3600 O.3       1 SER1        0.0000 
      9 OG         32.6200   29.7700   17.1100 O.3       1 SER1        0.0000 
     10 OG         33.2100   30.0100   15.0900 O.3       1 SER1        0.0000 
     11 OG         33.8000   30.2400   13.0600 O.3       1 SER1        0.0000 
     12 OG         33.5900   31.4300   15.3700 O.3       1 SER1        0.0000 
     13 OG         34.1800   31.6700   13.3400 O.3       1 SER1        0.0000 
     14 OG         25.8200   33.2300   16.6500 O.3       1 SER1        0.0000 
     15 O          27.5600   26.7300   15.2900 O.2       2 ALA2        0.0000 
     16 O          28.6200   27.7200   16.8200 O.2       2 ALA2        0.0000 
     17 O          29.4800   29.9100   20.6600 O.2       2 ALA2        0.0000 
     18 O          28.7900   30.3400   19.4000 O.2       2 ALA2        0.0000 
     19 O          30.0700   30.1500   18.6400 O.2       2 ALA2        0.0000 
     20 O          31.3400   29.9600   17.8800 O.2       2 ALA2        0.0000 
     21 O          30.4400   31.5700   18.9100 O.2       2 ALA2        0.0000 
     22 O          31.7200   31.3800   18.1500 O.2       2 ALA2        0.0000 
     23 O          27.7900   32.6200   17.1500 O.2       2 ALA2        0.0000 
     24 O          27.1000   33.0400   15.8900 O.2       2 ALA2        0.0000 
     25 N          34.0700   32.3300   10.0600 N.am      2 ALA2        0.0000 
     26 O          27.5700   33.8100   19.4500 O.2       2 ALA2        0.0000 
     27 N          28.8500   33.6200   18.6900 N.am      2 ALA2        0.0000 
     28 O          28.1600   34.0400   17.4300 O.2       2 ALA2        0.0000 
     29 N          31.3100   33.9000   13.8800 N.am      2 ALA2        0.0000 
     30 N          34.4500   33.7600   10.3300 N.am      2 ALA2        0.0000 
     31 OD1        28.8400   26.5400   14.5200 O.co2     3 ASP3        0.0000 
     32 OD1        29.9000   27.5300   16.0600 O.co2     3 ASP3        0.0000 
     33 OD1        31.1800   27.3400   15.3000 O.co2     3 ASP3        0.0000 
     34 OD1        29.2100   27.9600   14.8000 O.co2     3 ASP3        0.0000 
     35 OD1        30.4900   27.7700   14.0400 O.co2     3 ASP3        0.0000 
     36 OD1        31.0800   28.0100   12.0100 O.co2     3 ASP3        0.0000 
     37 OD1        32.1400   29.0100   13.5500 O.co2     3 ASP3        0.0000 
     38 NZ         29.3100   27.3000   18.0900 N.4       4 LYS4        0.0000 
     39 NZ         30.5900   27.1100   17.3200 N.4       4 LYS4        0.0000 
     40 NZ         29.6900   28.7200   18.3600 N.4       4 LYS4        0.0000 
     41 NZ         30.9700   28.5300   17.6000 N.4       4 LYS4        0.0000 
     42 NZ         34.5500   33.0900   13.6200 N.4       4 LYS4        0.0000 
     43 CZ         27.1300   29.1000   19.8900 C.ar      5 PHE5        0.0000 
     44 CZ         28.2000   30.1000   21.4200 C.ar      5 PHE5        0.0000 
     45 CZ         27.5100   30.5300   20.1600 C.ar      5 PHE5        0.0000 
     46 CZ         27.8900   31.9500   20.4400 C.ar      5 PHE5        0.0000 
     47 CZ         29.1700   31.7600   19.6800 C.ar      5 PHE5        0.0000 
     48 CZ         28.2600   33.3800   20.7200 C.ar      5 PHE5        0.0000 
     49 CZ         29.5400   33.1900   19.9500 C.ar      5 PHE5        0.0000 
     50 CZ         30.8200   33.0000   19.1900 C.ar      5 PHE5        0.0000 
     51 CZ         33.7600   34.1800    9.0700 C.ar      5 PHE5        0.0000 
     52 CA         29.5300   26.1100   15.7800 C.3       6 GLY6        0.0000 
     53 CA         25.3800   28.5300   17.0900 C.3       6 GLY6        0.0000 
     54 CA         32.2500   28.3400   16.8400 C.3       6 GLY6        0.0000 
     55 CA         33.0000   31.1900   17.3900 C.3       6 GLY6        0.0000 
     56 CA         31.0300   31.8100   16.8900 C.3       6 GLY6        0.0000 
     57 CA         32.3100   31.6200   16.1300 C.3       6 GLY6        0.0000 
     58 CA         26.5100   32.8100   17.9200 C.3       6 GLY6        0.0000 
     59 CA         30.3400   32.2400   15.6300 C.3       6 GLY6        0.0000 
     60 CA         31.6200   32.0500   14.8700 C.3       6 GLY6        0.0000 
     61 CA         32.9000   31.8600   14.1000 C.3       6 GLY6        0.0000 
     62 CA         28.3700   32.8500   15.1300 C.3       6 GLY6        0.0000 
     63 CA         32.2100   32.2800   12.8400 C.3       6 GLY6        0.0000 
     64 CA         32.1000   32.8100   18.4300 C.3       6 GLY6        0.0000 
     65 CA         30.1300   33.4300   17.9300 C.3       6 GLY6        0.0000 
     66 CA         29.4400   33.8500   16.6700 C.3       6 GLY6        0.0000 
     67 CA         30.7200   33.6600   15.9000 C.3       6 GLY6        0.0000 
     68 CA         30.0300   34.0900   14.6400 C.3       6 GLY6        0.0000 
     69 CA         33.8600   33.5200   12.3600 C.3       6 GLY6        0.0000 
     70 CA         33.1700   33.9500   11.0900 C.3       6 GLY6        0.0000 
     71 DU         27.9300   28.1500   15.5600 H         7 CUB7        0.0000 
     72 DU         29.0000   29.1500   17.1000 H         7 CUB7        0.0000 
     73 DU         30.2800   28.9600   16.3400 H         7 CUB7        0.0000 
     74 DU         31.5600   28.7700   15.5800 H         7 CUB7        0.0000 
     75 DU         24.4800   30.1500   18.1300 H         7 CUB7        0.0000 
     76 DU         27.0300   29.7700   16.6000 H         7 CUB7        0.0000 
     77 DU         29.5900   29.3900   15.0800 H         7 CUB7        0.0000 
     78 DU         30.8700   29.2000   14.3100 H         7 CUB7        0.0000 
     79 DU         31.4600   29.4300   12.2900 H         7 CUB7        0.0000 
     80 DU         26.8200   30.9500   18.9000 H         7 CUB7        0.0000 
     81 DU         29.3800   30.5800   17.3800 H         7 CUB7        0.0000 
     82 DU         30.6600   30.3900   16.6100 H         7 CUB7        0.0000 
     83 DU         31.9300   30.2000   15.8500 H         7 CUB7        0.0000 
     84 DU         26.1300   31.3800   17.6400 H         7 CUB7        0.0000 
     85 DU         32.5200   30.4300   13.8300 H         7 CUB7        0.0000 
     86 DU         33.1100   30.6700   11.8000 H         7 CUB7        0.0000 
     87 DU         32.4200   31.1000   10.5400 H         7 CUB7        0.0000 
     88 DU         27.2000   32.3800   19.1800 H         7 CUB7        0.0000 
     89 DU         28.4800   32.1900   18.4200 H         7 CUB7        0.0000 
     90 DU         29.7500   32.0000   17.6500 H         7 CUB7        0.0000 
     91 DU         29.0600   32.4300   16.3900 H         7 CUB7        0.0000 
     92 DU         33.4900   32.1000   12.0800 H         7 CUB7        0.0000 
     93 DU         32.8000   32.5200   10.8200 H         7 CUB7        0.0000 
@<TRIPOS>BOND
@<TRIPOS>SUBSTRUCTURE
     1 SER1        1 GROUP   
     2 ALA2       15 GROUP   
     3 ASP3       31 GROUP   
     4 LYS4       38 GROUP   
     5 PHE5       43 GROUP   
     6 GLY6       52 GROUP   
     7 CUB7       71 GROUP   
@<TRIPOS>SET

