#    Name: 6j9q_3_ANP_CAVITY_N1_4
#    Modification time : Fri May 22 19:36:53 2020

@<TRIPOS>MOLECULE
6j9q_3_ANP_CAVITY_N1_4
   40     0     6     0     0
SMALL
NO_CHARGES


@<TRIPOS>ATOM
      1 OG         26.6600   28.3400   16.3200 O.3       1 SER1        0.0000 
      2 OG         27.7200   29.3400   17.8600 O.3       1 SER1        0.0000 
      3 OG         25.7600   29.9600   17.3600 O.3       1 SER1        0.0000 
      4 OG         25.8200   33.2300   16.6500 O.3       1 SER1        0.0000 
      5 O          27.7900   32.6200   17.1500 O.2       2 ALA2        0.0000 
      6 O          27.1000   33.0400   15.8900 O.2       2 ALA2        0.0000 
      7 O          27.5700   33.8100   19.4500 O.2       2 ALA2        0.0000 
      8 N          28.8500   33.6200   18.6900 N.am      2 ALA2        0.0000 
      9 O          28.1600   34.0400   17.4300 O.2       2 ALA2        0.0000 
     10 N          31.3100   33.9000   13.8800 N.am      2 ALA2        0.0000 
     11 OD1        29.2100   27.9600   14.8000 O.co2     3 ASP3        0.0000 
     12 CZ         27.8900   31.9500   20.4400 C.ar      4 PHE5        0.0000 
     13 CZ         29.1700   31.7600   19.6800 C.ar      4 PHE5        0.0000 
     14 CZ         29.5400   33.1900   19.9500 C.ar      4 PHE5        0.0000 
     15 CA         31.0300   31.8100   16.8900 C.3       5 GLY6        0.0000 
     16 CA         32.3100   31.6200   16.1300 C.3       5 GLY6        0.0000 
     17 CA         26.5100   32.8100   17.9200 C.3       5 GLY6        0.0000 
     18 CA         30.3400   32.2400   15.6300 C.3       5 GLY6        0.0000 
     19 CA         31.6200   32.0500   14.8700 C.3       5 GLY6        0.0000 
     20 CA         32.9000   31.8600   14.1000 C.3       5 GLY6        0.0000 
     21 CA         28.3700   32.8500   15.1300 C.3       5 GLY6        0.0000 
     22 CA         32.2100   32.2800   12.8400 C.3       5 GLY6        0.0000 
     23 CA         30.1300   33.4300   17.9300 C.3       5 GLY6        0.0000 
     24 CA         29.4400   33.8500   16.6700 C.3       5 GLY6        0.0000 
     25 CA         30.7200   33.6600   15.9000 C.3       5 GLY6        0.0000 
     26 CA         30.0300   34.0900   14.6400 C.3       5 GLY6        0.0000 
     27 DU         27.9300   28.1500   15.5600 H         6 CUB7        0.0000 
     28 DU         29.0000   29.1500   17.1000 H         6 CUB7        0.0000 
     29 DU         30.2800   28.9600   16.3400 H         6 CUB7        0.0000 
     30 DU         27.0300   29.7700   16.6000 H         6 CUB7        0.0000 
     31 DU         29.5900   29.3900   15.0800 H         6 CUB7        0.0000 
     32 DU         30.8700   29.2000   14.3100 H         6 CUB7        0.0000 
     33 DU         26.8200   30.9500   18.9000 H         6 CUB7        0.0000 
     34 DU         29.3800   30.5800   17.3800 H         6 CUB7        0.0000 
     35 DU         30.6600   30.3900   16.6100 H         6 CUB7        0.0000 
     36 DU         26.1300   31.3800   17.6400 H         6 CUB7        0.0000 
     37 DU         27.2000   32.3800   19.1800 H         6 CUB7        0.0000 
     38 DU         28.4800   32.1900   18.4200 H         6 CUB7        0.0000 
     39 DU         29.7500   32.0000   17.6500 H         6 CUB7        0.0000 
     40 DU         29.0600   32.4300   16.3900 H         6 CUB7        0.0000 
@<TRIPOS>BOND
@<TRIPOS>SUBSTRUCTURE
     1 SER1        1 GROUP   
     2 ALA2        5 GROUP   
     3 ASP3       11 GROUP   
     4 PHE5       12 GROUP   
     5 GLY6       15 GROUP   
     6 CUB7       27 GROUP   
@<TRIPOS>SET

