#    Name: 6j9q_1_ANP
#    Modification time : Fri May 22 19:36:39 2020

@<TRIPOS>MOLECULE
6j9q_1_ANP
   31    33     1     0     1
SMALL
NO_CHARGES


@<TRIPOS>ATOM
      1 PG         -2.7040   -4.7600   61.6690 P.3       1 ANP602      0.0000 
      2 O1G        -2.3180   -3.3680   61.2150 O.co2     1 ANP602      0.0000 
      3 O2G        -1.4900   -5.6390   61.9110 O.co2     1 ANP602      0.0000 
      4 O3G        -3.7650   -5.4110   60.8050 O.co2     1 ANP602      0.0000 
      5 PB         -4.6240   -5.4690   64.0020 P.3       1 ANP602      0.0000 
      6 O1B        -5.8900   -4.7010   64.3190 O.co2     1 ANP602      0.0000 
      7 O2B        -4.7490   -6.7310   63.1860 O.co2     1 ANP602      0.0000 
      8 N3B        -3.4460   -4.4190   63.2290 N.3       1 ANP602      0.0000 
      9 PA         -2.8950   -7.0240   65.6070 P.3       1 ANP602      0.0000 
     10 O1A        -2.4660   -6.9460   67.0610 O.co2     1 ANP602      0.0000 
     11 O2A        -1.9030   -6.9580   64.4750 O.co2     1 ANP602      0.0000 
     12 O3A        -4.0240   -5.8860   65.4350 O.3       1 ANP602      0.0000 
     13 O5'        -3.7330   -8.3840   65.3490 O.3       1 ANP602      0.0000 
     14 C5'        -3.1550   -9.6710   65.5500 C.3       1 ANP602      0.0000 
     15 C4'        -4.1210  -10.7940   65.2040 C.3       1 ANP602      0.0000 
     16 O4'        -3.5310  -12.0240   65.6280 O.3       1 ANP602      0.0000 
     17 C3'        -5.4860  -10.6970   65.8750 C.3       1 ANP602      0.0000 
     18 O3'        -6.5000  -10.4610   64.8860 O.3       1 ANP602      0.0000 
     19 C2'        -5.6790  -12.0100   66.6320 C.3       1 ANP602      0.0000 
     20 O2'        -6.6730  -12.8430   66.0190 O.3       1 ANP602      0.0000 
     21 C1'        -4.3230  -12.7070   66.6020 C.3       1 ANP602      0.0000 
     22 N9         -3.5560  -12.6670   67.8780 N.pl3     1 ANP602      0.0000 
     23 C8         -3.4000  -11.6090   68.7130 C.2       1 ANP602      0.0000 
     24 N7         -2.6100  -11.9370   69.7760 N.2       1 ANP602      0.0000 
     25 C5         -2.2410  -13.2230   69.6200 C.ar      1 ANP602      0.0000 
     26 C6         -1.4110  -14.1990   70.3660 C.ar      1 ANP602      0.0000 
     27 N6         -0.8080  -13.8490   71.5250 N.pl3     1 ANP602      0.0000 
     28 N1         -1.2760  -15.4480   69.8520 N.ar      1 ANP602      0.0000 
     29 C2         -1.8750  -15.8230   68.6980 C.ar      1 ANP602      0.0000 
     30 N3         -2.6410  -14.9840   67.9670 N.ar      1 ANP602      0.0000 
     31 C4         -2.8580  -13.6990   68.3650 C.ar      1 ANP602      0.0000 
@<TRIPOS>BOND
     1    1    2 ar   
     2    1    3 ar   
     3    1    4 ar   
     4    1    8 1    
     5    5    6 ar   
     6    5    7 ar   
     7    5    8 1    
     8    5   12 1    
     9    9   10 ar   
    10    9   11 ar   
    11    9   12 1    
    12    9   13 1    
    13   13   14 1    
    14   14   15 1    
    15   15   16 1    
    16   15   17 1    
    17   16   21 1    
    18   17   18 1    
    19   17   19 1    
    20   19   20 1    
    21   19   21 1    
    22   21   22 1    
    23   22   23 1    
    24   22   31 1    
    25   23   24 2    
    26   24   25 1    
    27   25   26 ar   
    28   25   31 ar   
    29   26   27 1    
    30   26   28 ar   
    31   28   29 ar   
    32   29   30 ar   
    33   30   31 ar   
@<TRIPOS>SUBSTRUCTURE
     1 ANP602      1 GROUP   
@<TRIPOS>SET
ATOM$ORANGE STATIC     ATOMS   COLORGROUP SYSTEM 
20 14 14 15 15 17 17 19 19 21 21 23 23 25 25 26 26 29 \
29 31 31 

