#    Name: 6j9q_3_ANP
#    Modification time : Fri May 22 19:36:53 2020

@<TRIPOS>MOLECULE
6j9q_3_ANP
   31    33     1     0     1
SMALL
NO_CHARGES


@<TRIPOS>ATOM
      1 PG         28.1650   32.9560   15.4640 P.3       1 ANP602      0.0000 
      2 O1G        27.5400   33.4070   16.7720 O.co2     1 ANP602      0.0000 
      3 O2G        27.9930   31.4770   15.2040 O.co2     1 ANP602      0.0000 
      4 O3G        29.6010   33.4190   15.2920 O.co2     1 ANP602      0.0000 
      5 PB         26.4770   33.0470   12.8330 P.3       1 ANP602      0.0000 
      6 O1B        26.9210   31.6080   12.7050 O.co2     1 ANP602      0.0000 
      7 O2B        24.9920   33.3430   12.8620 O.co2     1 ANP602      0.0000 
      8 N3B        27.2500   33.8070   14.2210 N.3       1 ANP602      0.0000 
      9 PA         28.2640   34.8160   11.5030 P.3       1 ANP602      0.0000 
     10 O1A        28.7100   34.9330   10.0560 O.co2     1 ANP602      0.0000 
     11 O2A        29.2510   34.4170   12.5680 O.co2     1 ANP602      0.0000 
     12 O3A        27.0260   33.7740   11.5010 O.3       1 ANP602      0.0000 
     13 O5'        27.5710   36.2010   11.9980 O.3       1 ANP602      0.0000 
     14 C5'        28.2940   37.4250   11.9270 C.3       1 ANP602      0.0000 
     15 C4'        27.4390   38.6820   11.8060 C.3       1 ANP602      0.0000 
     16 O4'        28.2170   39.6700   11.1270 O.3       1 ANP602      0.0000 
     17 C3'        26.1440   38.5880   11.0120 C.3       1 ANP602      0.0000 
     18 O3'        25.0380   38.3530   11.9020 O.3       1 ANP602      0.0000 
     19 C2'        26.0500   39.9240   10.2640 C.3       1 ANP602      0.0000 
     20 O2'        24.9860   40.7340   10.7740 O.3       1 ANP602      0.0000 
     21 C1'        27.3710   40.6500   10.5150 C.3       1 ANP602      0.0000 
     22 N9         28.1200   41.2280    9.3560 N.pl3     1 ANP602      0.0000 
     23 C8         28.5630   42.5090    9.2860 C.2       1 ANP602      0.0000 
     24 N7         29.2510   42.7420    8.1380 N.2       1 ANP602      0.0000 
     25 C5         29.2600   41.5850    7.4510 C.ar      1 ANP602      0.0000 
     26 C6         29.8090   41.1200    6.1530 C.ar      1 ANP602      0.0000 
     27 N6         30.4920   41.9820    5.3570 N.pl3     1 ANP602      0.0000 
     28 N1         29.6020   39.8170    5.8010 N.ar      1 ANP602      0.0000 
     29 C2         28.9240   38.9480    6.5860 C.ar      1 ANP602      0.0000 
     30 N3         28.3950   39.3080    7.7780 N.ar      1 ANP602      0.0000 
     31 C4         28.5250   40.5820    8.2570 C.ar      1 ANP602      0.0000 
@<TRIPOS>BOND
     1    1    2 ar   
     2    1    3 ar   
     3    1    4 ar   
     4    1    8 1    
     5    5    6 ar   
     6    5    7 ar   
     7    5    8 1    
     8    5   12 1    
     9    9   10 ar   
    10    9   11 ar   
    11    9   12 1    
    12    9   13 1    
    13   13   14 1    
    14   14   15 1    
    15   15   16 1    
    16   15   17 1    
    17   16   21 1    
    18   17   18 1    
    19   17   19 1    
    20   19   20 1    
    21   19   21 1    
    22   21   22 1    
    23   22   23 1    
    24   22   31 1    
    25   23   24 2    
    26   24   25 1    
    27   25   26 ar   
    28   25   31 ar   
    29   26   27 1    
    30   26   28 ar   
    31   28   29 ar   
    32   29   30 ar   
    33   30   31 ar   
@<TRIPOS>SUBSTRUCTURE
     1 ANP602      1 GROUP   
@<TRIPOS>SET
ATOM$ORANGE STATIC     ATOMS   COLORGROUP SYSTEM 
20 14 14 15 15 17 17 19 19 21 21 23 23 25 25 26 26 29 \
29 31 31 

