#    Name: 6j9q_1_ANP_CAVITY_N1_8
#    Modification time : Fri May 22 19:36:40 2020

@<TRIPOS>MOLECULE
6j9q_1_ANP_CAVITY_N1_8
  126     0     7     0     0
SMALL
NO_CHARGES


@<TRIPOS>ATOM
      1 OG          2.8300   -4.0500   61.1800 O.3       1 SER1        0.0000 
      2 OG         -5.0400   -1.5900   59.1800 O.3       1 SER1        0.0000 
      3 OG         -3.7700   -1.7800   58.4200 O.3       1 SER1        0.0000 
      4 OG          2.6100   -2.8600   63.4800 O.3       1 SER1        0.0000 
      5 OG          1.9200   -2.4400   62.2200 O.3       1 SER1        0.0000 
      6 OG          1.2400   -2.0100   60.9600 O.3       1 SER1        0.0000 
      7 OG          2.5100   -2.2000   60.1900 O.3       1 SER1        0.0000 
      8 OG         -3.9800   -0.5900   60.7200 O.3       1 SER1        0.0000 
      9 OG         -2.7000   -0.7800   59.9600 O.3       1 SER1        0.0000 
     10 OG         -3.3900   -0.3500   58.7000 O.3       1 SER1        0.0000 
     11 OG          2.3000   -1.0100   62.4900 O.3       1 SER1        0.0000 
     12 OG         -3.0100    1.0800   58.9700 O.3       1 SER1        0.0000 
     13 O          -4.2100   -6.4800   58.8500 O.2       2 ALA2        0.0000 
     14 N          -2.9300   -6.6700   58.0900 N.am      2 ALA2        0.0000 
     15 O          -4.9000   -6.0500   57.5900 O.2       2 ALA2        0.0000 
     16 O          -3.6200   -6.2400   56.8300 O.2       2 ALA2        0.0000 
     17 O          -5.5800   -5.6200   56.3300 O.2       2 ALA2        0.0000 
     18 O          -4.4200   -5.2900   61.1500 O.2       2 ALA2        0.0000 
     19 O          -3.1400   -5.4800   60.3900 O.2       2 ALA2        0.0000 
     20 O          -3.8300   -5.0500   59.1300 O.2       2 ALA2        0.0000 
     21 N           0.5800   -5.5200   63.6900 N.am      2 ALA2        0.0000 
     22 O          -0.9000   -4.0100   57.8800 O.2       2 ALA2        0.0000 
     23 N           2.3400   -4.9500   66.4900 N.am      2 ALA2        0.0000 
     24 N           3.6200   -5.1400   65.7300 N.am      2 ALA2        0.0000 
     25 N           0.3700   -4.3400   65.9900 N.am      2 ALA2        0.0000 
     26 N           1.6500   -4.5300   65.2300 N.am      2 ALA2        0.0000 
     27 N          -0.3200   -3.9100   64.7300 N.am      2 ALA2        0.0000 
     28 N           0.9600   -4.1000   63.9700 N.am      2 ALA2        0.0000 
     29 O           0.1700   -3.0100   59.4200 O.2       2 ALA2        0.0000 
     30 O           1.4500   -3.2000   58.6600 O.2       2 ALA2        0.0000 
     31 O          -1.8000   -2.3900   58.9200 O.2       2 ALA2        0.0000 
     32 O          -2.4900   -1.9700   57.6600 O.2       2 ALA2        0.0000 
     33 N           3.4100   -3.9500   68.0300 N.am      2 ALA2        0.0000 
     34 N           3.3000   -3.2900   64.7400 N.am      2 ALA2        0.0000 
     35 O           0.5500   -1.5800   59.6900 O.2       2 ALA2        0.0000 
     36 O           1.8200   -1.7700   58.9300 O.2       2 ALA2        0.0000 
     37 O          -2.3200    0.6500   60.2300 O.2       2 ALA2        0.0000 
     38 OD1        -0.6300   -2.0600   63.7400 O.co2     3 ASP3        0.0000 
     39 OD1        -0.1500   -1.3000   67.3100 O.co2     3 ASP3        0.0000 
     40 OD1         1.1300   -1.4900   66.5400 O.co2     3 ASP3        0.0000 
     41 OD1        -0.8400   -0.8700   66.0400 O.co2     3 ASP3        0.0000 
     42 OD1         0.4400   -1.0600   65.2800 O.co2     3 ASP3        0.0000 
     43 OD1         1.7100   -1.2500   64.5200 O.co2     3 ASP3        0.0000 
     44 OD1        -0.2500   -0.6300   64.0200 O.co2     3 ASP3        0.0000 
     45 OD1         1.0200   -0.8200   63.2600 O.co2     3 ASP3        0.0000 
     46 OD1        -0.9400   -0.2100   62.7600 O.co2     3 ASP3        0.0000 
     47 OD1         0.3300   -0.4000   62.0000 O.co2     3 ASP3        0.0000 
     48 OD1         1.5000   -0.0600   66.8200 O.co2     3 ASP3        0.0000 
     49 NZ          3.5200   -4.4800   62.4400 N.4       4 LYS4        0.0000 
     50 NZ          2.1300   -3.7700   68.7900 N.4       4 LYS4        0.0000 
     51 NZ          1.4400   -3.3400   67.5300 N.4       4 LYS4        0.0000 
     52 NZ          2.7200   -3.5300   66.7700 N.4       4 LYS4        0.0000 
     53 NZ          4.5800   -3.4800   63.9800 N.4       4 LYS4        0.0000 
     54 NZ         -1.4200   -0.9700   59.2000 N.4       4 LYS4        0.0000 
     55 NZ         -0.1400   -1.1600   58.4300 N.4       4 LYS4        0.0000 
     56 NZ         -2.1100   -0.5400   57.9300 N.4       4 LYS4        0.0000 
     57 NZ          2.4000   -1.6800   65.7800 N.4       4 LYS4        0.0000 
     58 NZ         -0.3600    0.0300   60.7300 N.4       4 LYS4        0.0000 
     59 NZ         -1.0400    0.4600   59.4700 N.4       4 LYS4        0.0000 
     60 NZ          2.7800   -0.2500   66.0600 N.4       4 LYS4        0.0000 
     61 NZ          0.7100    1.0300   62.2700 N.4       4 LYS4        0.0000 
     62 NZ          0.0200    1.4600   61.0100 N.4       4 LYS4        0.0000 
     63 CZ         -1.2700   -5.4300   57.6000 C.ar      5 PHE5        0.0000 
     64 CZ         -3.2400   -4.8200   57.1000 C.ar      5 PHE5        0.0000 
     65 CZ         -5.2100   -4.2000   56.6000 C.ar      5 PHE5        0.0000 
     66 CZ         -2.8600   -3.3900   57.3800 C.ar      5 PHE5        0.0000 
     67 CZ         -1.5900   -3.5800   56.6200 C.ar      5 PHE5        0.0000 
     68 CZ         -6.1100   -2.5800   57.6400 C.ar      5 PHE5        0.0000 
     69 CZ         -4.8300   -2.7700   56.8800 C.ar      5 PHE5        0.0000 
     70 CZ         -3.5500   -2.9600   56.1200 C.ar      5 PHE5        0.0000 
     71 CZ          1.7500   -5.1900   68.5100 C.ar      5 PHE5        0.0000 
     72 CZ          3.0300   -5.3800   67.7500 C.ar      5 PHE5        0.0000 
     73 CZ         -4.4500   -1.3500   57.1600 C.ar      5 PHE5        0.0000 
     74 CZ         -3.1800   -1.5400   56.3900 C.ar      5 PHE5        0.0000 
     75 CA         -2.2400   -7.1000   59.3500 C.3       6 GLY6        0.0000 
     76 CA         -6.1700   -5.8600   58.3500 C.3       6 GLY6        0.0000 
     77 CA         -6.8600   -5.4300   57.0900 C.3       6 GLY6        0.0000 
     78 CA         -1.7600   -6.3300   62.9100 C.3       6 GLY6        0.0000 
     79 CA         -2.4500   -5.9100   61.6500 C.3       6 GLY6        0.0000 
     80 CA         -1.1700   -6.1000   60.8900 C.3       6 GLY6        0.0000 
     81 CA         -1.8600   -5.6700   59.6300 C.3       6 GLY6        0.0000 
     82 CA         -0.5800   -5.8600   58.8700 C.3       6 GLY6        0.0000 
     83 CA         -5.8000   -4.4400   58.6300 C.3       6 GLY6        0.0000 
     84 CA          1.8600   -5.7100   62.9300 C.3       6 GLY6        0.0000 
     85 CA         -0.1100   -5.1000   62.4300 C.3       6 GLY6        0.0000 
     86 CA         -0.8000   -4.6700   61.1700 C.3       6 GLY6        0.0000 
     87 CA         -0.2100   -4.4300   59.1400 C.3       6 GLY6        0.0000 
     88 CA          2.9300   -4.7200   64.4700 C.3       6 GLY6        0.0000 
     89 CA          2.2400   -4.2900   63.2000 C.3       6 GLY6        0.0000 
     90 CA          1.5500   -3.8600   61.9400 C.3       6 GLY6        0.0000 
     91 CA          0.8600   -3.4400   60.6800 C.3       6 GLY6        0.0000 
     92 CA          2.1400   -3.6300   59.9200 C.3       6 GLY6        0.0000 
     93 CA          3.6800   -1.8700   65.0200 C.3       6 GLY6        0.0000 
     94 CA          2.9900   -1.4400   63.7600 C.3       6 GLY6        0.0000 
     95 CA          1.6100   -0.5800   61.2300 C.3       6 GLY6        0.0000 
     96 CA         -1.6300    0.2200   61.5000 C.3       6 GLY6        0.0000 
     97 CA          0.9200   -0.1600   59.9700 C.3       6 GLY6        0.0000 
     98 CA         -1.2600    1.6500   61.7700 C.3       6 GLY6        0.0000 
     99 DU         -2.5500   -5.2400   58.3700 H         7 CUB7        0.0000 
    100 DU         -4.5200   -4.6300   57.8700 H         7 CUB7        0.0000 
    101 DU         -7.7600   -3.8200   58.1300 H         7 CUB7        0.0000 
    102 DU         -1.3800   -4.9100   63.1900 H         7 CUB7        0.0000 
    103 DU         -3.3500   -4.2900   62.6900 H         7 CUB7        0.0000 
    104 DU         -2.0700   -4.4800   61.9300 H         7 CUB7        0.0000 
    105 DU         -4.0400   -3.8600   61.4300 H         7 CUB7        0.0000 
    106 DU         -2.7600   -4.0500   60.6700 H         7 CUB7        0.0000 
    107 DU         -1.4900   -4.2400   59.9000 H         7 CUB7        0.0000 
    108 DU         -4.7300   -3.4400   60.1700 H         7 CUB7        0.0000 
    109 DU         -2.1700   -3.8200   58.6400 H         7 CUB7        0.0000 
    110 DU         -5.4200   -3.0100   58.9100 H         7 CUB7        0.0000 
    111 DU         -4.1400   -3.2000   58.1400 H         7 CUB7        0.0000 
    112 DU         -1.0100   -3.4800   63.4700 H         7 CUB7        0.0000 
    113 DU          0.2700   -3.6700   62.7000 H         7 CUB7        0.0000 
    114 DU         -0.4200   -3.2500   61.4400 H         7 CUB7        0.0000 
    115 DU         -1.1100   -2.8200   60.1800 H         7 CUB7        0.0000 
    116 DU         -5.6300   -1.8200   61.2100 H         7 CUB7        0.0000 
    117 DU         -4.3500   -2.0100   60.4400 H         7 CUB7        0.0000 
    118 DU         -3.0800   -2.2000   59.6800 H         7 CUB7        0.0000 
    119 DU          0.7500   -2.9100   66.2700 H         7 CUB7        0.0000 
    120 DU          2.0300   -3.1000   65.5000 H         7 CUB7        0.0000 
    121 DU          0.0600   -2.4800   65.0100 H         7 CUB7        0.0000 
    122 DU          1.3400   -2.6700   64.2400 H         7 CUB7        0.0000 
    123 DU          0.6500   -2.2500   62.9800 H         7 CUB7        0.0000 
    124 DU         -1.3200   -1.6300   62.4800 H         7 CUB7        0.0000 
    125 DU         -0.0400   -1.8200   61.7200 H         7 CUB7        0.0000 
    126 DU         -0.7300   -1.3900   60.4600 H         7 CUB7        0.0000 
@<TRIPOS>BOND
@<TRIPOS>SUBSTRUCTURE
     1 SER1        1 GROUP   
     2 ALA2       13 GROUP   
     3 ASP3       38 GROUP   
     4 LYS4       49 GROUP   
     5 PHE5       63 GROUP   
     6 GLY6       75 GROUP   
     7 CUB7       99 GROUP   
@<TRIPOS>SET

