#    Name: 5ynn_1_SFG_CAVITY_N1_12
#    Modification time : Fri May 22 19:14:22 2020

@<TRIPOS>MOLECULE
5ynn_1_SFG_CAVITY_N1_12
  100     0     5     0     0
SMALL
NO_CHARGES


@<TRIPOS>ATOM
      1 N          65.9200   83.2900  146.8600 N.am      1 ALA2        0.0000 
      2 N          64.5400   83.5200  147.4200 N.am      1 ALA2        0.0000 
      3 N          60.9800   85.3100  145.9500 N.am      1 ALA2        0.0000 
      4 O          69.5100   83.5000  147.5900 O.2       1 ALA2        0.0000 
      5 O          69.1100   84.1600  146.3100 O.2       1 ALA2        0.0000 
      6 O          68.5400   83.0700  149.4300 O.2       1 ALA2        0.0000 
      7 N          68.1400   83.7300  148.1400 N.am      1 ALA2        0.0000 
      8 N          66.3600   84.6200  147.4100 N.am      1 ALA2        0.0000 
      9 N          65.1500   86.6100  143.5600 N.am      1 ALA2        0.0000 
     10 N          64.9800   84.8500  147.9600 N.am      1 ALA2        0.0000 
     11 N          64.1700   86.1700  145.3900 N.am      1 ALA2        0.0000 
     12 N          63.7700   86.8400  144.1100 N.am      1 ALA2        0.0000 
     13 N          62.8000   86.4000  145.9400 N.am      1 ALA2        0.0000 
     14 N          61.4200   86.6300  146.4900 N.am      1 ALA2        0.0000 
     15 N          61.0200   87.3000  145.2100 N.am      1 ALA2        0.0000 
     16 O          69.5500   85.4900  146.8600 O.2       1 ALA2        0.0000 
     17 O          69.7900   83.0700  152.5400 O.2       1 ALA2        0.0000 
     18 O          69.3800   83.7300  151.2600 O.2       1 ALA2        0.0000 
     19 O          68.9800   84.3900  149.9700 O.2       1 ALA2        0.0000 
     20 N          68.0100   83.9600  151.8100 N.am      1 ALA2        0.0000 
     21 N          67.6000   84.6200  150.5200 N.am      1 ALA2        0.0000 
     22 N          66.3900   86.6100  146.6700 N.am      1 ALA2        0.0000 
     23 N          65.4200   86.1800  148.5100 N.am      1 ALA2        0.0000 
     24 N          65.0200   86.8400  147.2200 N.am      1 ALA2        0.0000 
     25 N          64.6100   87.5000  145.9400 N.am      1 ALA2        0.0000 
     26 N          64.0400   86.4100  149.0600 N.am      1 ALA2        0.0000 
     27 O          63.6400   87.0700  147.7700 O.2       1 ALA2        0.0000 
     28 N          63.2400   87.7300  146.4900 N.am      1 ALA2        0.0000 
     29 N          61.8600   87.9600  147.0400 N.am      1 ALA2        0.0000 
     30 N          60.0800   88.8500  146.3100 N.am      1 ALA2        0.0000 
     31 O          59.5100   87.7600  149.4300 O.2       1 ALA2        0.0000 
     32 N          60.5200   90.1800  146.8500 N.am      1 ALA2        0.0000 
     33 O          56.8000   90.2100  149.7900 O.2       1 ALA2        0.0000 
     34 O          56.0300   93.5200  146.4800 O.2       1 ALA2        0.0000 
     35 NZ         63.1600   83.7500  147.9700 N.4       2 LYS4        0.0000 
     36 NZ         62.7600   84.4200  146.6800 N.4       2 LYS4        0.0000 
     37 NZ         61.3900   84.6500  147.2300 N.4       2 LYS4        0.0000 
     38 NZ         63.6000   85.0800  148.5100 N.4       2 LYS4        0.0000 
     39 NZ         63.2000   85.7400  147.2300 N.4       2 LYS4        0.0000 
     40 NZ         61.8300   85.9700  147.7800 N.4       2 LYS4        0.0000 
     41 NZ         60.4500   86.2000  148.3300 N.4       2 LYS4        0.0000 
     42 NZ         57.4600   89.0800  143.7400 N.4       2 LYS4        0.0000 
     43 NZ         56.0800   89.3100  144.2900 N.4       2 LYS4        0.0000 
     44 NZ         54.7100   89.5400  144.8400 N.4       2 LYS4        0.0000 
     45 NZ         68.5800   85.0500  148.6900 N.4       2 LYS4        0.0000 
     46 NZ         68.1700   85.7200  147.4100 N.4       2 LYS4        0.0000 
     47 NZ         67.2000   85.2800  149.2400 N.4       2 LYS4        0.0000 
     48 NZ         66.8000   85.9500  147.9600 N.4       2 LYS4        0.0000 
     49 NZ         56.5200   90.6400  144.8400 N.4       2 LYS4        0.0000 
     50 NZ         55.9500   89.5400  147.9600 N.4       2 LYS4        0.0000 
     51 NZ         55.5500   90.2000  146.6700 N.4       2 LYS4        0.0000 
     52 NZ         55.1500   90.8700  145.3900 N.4       2 LYS4        0.0000 
     53 NZ         56.9600   91.9600  145.3900 N.4       2 LYS4        0.0000 
     54 NZ         56.3900   90.8700  148.5000 N.4       2 LYS4        0.0000 
     55 NZ         55.9900   91.5300  147.2200 N.4       2 LYS4        0.0000 
     56 NZ         55.5900   92.1900  145.9400 N.4       2 LYS4        0.0000 
     57 NZ         55.1900   92.8600  144.6500 N.4       2 LYS4        0.0000 
     58 NZ         55.0500   93.0900  148.3200 N.4       2 LYS4        0.0000 
     59 CZ         66.9600   87.7000  143.5500 C.ar      3 PHE5        0.0000 
     60 CZ         59.1500   90.4100  147.4000 C.ar      3 PHE5        0.0000 
     61 CZ         58.7400   91.0700  146.1200 C.ar      3 PHE5        0.0000 
     62 CZ         57.7700   90.6400  147.9500 C.ar      3 PHE5        0.0000 
     63 CZ         57.3700   91.3000  146.6700 C.ar      3 PHE5        0.0000 
     64 CA         59.6100   85.5400  146.5000 C.3       4 GLY6        0.0000 
     65 CA         68.9400   82.4000  150.7100 C.3       4 GLY6        0.0000 
     66 CA         60.0500   86.8600  147.0500 C.3       4 GLY6        0.0000 
     67 CA         59.6400   87.5300  145.7600 C.3       4 GLY6        0.0000 
     68 CA         59.2400   88.1900  144.4800 C.3       4 GLY6        0.0000 
     69 CA         55.1100   88.8800  146.1300 C.3       4 GLY6        0.0000 
     70 CA         65.9900   87.2700  145.3900 C.3       4 GLY6        0.0000 
     71 CA         65.5900   87.9300  144.1000 C.3       4 GLY6        0.0000 
     72 CA         62.2700   87.3000  148.3200 C.3       4 GLY6        0.0000 
     73 CA         60.8900   87.5300  148.8800 C.3       4 GLY6        0.0000 
     74 CA         60.4900   88.1900  147.5900 C.3       4 GLY6        0.0000 
     75 CA         59.6800   89.5200  145.0200 C.3       4 GLY6        0.0000 
     76 CA         59.1100   88.4200  148.1400 C.3       4 GLY6        0.0000 
     77 CA         58.7100   89.0800  146.8600 C.3       4 GLY6        0.0000 
     78 CA         58.3000   89.7400  145.5700 C.3       4 GLY6        0.0000 
     79 CA         58.1400   87.9900  149.9800 C.3       4 GLY6        0.0000 
     80 CA         57.7300   88.6500  148.6900 C.3       4 GLY6        0.0000 
     81 CA         57.3300   89.3100  147.4100 C.3       4 GLY6        0.0000 
     82 CA         56.9300   89.9700  146.1200 C.3       4 GLY6        0.0000 
     83 CA         56.3600   88.8800  149.2400 C.3       4 GLY6        0.0000 
     84 CA         67.4000   89.0300  144.1000 C.3       4 GLY6        0.0000 
     85 CA         66.4300   88.6000  145.9300 C.3       4 GLY6        0.0000 
     86 CA         60.9300   89.5200  148.1400 C.3       4 GLY6        0.0000 
     87 CA         59.5500   89.7500  148.6900 C.3       4 GLY6        0.0000 
     88 CA         58.1700   89.9800  149.2400 C.3       4 GLY6        0.0000 
     89 CA         56.8300   92.1900  149.0500 C.3       4 GLY6        0.0000 
     90 CA         56.4300   92.8600  147.7700 C.3       4 GLY6        0.0000 
     91 DU         65.5100   83.9600  145.5800 H         5 CUB7        0.0000 
     92 DU         64.1400   84.1900  146.1300 H         5 CUB7        0.0000 
     93 DU         63.7400   84.8500  144.8500 H         5 CUB7        0.0000 
     94 DU         62.3600   85.0800  145.4000 H         5 CUB7        0.0000 
     95 DU         67.7300   84.3900  146.8600 H         5 CUB7        0.0000 
     96 DU         65.9500   85.2800  146.1300 H         5 CUB7        0.0000 
     97 DU         65.5500   85.9400  144.8400 H         5 CUB7        0.0000 
     98 DU         64.5800   85.5100  146.6800 H         5 CUB7        0.0000 
     99 DU         67.7700   86.3800  146.1200 H         5 CUB7        0.0000 
    100 DU         67.3700   87.0400  144.8400 H         5 CUB7        0.0000 
@<TRIPOS>BOND
@<TRIPOS>SUBSTRUCTURE
     1 ALA2        1 GROUP   
     2 LYS4       35 GROUP   
     3 PHE5       59 GROUP   
     4 GLY6       64 GROUP   
     5 CUB7       91 GROUP   
@<TRIPOS>SET

