#    Name: 5ynn_2_GTG_CAVITY_N1_8
#    Modification time : Fri May 22 19:14:26 2020

@<TRIPOS>MOLECULE
5ynn_2_GTG_CAVITY_N1_8
   74     0     7     0     0
SMALL
NO_CHARGES


@<TRIPOS>ATOM
      1 OG         73.0800   89.8700  137.5000 O.3       1 SER1        0.0000 
      2 OG         72.9500   90.1000  141.1600 O.3       1 SER1        0.0000 
      3 OG         72.5400   90.7600  139.8800 O.3       1 SER1        0.0000 
      4 OG         70.9300   93.4100  134.7400 O.3       1 SER1        0.0000 
      5 OG         71.9700   89.6700  142.9900 O.3       1 SER1        0.0000 
      6 OG         71.5700   90.3300  141.7100 O.3       1 SER1        0.0000 
      7 OG         74.3600   91.8600  139.8700 O.3       1 SER1        0.0000 
      8 OG         72.7500   94.5100  134.7400 O.3       1 SER1        0.0000 
      9 OG         72.9800   92.0900  140.4200 O.3       1 SER1        0.0000 
     10 OG         72.5800   92.7500  139.1400 O.3       1 SER1        0.0000 
     11 OG         72.1800   93.4100  137.8500 O.3       1 SER1        0.0000 
     12 OG         71.7700   94.0700  136.5700 O.3       1 SER1        0.0000 
     13 OG         71.3700   94.7400  135.2900 O.3       1 SER1        0.0000 
     14 OG         72.4100   90.9900  143.5400 O.3       1 SER1        0.0000 
     15 OG         72.0100   91.6500  142.2600 O.3       1 SER1        0.0000 
     16 OG         71.6100   92.3200  140.9700 O.3       1 SER1        0.0000 
     17 OG         69.8300   93.2100  140.2400 O.3       1 SER1        0.0000 
     18 OG         69.4200   93.8700  138.9600 O.3       1 SER1        0.0000 
     19 OG         72.6200   94.7400  138.4000 O.3       1 SER1        0.0000 
     20 OG         71.2400   94.9700  138.9500 O.3       1 SER1        0.0000 
     21 OG         69.8600   95.2000  139.5000 O.3       1 SER1        0.0000 
     22 O          72.3800   89.0000  144.2800 O.2       2 ALA2        0.0000 
     23 N          74.5600   95.6000  134.7300 N.am      2 ALA2        0.0000 
     24 N          75.4100   96.2700  136.5600 N.am      2 ALA2        0.0000 
     25 OD1        72.1000   89.4400  139.3300 O.co2     3 ASP3        0.0000 
     26 OD1        72.3400   87.0200  145.0200 O.co2     3 ASP3        0.0000 
     27 OD1        70.7300   89.6600  139.8800 O.co2     3 ASP3        0.0000 
     28 OD1        70.5600   87.9100  144.2800 O.co2     3 ASP3        0.0000 
     29 OD1        72.1400   91.4200  138.5900 O.co2     3 ASP3        0.0000 
     30 OD1        71.1700   90.9900  140.4300 O.co2     3 ASP3        0.0000 
     31 OD1        69.9600   92.9800  136.5700 O.co2     3 ASP3        0.0000 
     32 OD1        69.5500   93.6400  135.2900 O.co2     3 ASP3        0.0000 
     33 OD1        71.0000   89.2300  144.8300 O.co2     3 ASP3        0.0000 
     34 OD1        70.6000   89.9000  143.5500 O.co2     3 ASP3        0.0000 
     35 OD1        68.5800   93.2100  137.1200 O.co2     3 ASP3        0.0000 
     36 OD1        71.2000   92.9800  139.6900 O.co2     3 ASP3        0.0000 
     37 OD1        70.8000   93.6400  138.4000 O.co2     3 ASP3        0.0000 
     38 OD1        70.4000   94.3000  137.1200 O.co2     3 ASP3        0.0000 
     39 NZ         70.9700   95.4000  134.0000 N.4       4 LYS4        0.0000 
     40 NZ         73.1900   95.8300  135.2800 N.4       4 LYS4        0.0000 
     41 NZ         72.2100   95.4000  137.1200 N.4       4 LYS4        0.0000 
     42 NZ         71.4100   96.7300  134.5500 N.4       4 LYS4        0.0000 
     43 NZ         70.8400   95.6300  137.6700 N.4       4 LYS4        0.0000 
     44 NZ         74.0300   96.5000  137.1100 N.4       4 LYS4        0.0000 
     45 CZ         67.5300   88.8000  140.4400 C.ar      5 PHE5        0.0000 
     46 CZ         68.7800   88.8000  143.5500 C.ar      5 PHE5        0.0000 
     47 CZ         68.3800   89.4600  142.2700 C.ar      5 PHE5        0.0000 
     48 CZ         73.9200   90.5300  139.3300 C.ar      5 PHE5        0.0000 
     49 CZ         69.7900   91.2200  140.9800 C.ar      5 PHE5        0.0000 
     50 CZ         68.8200   90.7900  142.8100 C.ar      5 PHE5        0.0000 
     51 CZ         74.1200   94.2800  134.1800 C.ar      5 PHE5        0.0000 
     52 CZ         69.9900   94.9700  135.8400 C.ar      5 PHE5        0.0000 
     53 CZ         69.5900   95.6300  134.5500 C.ar      5 PHE5        0.0000 
     54 CZ         69.0200   94.5300  137.6700 C.ar      5 PHE5        0.0000 
     55 CZ         68.6200   95.2000  136.3900 C.ar      5 PHE5        0.0000 
     56 CZ         68.2100   95.8600  135.1000 C.ar      5 PHE5        0.0000 
     57 CZ         74.9700   94.9400  136.0100 C.ar      5 PHE5        0.0000 
     58 CZ         73.9900   94.5100  137.8500 C.ar      5 PHE5        0.0000 
     59 CZ         73.5900   95.1700  136.5700 C.ar      5 PHE5        0.0000 
     60 CZ         69.4600   95.8600  138.2200 C.ar      5 PHE5        0.0000 
     61 CA         69.1100   92.3100  134.7400 C.3       6 GLY6        0.0000 
     62 CA         69.3500   89.8900  140.4300 C.3       6 GLY6        0.0000 
     63 CA         69.1500   94.3000  134.0100 C.3       6 GLY6        0.0000 
     64 CA         70.1900   90.5600  142.2600 C.3       6 GLY6        0.0000 
     65 CA         68.1800   93.8700  135.8400 C.3       6 GLY6        0.0000 
     66 CA         71.0400   91.2200  144.0900 C.3       6 GLY6        0.0000 
     67 CA         70.6300   91.8800  142.8100 C.3       6 GLY6        0.0000 
     68 CA         70.2300   92.5500  141.5200 C.3       6 GLY6        0.0000 
     69 DU         72.5100   88.7700  140.6100 H         7 CUB7        0.0000 
     70 DU         71.9400   87.6800  143.7300 H         7 CUB7        0.0000 
     71 DU         71.5300   88.3400  142.4500 H         7 CUB7        0.0000 
     72 DU         71.1300   89.0000  141.1600 H         7 CUB7        0.0000 
     73 DU         70.1600   88.5700  143.0000 H         7 CUB7        0.0000 
     74 DU         69.7500   89.2300  141.7100 H         7 CUB7        0.0000 
@<TRIPOS>BOND
@<TRIPOS>SUBSTRUCTURE
     1 SER1        1 GROUP   
     2 ALA2       22 GROUP   
     3 ASP3       25 GROUP   
     4 LYS4       39 GROUP   
     5 PHE5       45 GROUP   
     6 GLY6       61 GROUP   
     7 CUB7       69 GROUP   
@<TRIPOS>SET

