#    Name: 5ynn_1_SFG
#    Modification time : Fri May 22 19:14:20 2020

@<TRIPOS>MOLECULE
5ynn_1_SFG
   27    29     1     0     0
SMALL
NO_CHARGES


@<TRIPOS>ATOM
      1 N          68.5300   83.2880  148.2500 N.4       1 SFG401      0.0000 
      2 CA         68.5480   84.2320  149.3900 C.3       1 SFG401      0.0000 
      3 C          69.2470   83.6000  150.6250 C.2       1 SFG401      0.0000 
      4 O          70.4650   83.7090  150.6990 O.co2     1 SFG401      0.0000 
      5 OXT        68.5700   83.1160  151.5330 O.co2     1 SFG401      0.0000 
      6 CB         67.1760   84.6380  149.7830 C.3       1 SFG401      0.0000 
      7 CG         66.6180   85.8170  149.0220 C.3       1 SFG401      0.0000 
      8 CD         66.0800   85.5350  147.6680 C.3       1 SFG401      0.0000 
      9 NE         67.1860   85.6150  146.7230 N.4       1 SFG401      0.0000 
     10 C5'        65.0790   86.6640  147.3790 C.3       1 SFG401      0.0000 
     11 C4'        63.7420   86.3090  148.0380 C.3       1 SFG401      0.0000 
     12 O4'        62.8590   87.4300  148.0610 O.3       1 SFG401      0.0000 
     13 C3'        63.0210   85.1720  147.1940 C.3       1 SFG401      0.0000 
     14 O3'        63.0770   83.9890  147.9830 O.3       1 SFG401      0.0000 
     15 C2'        61.6430   85.7970  147.1300 C.3       1 SFG401      0.0000 
     16 O2'        60.6060   84.8580  147.2540 O.3       1 SFG401      0.0000 
     17 C1'        61.6130   86.8520  148.2970 C.3       1 SFG401      0.0000 
     18 N9         60.5820   87.9200  148.0280 N.pl3     1 SFG401      0.0000 
     19 C8         60.4460   88.7070  146.9530 C.2       1 SFG401      0.0000 
     20 N7         59.3700   89.4950  147.1160 N.2       1 SFG401      0.0000 
     21 C5         58.8240   89.2240  148.2920 C.ar      1 SFG401      0.0000 
     22 C6         57.7250   89.7000  148.9450 C.ar      1 SFG401      0.0000 
     23 N6         56.9770   90.6920  148.3810 N.pl3     1 SFG401      0.0000 
     24 N1         57.4020   89.2140  150.1590 N.ar      1 SFG401      0.0000 
     25 C2         58.1950   88.2000  150.7480 C.ar      1 SFG401      0.0000 
     26 N3         59.3020   87.7080  150.0410 N.ar      1 SFG401      0.0000 
     27 C4         59.5760   88.2410  148.8450 C.ar      1 SFG401      0.0000 
@<TRIPOS>BOND
     1    1    2 1    
     2    2    3 1    
     3    2    6 1    
     4    3    4 ar   
     5    3    5 ar   
     6    6    7 1    
     7    7    8 1    
     8    8    9 1    
     9    8   10 1    
    10   10   11 1    
    11   11   12 1    
    12   11   13 1    
    13   12   17 1    
    14   13   14 1    
    15   13   15 1    
    16   15   16 1    
    17   15   17 1    
    18   17   18 1    
    19   18   19 1    
    20   18   27 1    
    21   19   20 2    
    22   20   21 1    
    23   21   22 ar   
    24   21   27 ar   
    25   22   23 1    
    26   22   24 ar   
    27   24   25 ar   
    28   25   26 ar   
    29   26   27 ar   
@<TRIPOS>SUBSTRUCTURE
     1 SFG401      1 GROUP   
@<TRIPOS>SET

