#    Name: 5ynn_2_GTG
#    Modification time : Fri May 22 19:14:25 2020

@<TRIPOS>MOLECULE
5ynn_2_GTG
   52    57     1     0     0
SMALL
NO_CHARGES


@<TRIPOS>ATOM
      1 PA         69.5460   94.4210  138.5210 P.3       1 GTG402      0.0000 
      2 O1A        69.1420   95.6010  139.2580 O.co2     1 GTG402      0.0000 
      3 O2A        69.0260   93.0490  138.7650 O.co2     1 GTG402      0.0000 
      4 O3A        70.9630   94.2800  139.2290 O.3       1 GTG402      0.0000 
      5 PB         72.1690   93.2180  138.9840 P.3       1 GTG402      0.0000 
      6 O1B        72.0670   92.2440  137.9180 O.co2     1 GTG402      0.0000 
      7 O2B        73.4370   93.5100  139.6900 O.co2     1 GTG402      0.0000 
      8 O3B        71.6280   92.2750  140.1080 O.3       1 GTG402      0.0000 
      9 N9A        73.0300   95.2090  134.6660 N.pl3     1 GTG402      0.0000 
     10 C8A        73.1040   95.5970  135.9270 C.2       1 GTG402      0.0000 
     11 N7A        74.3820   95.8170  136.1680 N.pl3     1 GTG402      0.0000 
     12 C7X        74.8040   96.2540  137.4830 C.3       1 GTG402      0.0000 
     13 C5A        75.1060   95.5700  135.0530 C.2       1 GTG402      0.0000 
     14 C6A        76.4140   95.6340  134.7590 C.2       1 GTG402      0.0000 
     15 O6A        77.2480   95.9730  135.5750 O.2       1 GTG402      0.0000 
     16 N1A        76.8590   95.3220  133.4850 N.am      1 GTG402      0.0000 
     17 C2A        75.9310   94.9030  132.5260 C.2       1 GTG402      0.0000 
     18 N2A        76.3800   94.5870  131.3150 N.pl3     1 GTG402      0.0000 
     19 N3A        74.6330   94.8460  132.8490 N.2       1 GTG402      0.0000 
     20 C4A        74.2460   95.1770  134.1070 C.2       1 GTG402      0.0000 
     21 O5D        70.1160   94.6490  137.1070 O.3       1 GTG402      0.0000 
     22 C5D        69.1040   94.6030  136.0670 C.3       1 GTG402      0.0000 
     23 C4D        69.7760   94.3550  134.7090 C.3       1 GTG402      0.0000 
     24 O4D        70.6350   95.4380  134.2770 O.3       1 GTG402      0.0000 
     25 C3D        70.6920   93.1510  134.8640 C.3       1 GTG402      0.0000 
     26 O3D        69.8930   91.9310  134.7420 O.3       1 GTG402      0.0000 
     27 C2D        71.6050   93.3340  133.6990 C.3       1 GTG402      0.0000 
     28 O2D        70.8850   93.1240  132.5000 O.3       1 GTG402      0.0000 
     29 C1D        71.8780   94.8380  133.8060 C.3       1 GTG402      0.0000 
     30 PG         72.0890   90.6530  140.2770 P.3       1 GTG402      0.0000 
     31 O1G        71.3470   89.6850  139.4570 O.co2     1 GTG402      0.0000 
     32 O2G        73.1890   90.3470  141.1790 O.co2     1 GTG402      0.0000 
     33 O5E        70.9160   90.4150  141.3460 O.3       1 GTG402      0.0000 
     34 C5E        71.0290   90.2530  142.7580 C.3       1 GTG402      0.0000 
     35 C4E        69.7930   89.4530  143.1740 C.3       1 GTG402      0.0000 
     36 O4E        69.0990   89.1430  141.9620 O.3       1 GTG402      0.0000 
     37 C3E        70.1700   88.0440  143.5260 C.3       1 GTG402      0.0000 
     38 O3E        70.8420   87.9620  144.8170 O.3       1 GTG402      0.0000 
     39 C2E        68.8040   87.3430  143.4570 C.3       1 GTG402      0.0000 
     40 O2E        67.9880   87.4130  144.6580 O.3       1 GTG402      0.0000 
     41 C1E        68.0920   88.2790  142.4960 C.3       1 GTG402      0.0000 
     42 N9B        67.2880   87.5030  141.5170 N.pl3     1 GTG402      0.0000 
     43 C8B        67.7090   87.1500  140.1450 C.2       1 GTG402      0.0000 
     44 N7B        66.6890   86.1530  139.7880 N.2       1 GTG402      0.0000 
     45 C5B        65.7240   86.1700  140.7230 C.2       1 GTG402      0.0000 
     46 C6B        64.5580   85.5150  140.7410 C.2       1 GTG402      0.0000 
     47 O6B        64.2350   84.7730  139.8050 O.2       1 GTG402      0.0000 
     48 N1B        63.6890   85.6850  141.8470 N.am      1 GTG402      0.0000 
     49 C2B        64.0820   86.5330  142.9220 C.2       1 GTG402      0.0000 
     50 N2B        63.3020   86.7280  143.9880 N.pl3     1 GTG402      0.0000 
     51 N3B        65.2780   87.1420  142.8480 N.2       1 GTG402      0.0000 
     52 C4B        66.0780   86.9740  141.7610 C.2       1 GTG402      0.0000 
@<TRIPOS>BOND
     1    1   21 1    
     2    1    2 ar   
     3    1    3 ar   
     4    1    4 1    
     5    4    5 1    
     6    5    6 ar   
     7    5    7 ar   
     8    5    8 1    
     9    8   30 1    
    10    9   20 1    
    11    9   29 1    
    12    9   10 1    
    13   10   11 2    
    14   11   12 1    
    15   11   13 1    
    16   13   14 1    
    17   13   20 2    
    18   14   15 2    
    19   14   16 am   
    20   16   17 1    
    21   17   18 1    
    22   17   19 2    
    23   19   20 1    
    24   21   22 1    
    25   22   23 1    
    26   23   24 1    
    27   23   25 1    
    28   24   29 1    
    29   25   26 1    
    30   25   27 1    
    31   27   28 1    
    32   27   29 1    
    33   30   31 ar   
    34   30   32 ar   
    35   30   33 1    
    36   33   34 1    
    37   34   35 1    
    38   35   36 1    
    39   35   37 1    
    40   36   41 1    
    41   37   38 1    
    42   37   39 1    
    43   39   40 1    
    44   39   41 1    
    45   41   42 1    
    46   42   43 1    
    47   42   52 1    
    48   43   44 2    
    49   44   45 1    
    50   45   46 1    
    51   45   52 2    
    52   46   47 2    
    53   46   48 am   
    54   48   49 1    
    55   49   50 1    
    56   49   51 2    
    57   51   52 1    
@<TRIPOS>SUBSTRUCTURE
     1 GTG402      1 GROUP   
@<TRIPOS>SET

