#    Name: 6qv2_2_AGS
#    Modification time : Fri May 22 19:36:49 2020

@<TRIPOS>MOLECULE
6qv2_2_AGS
   31    33     1     0     0
SMALL
NO_CHARGES


@<TRIPOS>ATOM
      1 PG         72.9590   64.6420   48.7480 P.3       1 AGS600      0.0000 
      2 S1G        72.3960   66.3650   48.1800 S.2       1 AGS600      0.0000 
      3 O2G        72.7590   63.5050   47.6860 O.3       1 AGS600      0.0000 
      4 O3G        72.2870   63.9350   49.9670 O.3       1 AGS600      0.0000 
      5 PB         75.3200   65.1080   50.3550 P.3       1 AGS600      0.0000 
      6 O1B        76.6540   65.6450   50.0100 O.co2     1 AGS600      0.0000 
      7 O2B        74.4210   66.0290   51.1730 O.co2     1 AGS600      0.0000 
      8 O3B        74.4980   64.6910   49.0570 O.3       1 AGS600      0.0000 
      9 PA         76.6530   62.8710   51.6750 P.3       1 AGS600      0.0000 
     10 O1A        77.6360   63.7480   52.3470 O.co2     1 AGS600      0.0000 
     11 O2A        76.0780   61.7880   52.5780 O.co2     1 AGS600      0.0000 
     12 O3A        75.4210   63.7240   51.1370 O.3       1 AGS600      0.0000 
     13 O5'        77.2440   62.1050   50.3870 O.3       1 AGS600      0.0000 
     14 C5'        78.5250   62.4020   49.7940 C.3       1 AGS600      0.0000 
     15 C4'        79.2890   61.1240   49.5510 C.3       1 AGS600      0.0000 
     16 O4'        79.2230   60.2670   50.7120 O.3       1 AGS600      0.0000 
     17 C3'        78.8470   60.2840   48.3450 C.3       1 AGS600      0.0000 
     18 O3'        79.9400   60.0610   47.4610 O.3       1 AGS600      0.0000 
     19 C2'        78.3110   58.9910   48.9770 C.3       1 AGS600      0.0000 
     20 O2'        78.5750   57.8340   48.1910 O.3       1 AGS600      0.0000 
     21 C1'        79.1040   58.9290   50.2780 C.3       1 AGS600      0.0000 
     22 N9         78.4660   58.1400   51.3310 N.pl3     1 AGS600      0.0000 
     23 C8         77.5440   58.5700   52.2510 C.2       1 AGS600      0.0000 
     24 N7         77.1200   57.6330   53.0630 N.2       1 AGS600      0.0000 
     25 C5         77.8070   56.5020   52.6480 C.ar      1 AGS600      0.0000 
     26 C6         77.8030   55.1660   53.1000 C.ar      1 AGS600      0.0000 
     27 N6         77.0550   54.7280   54.1200 N.pl3     1 AGS600      0.0000 
     28 N1         78.6070   54.2830   52.4620 N.ar      1 AGS600      0.0000 
     29 C2         79.3610   54.7160   51.4440 C.ar      1 AGS600      0.0000 
     30 N3         79.4490   55.9480   50.9330 N.ar      1 AGS600      0.0000 
     31 C4         78.6430   56.8010   51.5820 C.ar      1 AGS600      0.0000 
@<TRIPOS>BOND
     1    1    2 2    
     2    1    3 1    
     3    1    4 1    
     4    1    8 1    
     5    5    6 ar   
     6    5    7 ar   
     7    5    8 1    
     8    5   12 1    
     9    9   10 ar   
    10    9   11 ar   
    11    9   12 1    
    12    9   13 1    
    13   13   14 1    
    14   14   15 1    
    15   15   16 1    
    16   15   17 1    
    17   16   21 1    
    18   17   18 1    
    19   17   19 1    
    20   19   20 1    
    21   19   21 1    
    22   21   22 1    
    23   22   23 1    
    24   22   31 1    
    25   23   24 2    
    26   24   25 1    
    27   25   26 ar   
    28   25   31 ar   
    29   26   27 1    
    30   26   28 ar   
    31   28   29 ar   
    32   29   30 ar   
    33   30   31 ar   
@<TRIPOS>SUBSTRUCTURE
     1 AGS600      1 GROUP   
@<TRIPOS>SET

