#    Name: 6qv2_1_AGS
#    Modification time : Fri May 22 19:36:39 2020

@<TRIPOS>MOLECULE
6qv2_1_AGS
   31    33     1     0     0
SMALL
NO_CHARGES


@<TRIPOS>ATOM
      1 PG         53.0510   67.4020   52.5230 P.3       1 AGS600      0.0000 
      2 S1G        53.2380   68.9890   51.4940 S.2       1 AGS600      0.0000 
      3 O2G        53.8030   66.1420   51.9540 O.3       1 AGS600      0.0000 
      4 O3G        53.5820   67.3340   53.9820 O.3       1 AGS600      0.0000 
      5 PB         50.5870   66.1660   51.6480 P.3       1 AGS600      0.0000 
      6 O1B        49.6240   67.0270   50.9280 O.co2     1 AGS600      0.0000 
      7 O2B        51.4950   65.3020   50.7780 O.co2     1 AGS600      0.0000 
      8 O3B        51.5290   67.0270   52.5980 O.3       1 AGS600      0.0000 
      9 PA         49.2010   63.7580   52.6150 P.3       1 AGS600      0.0000 
     10 O1A        48.4620   63.5680   51.3500 O.co2     1 AGS600      0.0000 
     11 O2A        50.3010   62.7330   52.8640 O.co2     1 AGS600      0.0000 
     12 O3A        49.8720   65.2000   52.6930 O.3       1 AGS600      0.0000 
     13 O5'        48.2360   63.7110   53.8950 O.3       1 AGS600      0.0000 
     14 C5'        47.0130   64.4710   53.9900 C.3       1 AGS600      0.0000 
     15 C4'        46.2700   64.0850   55.2460 C.3       1 AGS600      0.0000 
     16 O4'        46.2400   62.6480   55.3920 O.3       1 AGS600      0.0000 
     17 C3'        46.8000   64.6540   56.5650 C.3       1 AGS600      0.0000 
     18 O3'        45.7400   65.1810   57.3550 O.3       1 AGS600      0.0000 
     19 C2'        47.5050   63.4540   57.2120 C.3       1 AGS600      0.0000 
     20 O2'        47.4710   63.5010   58.6340 O.3       1 AGS600      0.0000 
     21 C1'        46.6780   62.2790   56.6860 C.3       1 AGS600      0.0000 
     22 N9         47.4100   61.0160   56.5870 N.pl3     1 AGS600      0.0000 
     23 C8         48.3920   60.6970   55.6840 C.2       1 AGS600      0.0000 
     24 N7         48.8880   59.4920   55.8340 N.2       1 AGS600      0.0000 
     25 C5         48.1800   58.9780   56.9100 C.ar      1 AGS600      0.0000 
     26 C6         48.2210   57.7300   57.5660 C.ar      1 AGS600      0.0000 
     27 N6         49.0300   56.7280   57.2080 N.pl3     1 AGS600      0.0000 
     28 N1         47.3740   57.5350   58.6040 N.ar      1 AGS600      0.0000 
     29 C2         46.5430   58.5260   58.9530 C.ar      1 AGS600      0.0000 
     30 N3         46.4140   59.7400   58.4070 N.ar      1 AGS600      0.0000 
     31 C4         47.2650   59.9060   57.3850 C.ar      1 AGS600      0.0000 
@<TRIPOS>BOND
     1    1    2 2    
     2    1    3 1    
     3    1    4 1    
     4    1    8 1    
     5    5    6 ar   
     6    5    7 ar   
     7    5    8 1    
     8    5   12 1    
     9    9   10 ar   
    10    9   11 ar   
    11    9   12 1    
    12    9   13 1    
    13   13   14 1    
    14   14   15 1    
    15   15   16 1    
    16   15   17 1    
    17   16   21 1    
    18   17   18 1    
    19   17   19 1    
    20   19   20 1    
    21   19   21 1    
    22   21   22 1    
    23   22   23 1    
    24   22   31 1    
    25   23   24 2    
    26   24   25 1    
    27   25   26 ar   
    28   25   31 ar   
    29   26   27 1    
    30   26   28 ar   
    31   28   29 ar   
    32   29   30 ar   
    33   30   31 ar   
@<TRIPOS>SUBSTRUCTURE
     1 AGS600      1 GROUP   
@<TRIPOS>SET

