#    Name: 6qv2_4_AGS
#    Modification time : Fri May 22 19:37:08 2020

@<TRIPOS>MOLECULE
6qv2_4_AGS
   31    33     1     0     0
SMALL
NO_CHARGES


@<TRIPOS>ATOM
      1 PG         29.3720   13.5520   34.4970 P.3       1 AGS600      0.0000 
      2 S1G        28.8580   11.8140   35.0700 S.2       1 AGS600      0.0000 
      3 O2G        29.1260   14.6820   35.5530 O.3       1 AGS600      0.0000 
      4 O3G        28.6830   14.2310   33.2720 O.3       1 AGS600      0.0000 
      5 PB         31.7580   13.1630   32.9020 P.3       1 AGS600      0.0000 
      6 O1B        33.1090   12.6740   33.2550 O.co2     1 AGS600      0.0000 
      7 O2B        30.8930   12.2100   32.0840 O.co2     1 AGS600      0.0000 
      8 O3B        30.9160   13.5600   34.1930 O.3       1 AGS600      0.0000 
      9 PA         33.0210   15.4350   31.5750 P.3       1 AGS600      0.0000 
     10 O1A        34.0350   14.5880   30.9100 O.co2     1 AGS600      0.0000 
     11 O2A        32.4150   16.4950   30.6630 O.co2     1 AGS600      0.0000 
     12 O3A        31.8160   14.5450   32.1140 O.3       1 AGS600      0.0000 
     13 O5'        33.5840   16.2260   32.8630 O.3       1 AGS600      0.0000 
     14 C5'        34.8730   15.9750   33.4590 C.3       1 AGS600      0.0000 
     15 C4'        35.5960   17.2780   33.6970 C.3       1 AGS600      0.0000 
     16 O4'        35.5100   18.1260   32.5300 O.3       1 AGS600      0.0000 
     17 C3'        35.1230   18.1090   34.8950 C.3       1 AGS600      0.0000 
     18 O3'        36.2060   18.3690   35.7810 O.3       1 AGS600      0.0000 
     19 C2'        34.5490   19.3810   34.2530 C.3       1 AGS600      0.0000 
     20 O2'        34.7710   20.5500   35.0330 O.3       1 AGS600      0.0000 
     21 C1'        35.3450   19.4620   32.9550 C.3       1 AGS600      0.0000 
     22 N9         34.6880   20.2250   31.8950 N.pl3     1 AGS600      0.0000 
     23 C8         33.7850   19.7630   30.9730 C.2       1 AGS600      0.0000 
     24 N7         33.3350   20.6840   30.1550 N.2       1 AGS600      0.0000 
     25 C5         33.9850   21.8370   30.5680 C.ar      1 AGS600      0.0000 
     26 C6         33.9410   23.1700   30.1110 C.ar      1 AGS600      0.0000 
     27 N6         33.1850   23.5800   29.0880 N.pl3     1 AGS600      0.0000 
     28 N1         34.7140   24.0800   30.7480 N.ar      1 AGS600      0.0000 
     29 C2         35.4770   23.6750   31.7700 C.ar      1 AGS600      0.0000 
     30 N3         35.6020   22.4480   32.2870 N.ar      1 AGS600      0.0000 
     31 C4         34.8260   21.5680   31.6390 C.ar      1 AGS600      0.0000 
@<TRIPOS>BOND
     1    1    2 2    
     2    1    3 1    
     3    1    4 1    
     4    1    8 1    
     5    5    6 ar   
     6    5    7 ar   
     7    5    8 1    
     8    5   12 1    
     9    9   10 ar   
    10    9   11 ar   
    11    9   12 1    
    12    9   13 1    
    13   13   14 1    
    14   14   15 1    
    15   15   16 1    
    16   15   17 1    
    17   16   21 1    
    18   17   18 1    
    19   17   19 1    
    20   19   20 1    
    21   19   21 1    
    22   21   22 1    
    23   22   23 1    
    24   22   31 1    
    25   23   24 2    
    26   24   25 1    
    27   25   26 ar   
    28   25   31 ar   
    29   26   27 1    
    30   26   28 ar   
    31   28   29 ar   
    32   29   30 ar   
    33   30   31 ar   
@<TRIPOS>SUBSTRUCTURE
     1 AGS600      1 GROUP   
@<TRIPOS>SET

