#    Name: 6qv2_3_AGS
#    Modification time : Fri May 22 19:36:58 2020

@<TRIPOS>MOLECULE
6qv2_3_AGS
   31    33     1     0     0
SMALL
NO_CHARGES


@<TRIPOS>ATOM
      1 PG          9.5080   10.3340   30.9560 P.3       1 AGS600      0.0000 
      2 S1G         9.6210    8.8230   32.1020 S.2       1 AGS600      0.0000 
      3 O2G        10.1510   11.6490   31.5260 O.3       1 AGS600      0.0000 
      4 O3G        10.2080   10.3290   29.5640 O.3       1 AGS600      0.0000 
      5 PB          6.8670   11.3600   31.5700 P.3       1 AGS600      0.0000 
      6 O1B         5.9200   10.3750   32.1340 O.co2     1 AGS600      0.0000 
      7 O2B         7.5800   12.2570   32.5780 O.co2     1 AGS600      0.0000 
      8 O3B         7.9910   10.6590   30.6890 O.3       1 AGS600      0.0000 
      9 PA          5.4750   13.7420   30.6100 P.3       1 AGS600      0.0000 
     10 O1A         4.7590   13.9100   31.8910 O.co2     1 AGS600      0.0000 
     11 O2A         6.5570   14.7790   30.3330 O.co2     1 AGS600      0.0000 
     12 O3A         6.1630   12.3100   30.5060 O.3       1 AGS600      0.0000 
     13 O5'         4.4770   13.7990   29.3640 O.3       1 AGS600      0.0000 
     14 C5'         3.3340   12.9320   29.2140 C.3       1 AGS600      0.0000 
     15 C4'         2.6570   13.2230   27.8960 C.3       1 AGS600      0.0000 
     16 O4'         2.5120   14.6500   27.7140 O.3       1 AGS600      0.0000 
     17 C3'         3.3460   12.6870   26.6380 C.3       1 AGS600      0.0000 
     18 O3'         2.4100   12.0820   25.7510 O.3       1 AGS600      0.0000 
     19 C2'         4.0230   13.9310   26.0480 C.3       1 AGS600      0.0000 
     20 O2'         4.1500   13.8800   24.6310 O.3       1 AGS600      0.0000 
     21 C1'         3.0610   15.0430   26.4710 C.3       1 AGS600      0.0000 
     22 N9          3.6920   16.3510   26.6350 N.pl3     1 AGS600      0.0000 
     23 C8          4.5740   16.7310   27.6140 C.2       1 AGS600      0.0000 
     24 N7          5.0240   17.9560   27.4850 N.2       1 AGS600      0.0000 
     25 C5          4.3910   18.4190   26.3420 C.ar      1 AGS600      0.0000 
     26 C6          4.4430   19.6520   25.6580 C.ar      1 AGS600      0.0000 
     27 N6          5.1960   20.6860   26.0480 N.pl3     1 AGS600      0.0000 
     28 N1          3.6830   19.7890   24.5470 N.ar      1 AGS600      0.0000 
     29 C2          2.9240   18.7600   24.1530 C.ar      1 AGS600      0.0000 
     30 N3          2.7960   17.5520   24.7140 N.ar      1 AGS600      0.0000 
     31 C4          3.5600   17.4430   25.8110 C.ar      1 AGS600      0.0000 
@<TRIPOS>BOND
     1    1    2 2    
     2    1    3 1    
     3    1    4 1    
     4    1    8 1    
     5    5    6 ar   
     6    5    7 ar   
     7    5    8 1    
     8    5   12 1    
     9    9   10 ar   
    10    9   11 ar   
    11    9   12 1    
    12    9   13 1    
    13   13   14 1    
    14   14   15 1    
    15   15   16 1    
    16   15   17 1    
    17   16   21 1    
    18   17   18 1    
    19   17   19 1    
    20   19   20 1    
    21   19   21 1    
    22   21   22 1    
    23   22   23 1    
    24   22   31 1    
    25   23   24 2    
    26   24   25 1    
    27   25   26 ar   
    28   25   31 ar   
    29   26   27 1    
    30   26   28 ar   
    31   28   29 ar   
    32   29   30 ar   
    33   30   31 ar   
@<TRIPOS>SUBSTRUCTURE
     1 AGS600      1 GROUP   
@<TRIPOS>SET

