#    Name: 5mqx_1_APR
#    Modification time : Fri May 22 19:20:55 2020

@<TRIPOS>MOLECULE
5mqx_1_APR
   57    60     1     0     0
SMALL
NO_CHARGES


@<TRIPOS>ATOM
      1 N1         18.4210   28.3930   16.9890 N.ar      1 APR201      0.0000 
      2 C2         19.4620   27.5560   16.8080 C.ar      1 APR201      0.0000 
      3 N3         20.7610   27.9060   16.7350 N.ar      1 APR201      0.0000 
      4 C4         21.0190   29.2180   16.8930 C.ar      1 APR201      0.0000 
      5 C5         20.0420   30.1540   17.0560 C.ar      1 APR201      0.0000 
      6 C6         18.7340   29.6800   17.1330 C.ar      1 APR201      0.0000 
      7 N6         17.6920   30.4670   17.4500 N.pl3     1 APR201      0.0000 
      8 N7         20.5000   31.4200   17.1450 N.2       1 APR201      0.0000 
      9 C8         21.8450   31.2160   17.1220 C.2       1 APR201      0.0000 
     10 N9         22.1710   29.8830   16.9270 N.pl3     1 APR201      0.0000 
     11 C1'        23.4660   29.2590   16.7300 C.3       1 APR201      0.0000 
     12 C2'        24.3510   29.9290   15.6500 C.3       1 APR201      0.0000 
     13 O2'        24.5680   29.0690   14.5140 O.3       1 APR201      0.0000 
     14 C3'        25.7040   30.2050   16.3450 C.3       1 APR201      0.0000 
     15 O3'        26.6930   29.2630   15.8730 O.3       1 APR201      0.0000 
     16 O4'        24.2350   29.2220   17.9430 O.3       1 APR201      0.0000 
     17 C4'        25.4350   30.0250   17.8580 C.3       1 APR201      0.0000 
     18 C5'        25.1800   31.3720   18.5680 C.3       1 APR201      0.0000 
     19 O5'        24.7540   31.1060   19.9210 O.3       1 APR201      0.0000 
     20 PA         23.8120   32.1390   20.7030 P.3       1 APR201      0.0000 
     21 O1A        22.5740   32.4240   19.9420 O.co2     1 APR201      0.0000 
     22 O2A        24.5070   33.4130   20.9610 O.co2     1 APR201      0.0000 
     23 O3A        23.5610   31.2240   21.9650 O.3       1 APR201      0.0000 
     24 PB         23.1030   31.7070   23.3950 P.3       1 APR201      0.0000 
     25 O1B        21.9180   32.6010   23.3670 O.co2     1 APR201      0.0000 
     26 O2B        22.6770   30.5750   24.2380 O.co2     1 APR201      0.0000 
     27 O5D        24.4700   32.3880   23.9000 O.3       1 APR201      0.0000 
     28 C5D        24.3840   33.6640   24.5680 C.3       1 APR201      0.0000 
     29 O4D        25.9340   34.7930   23.0950 O.3       1 APR201      0.0000 
     30 O1D        24.1450   35.7640   22.0640 O.3       1 APR201      0.0000 
     31 C1D        25.3670   36.0550   22.7140 C.3       1 APR201      0.0000 
     32 O2D        26.0520   37.9890   24.1320 O.3       1 APR201      0.0000 
     33 C2D        25.1800   36.8620   24.0240 C.3       1 APR201      0.0000 
     34 O3D        26.7810   36.2600   25.8280 O.3       1 APR201      0.0000 
     35 C3D        25.5440   35.8770   25.1640 C.3       1 APR201      0.0000 
     36 C4D        25.6830   34.4880   24.4820 C.3       1 APR201      0.0000 
     37 H2         19.2360   26.4880   16.7780 H         1 APR201      0.0000 
     38 H61        17.8920   31.2640   18.0290 H         1 APR201      0.0000 
     39 H62        16.7570   30.0490   17.4770 H         1 APR201      0.0000 
     40 H8         22.5850   31.9980   17.1890 H         1 APR201      0.0000 
     41 H'1        23.2560   28.2090   16.4930 H         1 APR201      0.0000 
     42 H'2        23.9080   30.8730   15.3270 H         1 APR201      0.0000 
     43 HO'2       25.4980   28.7540   14.7250 H         1 APR201      0.0000 
     44 H'3        26.0400   31.2220   16.1300 H         1 APR201      0.0000 
     45 HO'3       27.5480   29.7460   15.8190 H         1 APR201      0.0000 
     46 H'4        26.2550   29.4860   18.3430 H         1 APR201      0.0000 
     47 H5'1       24.4080   31.9350   18.0470 H         1 APR201      0.0000 
     48 H5'2       26.0960   31.9690   18.6010 H         1 APR201      0.0000 
     49 H5R1       24.0660   33.4800   25.6010 H         1 APR201      0.0000 
     50 H5R2       23.6600   34.2550   24.0270 H         1 APR201      0.0000 
     51 HOR1       24.3520   34.8780   21.6120 H         1 APR201      0.0000 
     52 HR'1       26.0330   36.5420   21.9860 H         1 APR201      0.0000 
     53 HOR2       26.6530   37.6350   24.8380 H         1 APR201      0.0000 
     54 HR'2       24.1470   37.2040   24.1130 H         1 APR201      0.0000 
     55 HOR3       27.0120   35.5660   26.4940 H         1 APR201      0.0000 
     56 HR'3       24.7220   35.8460   25.8850 H         1 APR201      0.0000 
     57 HR'4       26.5290   33.9310   24.8900 H         1 APR201      0.0000 
@<TRIPOS>BOND
     1    1    2 ar   
     2    1    6 ar   
     3    2    3 ar   
     4    2   37 1    
     5    3    4 ar   
     6    4    5 ar   
     7    4   10 1    
     8    5    6 ar   
     9    5    8 1    
    10    6    7 1    
    11    7   38 1    
    12    7   39 1    
    13    8    9 2    
    14    9   10 1    
    15    9   40 1    
    16   10   11 1    
    17   11   12 1    
    18   11   16 1    
    19   11   41 1    
    20   12   13 1    
    21   12   14 1    
    22   12   42 1    
    23   13   43 1    
    24   14   15 1    
    25   14   17 1    
    26   14   44 1    
    27   15   45 1    
    28   16   17 1    
    29   17   18 1    
    30   17   46 1    
    31   18   19 1    
    32   18   47 1    
    33   18   48 1    
    34   19   20 1    
    35   20   21 ar   
    36   20   22 ar   
    37   20   23 1    
    38   30   51 1    
    39   23   24 1    
    40   24   25 ar   
    41   24   26 ar   
    42   24   27 1    
    43   27   28 1    
    44   28   36 1    
    45   28   49 1    
    46   28   50 1    
    47   29   31 1    
    48   29   36 1    
    49   30   31 1    
    50   31   33 1    
    51   31   52 1    
    52   32   33 1    
    53   32   53 1    
    54   33   35 1    
    55   33   54 1    
    56   34   35 1    
    57   34   55 1    
    58   35   36 1    
    59   35   56 1    
    60   36   57 1    
@<TRIPOS>SUBSTRUCTURE
     1 APR201      1 GROUP   
@<TRIPOS>SET

