#    Name: 6gw2_2_TUD
#    Modification time : Fri May 22 19:26:32 2020

@<TRIPOS>MOLECULE
6gw2_2_TUD
   34    37     1     0     0
SMALL
NO_CHARGES


@<TRIPOS>ATOM
      1 C1         12.0780  -13.5310   -3.5190 C.3       1 TUD600      0.0000 
      2 C2         11.7690  -12.7370   -2.2690 C.3       1 TUD600      0.0000 
      3 C3         10.3070  -12.3450   -2.2820 C.3       1 TUD600      0.0000 
      4 O3         10.0030  -11.5800   -1.0990 O.3       1 TUD600      0.0000 
      5 C4         10.0120  -11.5350   -3.5230 C.3       1 TUD600      0.0000 
      6 C5         10.4270  -12.2620   -4.8180 C.3       1 TUD600      0.0000 
      7 C6         10.0990  -11.4340   -6.0490 C.3       1 TUD600      0.0000 
      8 C7         11.0660  -10.2900   -6.3380 C.3       1 TUD600      0.0000 
      9 O7         10.8160   -9.1990   -5.4470 O.3       1 TUD600      0.0000 
     10 C8         12.5320  -10.7060   -6.2260 C.3       1 TUD600      0.0000 
     11 C9         12.8150  -11.5090   -4.9380 C.3       1 TUD600      0.0000 
     12 C10        11.8740  -12.7420   -4.8100 C.3       1 TUD600      0.0000 
     13 C11        14.2950  -11.8610   -4.8320 C.3       1 TUD600      0.0000 
     14 C12        15.2730  -10.6810   -5.0730 C.3       1 TUD600      0.0000 
     15 C13        14.9800   -9.9250   -6.3640 C.3       1 TUD600      0.0000 
     16 C14        13.4920   -9.5100   -6.2900 C.3       1 TUD600      0.0000 
     17 C15        13.3420   -8.5160   -7.4030 C.3       1 TUD600      0.0000 
     18 C16        14.7030   -7.8380   -7.4870 C.3       1 TUD600      0.0000 
     19 C17        15.6550   -8.5690   -6.5430 C.3       1 TUD600      0.0000 
     20 C18        15.2370  -10.8040   -7.5710 C.3       1 TUD600      0.0000 
     21 C19        12.1010  -13.7080   -5.9830 C.3       1 TUD600      0.0000 
     22 C20        17.0930   -8.4870   -7.0580 C.3       1 TUD600      0.0000 
     23 C21        18.1290   -9.1230   -6.1460 C.3       1 TUD600      0.0000 
     24 C22        17.4410   -7.0060   -7.3050 C.3       1 TUD600      0.0000 
     25 C23        18.9360   -6.7150   -7.4530 C.3       1 TUD600      0.0000 
     26 O25        20.4380   -4.8780   -7.7580 O.2       1 TUD600      0.0000 
     27 C24        19.3080   -5.2350   -7.4250 C.2       1 TUD600      0.0000 
     28 N26        18.3550   -4.4280   -7.0280 N.am      1 TUD600      0.0000 
     29 C25        18.4980   -2.9950   -6.9290 C.3       1 TUD600      0.0000 
     30 C26        18.6180   -2.3520   -8.2730 C.3       1 TUD600      0.0000 
     31 S27        20.2720   -1.9240   -8.7520 S.o2      1 TUD600      0.0000 
     32 O28        20.3710   -2.1480  -10.1820 O.co2     1 TUD600      0.0000 
     33 O29        21.1600   -2.7540   -7.9580 O.co2     1 TUD600      0.0000 
     34 O30        20.4130   -0.5060   -8.3860 O.co2     1 TUD600      0.0000 
@<TRIPOS>BOND
     1    1    2 1    
     2    1   12 1    
     3    2    3 1    
     4    3    4 1    
     5    3    5 1    
     6    5    6 1    
     7    6    7 1    
     8    6   12 1    
     9    7    8 1    
    10    8    9 1    
    11    8   10 1    
    12   10   11 1    
    13   10   16 1    
    14   11   12 1    
    15   11   13 1    
    16   12   21 1    
    17   13   14 1    
    18   14   15 1    
    19   15   16 1    
    20   15   19 1    
    21   15   20 1    
    22   16   17 1    
    23   17   18 1    
    24   18   19 1    
    25   19   22 1    
    26   22   23 1    
    27   22   24 1    
    28   24   25 1    
    29   25   27 1    
    30   26   27 2    
    31   27   28 am   
    32   28   29 1    
    33   29   30 1    
    34   30   31 1    
    35   31   32 ar   
    36   31   33 ar   
    37   31   34 ar   
@<TRIPOS>SUBSTRUCTURE
     1 TUD600      1 GROUP   
@<TRIPOS>SET

