#    Name: 6gw2_1_TUD
#    Modification time : Fri May 22 19:26:27 2020

@<TRIPOS>MOLECULE
6gw2_1_TUD
   34    37     1     0     0
SMALL
NO_CHARGES


@<TRIPOS>ATOM
      1 C1         -0.2760  -29.8220   -4.6220 C.3       1 TUD600      0.0000 
      2 C2         -0.2320  -30.5810   -3.3070 C.3       1 TUD600      0.0000 
      3 C3          1.1860  -31.0330   -3.0150 C.3       1 TUD600      0.0000 
      4 O3          1.2340  -31.8100   -1.8020 O.3       1 TUD600      0.0000 
      5 C4          1.7150  -31.8620   -4.1600 C.3       1 TUD600      0.0000 
      6 C5          1.6480  -31.1150   -5.5050 C.3       1 TUD600      0.0000 
      7 C6          2.2570  -31.9380   -6.6330 C.3       1 TUD600      0.0000 
      8 C7          1.3940  -33.0910   -7.1460 C.3       1 TUD600      0.0000 
      9 O7          1.4850  -34.2140   -6.2570 O.3       1 TUD600      0.0000 
     10 C8         -0.0720  -32.6870   -7.3550 C.3       1 TUD600      0.0000 
     11 C9         -0.6410  -31.8450   -6.1840 C.3       1 TUD600      0.0000 
     12 C10         0.2470  -30.6140   -5.8240 C.3       1 TUD600      0.0000 
     13 C11        -2.0860  -31.4620   -6.4780 C.3       1 TUD600      0.0000 
     14 C12        -2.9970  -32.6770   -6.8280 C.3       1 TUD600      0.0000 
     15 C13        -2.4620  -33.4770   -8.0030 C.3       1 TUD600      0.0000 
     16 C14        -1.0080  -33.8750   -7.6310 C.3       1 TUD600      0.0000 
     17 C15        -0.6420  -34.8710   -8.6890 C.3       1 TUD600      0.0000 
     18 C16        -1.9570  -35.5930   -8.9930 C.3       1 TUD600      0.0000 
     19 C17        -3.0790  -34.8530   -8.2680 C.3       1 TUD600      0.0000 
     20 C18        -2.4790  -32.6120   -9.2460 C.3       1 TUD600      0.0000 
     21 C19         0.3320  -29.6310   -6.9940 C.3       1 TUD600      0.0000 
     22 C20        -4.3830  -35.0040   -9.0620 C.3       1 TUD600      0.0000 
     23 C21        -5.5720  -34.2740   -8.4530 C.3       1 TUD600      0.0000 
     24 C22        -4.7080  -36.5040   -9.2390 C.3       1 TUD600      0.0000 
     25 C23        -6.1810  -36.8000   -9.5330 C.3       1 TUD600      0.0000 
     26 O25        -7.7060  -38.5710  -10.0410 O.2       1 TUD600      0.0000 
     27 C24        -6.5960  -38.2700   -9.6080 C.2       1 TUD600      0.0000 
     28 N26        -5.7130  -39.1410   -9.1890 N.am      1 TUD600      0.0000 
     29 C25        -5.9400  -40.5670   -9.1870 C.3       1 TUD600      0.0000 
     30 C26        -5.8650  -41.1440  -10.5610 C.3       1 TUD600      0.0000 
     31 S27        -7.2770  -42.0950  -11.0580 S.o2      1 TUD600      0.0000 
     32 O28        -7.3190  -43.2300  -10.1560 O.co2     1 TUD600      0.0000 
     33 O29        -7.0530  -42.4410  -12.4490 O.co2     1 TUD600      0.0000 
     34 O30        -8.4370  -41.1960  -10.9360 O.co2     1 TUD600      0.0000 
@<TRIPOS>BOND
     1    1    2 1    
     2    1   12 1    
     3    2    3 1    
     4    3    4 1    
     5    3    5 1    
     6    5    6 1    
     7    6    7 1    
     8    6   12 1    
     9    7    8 1    
    10    8    9 1    
    11    8   10 1    
    12   10   11 1    
    13   10   16 1    
    14   11   12 1    
    15   11   13 1    
    16   12   21 1    
    17   13   14 1    
    18   14   15 1    
    19   15   16 1    
    20   15   19 1    
    21   15   20 1    
    22   16   17 1    
    23   17   18 1    
    24   18   19 1    
    25   19   22 1    
    26   22   23 1    
    27   22   24 1    
    28   24   25 1    
    29   25   27 1    
    30   26   27 2    
    31   27   28 am   
    32   28   29 1    
    33   29   30 1    
    34   30   31 1    
    35   31   32 ar   
    36   31   33 ar   
    37   31   34 ar   
@<TRIPOS>SUBSTRUCTURE
     1 TUD600      1 GROUP   
@<TRIPOS>SET

