#    Name: 6fn2_2_FAD
#    Modification time : Fri May 22 19:35:22 2020

@<TRIPOS>MOLECULE
6fn2_2_FAD
   53    58     1     0     1
SMALL
NO_CHARGES


@<TRIPOS>ATOM
      1 PA        -18.5330   22.3620  -15.2740 P.3       1 FAD601      0.0000 
      2 O1A       -17.0680   22.7630  -15.3820 O.co2     1 FAD601      0.0000 
      3 O2A       -19.3430   22.3070  -16.5280 O.co2     1 FAD601      0.0000 
      4 O5B       -19.2900   23.2270  -14.1500 O.3       1 FAD601      0.0000 
      5 C5B       -18.6360   23.5830  -12.9270 C.3       1 FAD601      0.0000 
      6 C4B       -19.3430   23.1090  -11.6600 C.3       1 FAD601      0.0000 
      7 O4B       -20.7270   23.4560  -11.6480 O.3       1 FAD601      0.0000 
      8 C3B       -19.3050   21.6100  -11.4600 C.3       1 FAD601      0.0000 
      9 O3B       -18.0220   21.2000  -10.9570 O.3       1 FAD601      0.0000 
     10 C2B       -20.4630   21.3840  -10.5180 C.3       1 FAD601      0.0000 
     11 O2B       -20.0960   21.6630   -9.1630 O.3       1 FAD601      0.0000 
     12 C1B       -21.4670   22.4100  -11.0140 C.3       1 FAD601      0.0000 
     13 N9A       -22.3870   21.8690  -12.0390 N.pl3     1 FAD601      0.0000 
     14 C8A       -22.1820   21.7920  -13.3720 C.2       1 FAD601      0.0000 
     15 N7A       -23.2490   21.2620  -13.9860 N.2       1 FAD601      0.0000 
     16 C5A       -24.1530   20.9920  -13.0500 C.ar      1 FAD601      0.0000 
     17 C6A       -25.5100   20.4280  -13.0350 C.ar      1 FAD601      0.0000 
     18 N6A       -26.0860   20.0270  -14.1700 N.pl3     1 FAD601      0.0000 
     19 N1A       -26.1210   20.2980  -11.8570 N.ar      1 FAD601      0.0000 
     20 C2A       -25.5400   20.7100  -10.7040 C.ar      1 FAD601      0.0000 
     21 N3A       -24.3070   21.2530  -10.6440 N.ar      1 FAD601      0.0000 
     22 C4A       -23.5900   21.4010  -11.7720 C.ar      1 FAD601      0.0000 
     23 N1        -22.6680   16.6400  -10.4760 N.2       1 FAD601      0.0000 
     24 C2        -22.0490   16.4530   -9.3030 C.2       1 FAD601      0.0000 
     25 O2        -21.2650   17.3430   -8.9160 O.2       1 FAD601      0.0000 
     26 N3        -22.2470   15.3600   -8.5430 N.am      1 FAD601      0.0000 
     27 C4        -23.0690   14.3860   -8.9150 C.2       1 FAD601      0.0000 
     28 O4        -23.2300   13.4110   -8.1750 O.2       1 FAD601      0.0000 
     29 C4X       -23.7510   14.4880  -10.2240 C.2       1 FAD601      0.0000 
     30 N5        -24.5900   13.5430  -10.6860 N.2       1 FAD601      0.0000 
     31 C5X       -25.2270   13.6710  -11.8830 C.ar      1 FAD601      0.0000 
     32 C6        -26.0960   12.6740  -12.3530 C.ar      1 FAD601      0.0000 
     33 C7        -26.7440   12.8100  -13.5800 C.ar      1 FAD601      0.0000 
     34 C7M       -27.6550   11.7160  -14.0500 C.3       1 FAD601      0.0000 
     35 C8        -26.4920   14.0100  -14.4190 C.ar      1 FAD601      0.0000 
     36 C8M       -27.1570   14.2650  -15.7530 C.3       1 FAD601      0.0000 
     37 C9        -25.6560   14.9910  -13.9430 C.ar      1 FAD601      0.0000 
     38 C9A       -25.0090   14.9020  -12.7120 C.ar      1 FAD601      0.0000 
     39 N10       -24.1130   15.9050  -12.2610 N.pl3     1 FAD601      0.0000 
     40 C10       -23.4980   15.7210  -10.9980 C.2       1 FAD601      0.0000 
     41 C1'       -23.9310   17.1950  -12.9690 C.3       1 FAD601      0.0000 
     42 C2'       -22.8470   17.4480  -13.9420 C.3       1 FAD601      0.0000 
     43 O2'       -23.0020   16.4060  -14.8790 O.3       1 FAD601      0.0000 
     44 C3'       -21.5040   17.5510  -13.2330 C.3       1 FAD601      0.0000 
     45 O3'       -21.5620   18.4780  -12.1300 O.3       1 FAD601      0.0000 
     46 C4'       -20.4950   18.0230  -14.2340 C.3       1 FAD601      0.0000 
     47 O4'       -20.4540   17.0740  -15.2850 O.3       1 FAD601      0.0000 
     48 C5'       -19.1410   18.1000  -13.5950 C.3       1 FAD601      0.0000 
     49 O5'       -18.1780   18.4600  -14.5710 O.3       1 FAD601      0.0000 
     50 P         -17.3820   19.8470  -14.4390 P.3       1 FAD601      0.0000 
     51 O1P       -16.8540   19.9690  -13.0330 O.co2     1 FAD601      0.0000 
     52 O2P       -16.4650   19.8390  -15.6410 O.co2     1 FAD601      0.0000 
     53 O3P       -18.6060   20.9190  -14.5590 O.3       1 FAD601      0.0000 
@<TRIPOS>BOND
     1   23   40 2    
     2   24   25 2    
     3   24   26 am   
     4   26   27 am   
     5   27   28 2    
     6   27   29 1    
     7   29   30 2    
     8   29   40 1    
     9   30   31 1    
    10   31   32 ar   
    11   31   38 ar   
    12   32   33 ar   
    13   33   34 1    
    14   33   35 ar   
    15   35   36 1    
    16   35   37 ar   
    17   37   38 ar   
    18   38   39 1    
    19   39   40 1    
    20   39   41 1    
    21   41   42 1    
    22   42   43 1    
    23   42   44 1    
    24   44   45 1    
    25   44   46 1    
    26   46   47 1    
    27   46   48 1    
    28   48   49 1    
    29   49   50 1    
    30   50   51 ar   
    31   50   52 ar   
    32   50   53 1    
    33    1    2 ar   
    34    1    3 ar   
    35    1    4 1    
    36    1   53 1    
    37    4    5 1    
    38    5    6 1    
    39    6    7 1    
    40    6    8 1    
    41    7   12 1    
    42    8    9 1    
    43    8   10 1    
    44   10   11 1    
    45   10   12 1    
    46   12   13 1    
    47   13   14 1    
    48   13   22 1    
    49   14   15 2    
    50   15   16 1    
    51   16   17 ar   
    52   16   22 ar   
    53   17   18 1    
    54   17   19 ar   
    55   19   20 ar   
    56   20   21 ar   
    57   21   22 ar   
    58   23   24 1    
@<TRIPOS>SUBSTRUCTURE
     1 FAD601      1 GROUP   
@<TRIPOS>SET
ATOM$ORANGE STATIC     ATOMS   COLORGROUP SYSTEM 
54 5 5 6 6 8 8 10 10 12 12 14 14 16 16 17 17 20 \
20 22 22 24 24 27 27 29 29 31 31 32 32 33 33 34 34 35 \
35 36 36 37 37 38 38 40 40 41 41 42 42 44 44 46 46 48 \
48 

