#    Name: 6n1s_2_CB3
#    Modification time : Fri May 22 19:24:55 2020

@<TRIPOS>MOLECULE
6n1s_2_CB3
   35    37     1     0     0
SMALL
NO_CHARGES


@<TRIPOS>ATOM
      1 N1         42.0380   53.8320  -41.5790 N.pl3     1 CB3703      0.0000 
      2 C2         41.9170   54.2030  -42.8890 C.2       1 CB3703      0.0000 
      3 NA2        42.9480   54.8250  -43.4580 N.pl3     1 CB3703      0.0000 
      4 N3         40.8130   53.9770  -43.5970 N.2       1 CB3703      0.0000 
      5 C4         39.7570   53.3420  -43.0090 C.2       1 CB3703      0.0000 
      6 O4         38.7490   53.1470  -43.7010 O.2       1 CB3703      0.0000 
      7 C4A        39.8300   52.9070  -41.6090 C.ar      1 CB3703      0.0000 
      8 C5         38.7850   52.2460  -40.9520 C.ar      1 CB3703      0.0000 
      9 C6         38.9050   51.8530  -39.6500 C.ar      1 CB3703      0.0000 
     10 C7         40.1100   52.1340  -38.9580 C.ar      1 CB3703      0.0000 
     11 C8         41.1440   52.7860  -39.5780 C.ar      1 CB3703      0.0000 
     12 C8A        41.0160   53.1770  -40.9120 C.ar      1 CB3703      0.0000 
     13 C9         37.7820   51.1280  -38.9490 C.3       1 CB3703      0.0000 
     14 N10        36.9020   50.3840  -39.8490 N.pl3     1 CB3703      0.0000 
     15 C11        38.3600   47.5330  -42.5730 C.ar      1 CB3703      0.0000 
     16 C12        37.0310   47.9400  -42.6200 C.ar      1 CB3703      0.0000 
     17 C13        36.5460   48.8750  -41.7260 C.ar      1 CB3703      0.0000 
     18 C14        37.3830   49.4520  -40.7480 C.ar      1 CB3703      0.0000 
     19 C15        38.7280   49.0360  -40.7210 C.ar      1 CB3703      0.0000 
     20 C16        39.1980   48.1000  -41.6180 C.ar      1 CB3703      0.0000 
     21 C          38.9760   46.5350  -43.5160 C.2       1 CB3703      0.0000 
     22 O          40.1860   46.3220  -43.4780 O.2       1 CB3703      0.0000 
     23 N          38.1980   45.9740  -44.4500 N.am      1 CB3703      0.0000 
     24 CA         36.9180   45.3450  -44.1590 C.3       1 CB3703      0.0000 
     25 CB         35.9080   45.6150  -45.2830 C.3       1 CB3703      0.0000 
     26 CG         34.6870   46.3980  -44.8250 C.3       1 CB3703      0.0000 
     27 CD         33.9380   47.1220  -45.9330 C.2       1 CB3703      0.0000 
     28 OE1        33.3760   46.4360  -46.8080 O.co2     1 CB3703      0.0000 
     29 OE2        33.9150   48.3710  -45.9180 O.co2     1 CB3703      0.0000 
     30 CT         37.1340   43.8360  -43.9380 C.2       1 CB3703      0.0000 
     31 O1         38.2400   43.4830  -43.4750 O.co2     1 CB3703      0.0000 
     32 O2         36.1980   43.0620  -44.2470 O.co2     1 CB3703      0.0000 
     33 CP1        35.4840   50.6750  -39.7520 C.3       1 CB3703      0.0000 
     34 CP2        35.1270   51.8900  -40.4910 C.1       1 CB3703      0.0000 
     35 CP3        34.7950   52.8410  -41.1010 C.1       1 CB3703      0.0000 
@<TRIPOS>BOND
     1    1    2 1    
     2    1   12 1    
     3    2    3 1    
     4    2    4 2    
     5    4    5 1    
     6    5    6 2    
     7    5    7 1    
     8    7    8 ar   
     9    7   12 ar   
    10    8    9 ar   
    11    9   10 ar   
    12    9   13 1    
    13   10   11 ar   
    14   11   12 ar   
    15   13   14 1    
    16   14   18 1    
    17   14   33 1    
    18   15   16 ar   
    19   15   20 ar   
    20   15   21 1    
    21   16   17 ar   
    22   17   18 ar   
    23   18   19 ar   
    24   19   20 ar   
    25   21   22 2    
    26   21   23 am   
    27   23   24 1    
    28   24   25 1    
    29   24   30 1    
    30   25   26 1    
    31   26   27 1    
    32   27   28 ar   
    33   27   29 ar   
    34   30   31 ar   
    35   30   32 ar   
    36   33   34 1    
    37   34   35 3    
@<TRIPOS>SUBSTRUCTURE
     1 CB3703      1 GROUP   
@<TRIPOS>SET

