#    Name: 6n1s_1_CB3
#    Modification time : Fri May 22 19:24:47 2020

@<TRIPOS>MOLECULE
6n1s_1_CB3
   35    37     1     0     0
SMALL
NO_CHARGES


@<TRIPOS>ATOM
      1 N1         17.2320   83.3320  -31.6840 N.pl3     1 CB3703      0.0000 
      2 C2         16.5050   83.0770  -32.8140 C.2       1 CB3703      0.0000 
      3 NA2        15.2920   82.5430  -32.6690 N.pl3     1 CB3703      0.0000 
      4 N3         16.9680   83.3380  -34.0340 N.2       1 CB3703      0.0000 
      5 C4         18.2070   83.8850  -34.1810 C.2       1 CB3703      0.0000 
      6 O4         18.5960   84.1150  -35.3350 O.2       1 CB3703      0.0000 
      7 C4A        19.0370   84.1860  -33.0070 C.ar      1 CB3703      0.0000 
      8 C5         20.3180   84.7470  -33.0870 C.ar      1 CB3703      0.0000 
      9 C6         21.0470   85.0070  -31.9640 C.ar      1 CB3703      0.0000 
     10 C7         20.4890   84.6980  -30.6990 C.ar      1 CB3703      0.0000 
     11 C8         19.2390   84.1470  -30.5920 C.ar      1 CB3703      0.0000 
     12 C8A        18.4980   83.8860  -31.7470 C.ar      1 CB3703      0.0000 
     13 C9         22.4250   85.6180  -32.0520 C.3       1 CB3703      0.0000 
     14 N10        22.7000   86.2680  -33.3280 N.pl3     1 CB3703      0.0000 
     15 C11        20.3310   89.3960  -34.7600 C.ar      1 CB3703      0.0000 
     16 C12        21.3990   88.9170  -35.5100 C.ar      1 CB3703      0.0000 
     17 C13        22.1820   87.8850  -35.0430 C.ar      1 CB3703      0.0000 
     18 C14        21.9210   87.2900  -33.7950 C.ar      1 CB3703      0.0000 
     19 C15        20.8350   87.7860  -33.0460 C.ar      1 CB3703      0.0000 
     20 C16        20.0610   88.8240  -33.5220 C.ar      1 CB3703      0.0000 
     21 C          19.5300   90.5350  -35.3210 C.2       1 CB3703      0.0000 
     22 O          18.9330   91.3210  -34.5880 O.2       1 CB3703      0.0000 
     23 N          19.6070   90.7030  -36.6430 N.am      1 CB3703      0.0000 
     24 CA         19.8460   92.0050  -37.2480 C.3       1 CB3703      0.0000 
     25 CB         19.9100   91.8740  -38.7730 C.3       1 CB3703      0.0000 
     26 CG         20.7720   90.7050  -39.2220 C.3       1 CB3703      0.0000 
     27 CD         20.3570   90.0810  -40.5420 C.2       1 CB3703      0.0000 
     28 OE1        20.2090   88.8440  -40.5890 O.co2     1 CB3703      0.0000 
     29 OE2        20.1810   90.8340  -41.5190 O.co2     1 CB3703      0.0000 
     30 CT         18.7800   93.0120  -36.7840 C.2       1 CB3703      0.0000 
     31 O1         17.7010   92.5440  -36.3690 O.co2     1 CB3703      0.0000 
     32 O2         19.0730   94.2230  -36.8480 O.co2     1 CB3703      0.0000 
     33 CP1        23.8410   85.7830  -34.0930 C.3       1 CB3703      0.0000 
     34 CP2        23.4110   85.0330  -35.2770 C.1       1 CB3703      0.0000 
     35 CP3        23.0340   84.4020  -36.1970 C.1       1 CB3703      0.0000 
@<TRIPOS>BOND
     1    1    2 1    
     2    1   12 1    
     3    2    3 1    
     4    2    4 2    
     5    4    5 1    
     6    5    6 2    
     7    5    7 1    
     8    7    8 ar   
     9    7   12 ar   
    10    8    9 ar   
    11    9   10 ar   
    12    9   13 1    
    13   10   11 ar   
    14   11   12 ar   
    15   13   14 1    
    16   14   18 1    
    17   14   33 1    
    18   15   16 ar   
    19   15   20 ar   
    20   15   21 1    
    21   16   17 ar   
    22   17   18 ar   
    23   18   19 ar   
    24   19   20 ar   
    25   21   22 2    
    26   21   23 am   
    27   23   24 1    
    28   24   25 1    
    29   24   30 1    
    30   25   26 1    
    31   26   27 1    
    32   27   28 ar   
    33   27   29 ar   
    34   30   31 ar   
    35   30   32 ar   
    36   33   34 1    
    37   34   35 3    
@<TRIPOS>SUBSTRUCTURE
     1 CB3703      1 GROUP   
@<TRIPOS>SET

