#    Name: 6n1s_2_NDP
#    Modification time : Fri May 22 19:25:03 2020

@<TRIPOS>MOLECULE
6n1s_2_NDP
   48    52     1     0     1
SMALL
NO_CHARGES


@<TRIPOS>ATOM
      1 PA          2.4620   28.9370  -68.2170 P.3       1 NDP702      0.0000 
      2 O1A         1.6390   30.0190  -67.6010 O.co2     1 NDP702      0.0000 
      3 O2A         3.6460   29.3110  -69.0480 O.co2     1 NDP702      0.0000 
      4 O5B         1.5090   27.9660  -69.0610 O.3       1 NDP702      0.0000 
      5 C5B         2.0540   26.7050  -69.5240 C.3       1 NDP702      0.0000 
      6 C4B         1.1270   26.1200  -70.5590 C.3       1 NDP702      0.0000 
      7 O4B         1.0010   27.0480  -71.6700 O.3       1 NDP702      0.0000 
      8 C3B         1.5650   24.7940  -71.1970 C.3       1 NDP702      0.0000 
      9 O3B         1.1560   23.6740  -70.4210 O.3       1 NDP702      0.0000 
     10 C2B         0.8530   24.8830  -72.5380 C.3       1 NDP702      0.0000 
     11 O2B        -0.5420   24.6300  -72.3560 O.3       1 NDP702      0.0000 
     12 C1B         1.1060   26.3450  -72.8880 C.3       1 NDP702      0.0000 
     13 N9A         2.4260   26.5970  -73.4580 N.pl3     1 NDP702      0.0000 
     14 C8A         3.5900   26.8400  -72.7720 C.2       1 NDP702      0.0000 
     15 N7A         4.6260   27.0310  -73.5480 N.2       1 NDP702      0.0000 
     16 C5A         4.1170   26.9080  -74.8310 C.ar      1 NDP702      0.0000 
     17 C6A         4.7230   27.0040  -76.0990 C.ar      1 NDP702      0.0000 
     18 N6A         6.0160   27.2530  -76.2830 N.pl3     1 NDP702      0.0000 
     19 N1A         3.9310   26.8260  -77.1840 N.ar      1 NDP702      0.0000 
     20 C2A         2.6290   26.5740  -76.9890 C.ar      1 NDP702      0.0000 
     21 N3A         1.9530   26.4620  -75.8480 N.ar      1 NDP702      0.0000 
     22 C4A         2.7610   26.6410  -74.7900 C.ar      1 NDP702      0.0000 
     23 O3          2.9350   27.9390  -67.0590 O.3       1 NDP702      0.0000 
     24 PN          4.2590   27.9010  -66.1620 P.3       1 NDP702      0.0000 
     25 O1N         4.2270   26.6740  -65.3110 O.co2     1 NDP702      0.0000 
     26 O2N         5.4420   28.1230  -67.0460 O.co2     1 NDP702      0.0000 
     27 O5D         4.0240   29.1940  -65.2460 O.3       1 NDP702      0.0000 
     28 C5D         3.0260   29.1630  -64.1970 C.3       1 NDP702      0.0000 
     29 C4D         3.6530   29.6590  -62.9180 C.3       1 NDP702      0.0000 
     30 O4D         4.3420   30.9050  -63.1890 O.3       1 NDP702      0.0000 
     31 C3D         2.6850   29.9500  -61.7600 C.3       1 NDP702      0.0000 
     32 O3D         3.2000   29.4430  -60.5350 O.3       1 NDP702      0.0000 
     33 C2D         2.6060   31.4760  -61.7700 C.3       1 NDP702      0.0000 
     34 O2D         2.2860   32.0130  -60.4950 O.3       1 NDP702      0.0000 
     35 C1D         4.0200   31.8480  -62.2020 C.3       1 NDP702      0.0000 
     36 N1N         4.1370   33.2140  -62.7910 N.pl3     1 NDP702      0.0000 
     37 C2N         5.1330   34.0530  -62.3660 C.2       1 NDP702      0.0000 
     38 C3N         5.2020   35.3660  -62.7590 C.2       1 NDP702      0.0000 
     39 C7N         6.1410   36.2690  -62.0500 C.2       1 NDP702      0.0000 
     40 O7N         6.3600   37.3930  -62.5110 O.2       1 NDP702      0.0000 
     41 N7N         6.7280   35.8450  -60.9400 N.am      1 NDP702      0.0000 
     42 C4N         4.3410   35.8030  -63.8890 C.3       1 NDP702      0.0000 
     43 C5N         3.2050   34.9010  -64.1270 C.2       1 NDP702      0.0000 
     44 C6N         3.2710   33.6350  -63.7770 C.2       1 NDP702      0.0000 
     45 P2B        -1.2440   23.9130  -73.6180 P.3       1 NDP702      0.0000 
     46 O1X        -0.7350   22.4840  -73.6270 O.co2     1 NDP702      0.0000 
     47 O2X        -2.7350   23.9950  -73.3490 O.co2     1 NDP702      0.0000 
     48 O3X        -0.8470   24.6760  -74.8680 O.co2     1 NDP702      0.0000 
@<TRIPOS>BOND
     1    1    2 ar   
     2    1    3 ar   
     3    1    4 1    
     4    1   23 1    
     5    4    5 1    
     6    5    6 1    
     7    6    7 1    
     8    6    8 1    
     9    7   12 1    
    10    8    9 1    
    11    8   10 1    
    12   10   11 1    
    13   10   12 1    
    14   11   45 1    
    15   12   13 1    
    16   13   14 1    
    17   13   22 1    
    18   14   15 2    
    19   15   16 1    
    20   16   17 ar   
    21   16   22 ar   
    22   17   18 1    
    23   17   19 ar   
    24   19   20 ar   
    25   20   21 ar   
    26   21   22 ar   
    27   23   24 1    
    28   24   25 ar   
    29   24   26 ar   
    30   24   27 1    
    31   27   28 1    
    32   28   29 1    
    33   29   30 1    
    34   29   31 1    
    35   30   35 1    
    36   31   32 1    
    37   31   33 1    
    38   33   34 1    
    39   33   35 1    
    40   35   36 1    
    41   36   37 1    
    42   36   44 1    
    43   37   38 2    
    44   38   39 1    
    45   38   42 1    
    46   39   40 2    
    47   39   41 am   
    48   42   43 1    
    49   43   44 2    
    50   45   46 ar   
    51   45   47 ar   
    52   45   48 ar   
@<TRIPOS>SUBSTRUCTURE
     1 NDP702      1 GROUP   
@<TRIPOS>SET
ATOM$ORANGE STATIC     ATOMS   COLORGROUP SYSTEM 
42 5 5 6 6 8 8 10 10 12 12 14 14 16 16 17 17 20 \
20 22 22 28 28 29 29 31 31 33 33 35 35 37 37 38 38 39 \
39 42 42 43 43 44 44 

