#    Name: 6icp_3_CFF_CAVITY_N1_4
#    Modification time : Fri May 22 19:26:26 2020

@<TRIPOS>MOLECULE
6icp_3_CFF_CAVITY_N1_4
   55     0     5     0     0
SMALL
NO_CHARGES


@<TRIPOS>ATOM
      1 OG         47.0000   41.4600   93.2600 O.3       1 SER1        0.0000 
      2 N          38.9500   44.9200   91.8500 N.am      2 ALA2        0.0000 
      3 N          47.3400   42.9500   91.7900 N.am      2 ALA2        0.0000 
      4 CZ         39.2700   42.8800   91.3800 C.ar      3 PHE5        0.0000 
      5 CZ         38.9300   41.3800   92.8500 C.ar      3 PHE5        0.0000 
      6 CZ         38.1100   42.4900   92.2500 C.ar      3 PHE5        0.0000 
      7 CZ         46.8400   42.0200   90.7200 C.ar      3 PHE5        0.0000 
      8 CZ         46.0300   43.1300   90.1300 C.ar      3 PHE5        0.0000 
      9 CZ         45.2100   44.2400   89.5400 C.ar      3 PHE5        0.0000 
     10 CZ         44.3900   45.3500   88.9500 C.ar      3 PHE5        0.0000 
     11 CZ         37.7900   44.5400   92.7300 C.ar      3 PHE5        0.0000 
     12 CZ         47.6800   44.4400   90.3200 C.ar      3 PHE5        0.0000 
     13 CZ         46.8600   45.5500   89.7300 C.ar      3 PHE5        0.0000 
     14 CZ         46.0400   46.6600   89.1400 C.ar      3 PHE5        0.0000 
     15 CZ         46.5200   44.0600   91.2000 C.ar      3 PHE5        0.0000 
     16 CZ         45.7000   45.1700   90.6000 C.ar      3 PHE5        0.0000 
     17 CZ         45.8400   41.0700   94.1300 C.ar      3 PHE5        0.0000 
     18 CZ         45.0300   42.1800   93.5400 C.ar      3 PHE5        0.0000 
     19 CZ         41.4200   45.1300   92.6300 C.ar      3 PHE5        0.0000 
     20 CZ         40.2600   44.7400   93.5100 C.ar      3 PHE5        0.0000 
     21 CZ         39.1100   44.3600   94.3800 C.ar      3 PHE5        0.0000 
     22 CZ         46.6800   43.5000   93.7300 C.ar      3 PHE5        0.0000 
     23 CZ         40.4200   44.1800   96.0400 C.ar      3 PHE5        0.0000 
     24 CA         40.0900   41.7700   91.9700 C.3       4 GLY6        0.0000 
     25 CA         43.5800   46.4600   88.3500 C.3       4 GLY6        0.0000 
     26 CA         45.6900   41.6300   91.6000 C.3       4 GLY6        0.0000 
     27 CA         44.8700   42.7400   91.0100 C.3       4 GLY6        0.0000 
     28 CA         44.0500   43.8500   90.4100 C.3       4 GLY6        0.0000 
     29 CA         43.2400   44.9600   89.8200 C.3       4 GLY6        0.0000 
     30 CA         42.4200   46.0700   89.2300 C.3       4 GLY6        0.0000 
     31 CA         44.5300   41.2500   92.4700 C.3       4 GLY6        0.0000 
     32 CA         43.7100   42.3600   91.8800 C.3       4 GLY6        0.0000 
     33 CA         41.7400   43.0800   92.1600 C.3       4 GLY6        0.0000 
     34 CA         40.9200   44.1900   91.5700 C.3       4 GLY6        0.0000 
     35 CA         44.8900   46.2800   90.0100 C.3       4 GLY6        0.0000 
     36 CA         44.0700   47.3900   89.4200 C.3       4 GLY6        0.0000 
     37 CA         45.3700   43.6800   92.0700 C.3       4 GLY6        0.0000 
     38 CA         44.5500   44.7900   91.4800 C.3       4 GLY6        0.0000 
     39 CA         43.7300   45.9000   90.8900 C.3       4 GLY6        0.0000 
     40 CA         42.9100   47.0100   90.2900 C.3       4 GLY6        0.0000 
     41 CA         44.2100   43.2900   92.9500 C.3       4 GLY6        0.0000 
     42 CA         43.3900   44.4000   92.3500 C.3       4 GLY6        0.0000 
     43 CA         42.5700   45.5100   91.7600 C.3       4 GLY6        0.0000 
     44 CA         41.7600   46.6200   91.1700 C.3       4 GLY6        0.0000 
     45 CA         47.0200   44.9900   92.2600 C.3       4 GLY6        0.0000 
     46 CA         46.2000   46.1000   91.6700 C.3       4 GLY6        0.0000 
     47 CA         45.0400   45.7200   92.5400 C.3       4 GLY6        0.0000 
     48 CA         45.5200   43.1200   94.6000 C.3       4 GLY6        0.0000 
     49 CA         44.7000   44.2300   94.0100 C.3       4 GLY6        0.0000 
     50 CA         43.8900   45.3400   93.4200 C.3       4 GLY6        0.0000 
     51 CA         43.0700   46.4500   92.8200 C.3       4 GLY6        0.0000 
     52 DU         39.7700   43.8100   92.4400 H         5 CUB7        0.0000 
     53 DU         39.4300   42.3200   93.9100 H         5 CUB7        0.0000 
     54 DU         38.6100   43.4300   93.3200 H         5 CUB7        0.0000 
     55 DU         46.1800   42.5700   92.6600 H         5 CUB7        0.0000 
@<TRIPOS>BOND
@<TRIPOS>SUBSTRUCTURE
     1 SER1        1 GROUP   
     2 ALA2        2 GROUP   
     3 PHE5        4 GROUP   
     4 GLY6       24 GROUP   
     5 CUB7       52 GROUP   
@<TRIPOS>SET

