#    Name: 6icp_3_CFF
#    Modification time : Fri May 22 19:26:25 2020

@<TRIPOS>MOLECULE
6icp_3_CFF
   14    15     1     0     0
SMALL
NO_CHARGES


@<TRIPOS>ATOM
      1 N1         45.6840   43.8580   91.7040 N.am      1 CFF402      0.0000 
      2 C2         46.0400   44.7870   90.7710 C.2       1 CFF402      0.0000 
      3 C10        46.6980   42.9410   92.1940 C.3       1 CFF402      0.0000 
      4 C6         44.4170   43.8000   92.1520 C.2       1 CFF402      0.0000 
      5 N3         45.1240   45.6550   90.2940 N.am      1 CFF402      0.0000 
      6 O11        47.1530   44.8560   90.3580 O.2       1 CFF402      0.0000 
      7 C12        45.4860   46.6350   89.2980 C.3       1 CFF402      0.0000 
      8 C4         43.8630   45.6120   90.7300 C.2       1 CFF402      0.0000 
      9 C5         43.5000   44.7010   91.6530 C.2       1 CFF402      0.0000 
     10 N9         42.8000   46.3550   90.4020 N.2       1 CFF402      0.0000 
     11 O13        44.0490   43.0010   92.9700 O.2       1 CFF402      0.0000 
     12 N7         42.1950   44.8740   91.9060 N.pl3     1 CFF402      0.0000 
     13 C8         41.7720   45.8960   91.1360 C.2       1 CFF402      0.0000 
     14 C14        41.1680   44.2920   92.7460 C.3       1 CFF402      0.0000 
@<TRIPOS>BOND
     1    1    2 am   
     2    1    3 1    
     3    1    4 am   
     4    2    5 am   
     5    2    6 2    
     6    4    9 1    
     7    4   11 2    
     8    5    7 1    
     9    5    8 1    
    10    8    9 2    
    11    8   10 1    
    12    9   12 1    
    13   10   13 2    
    14   12   13 1    
    15   12   14 1    
@<TRIPOS>SUBSTRUCTURE
     1 CFF402      1 GROUP   
@<TRIPOS>SET

