#    Name: 6icp_1_CFF
#    Modification time : Fri May 22 19:26:15 2020

@<TRIPOS>MOLECULE
6icp_1_CFF
   14    15     1     0     0
SMALL
NO_CHARGES


@<TRIPOS>ATOM
      1 N1         46.0530   72.9950   41.4540 N.am      1 CFF402      0.0000 
      2 C2         46.6770   72.9440   42.6640 C.2       1 CFF402      0.0000 
      3 C10        46.4440   72.0580   40.4100 C.3       1 CFF402      0.0000 
      4 C6         45.0860   73.8910   41.2290 C.2       1 CFF402      0.0000 
      5 N3         46.3230   73.8070   43.6510 N.am      1 CFF402      0.0000 
      6 O11        47.5420   72.1460   42.8650 O.2       1 CFF402      0.0000 
      7 C12        46.9670   73.7810   44.9420 C.3       1 CFF402      0.0000 
      8 C4         45.3610   74.7070   43.4420 C.2       1 CFF402      0.0000 
      9 C5         44.7410   74.7590   42.2480 C.2       1 CFF402      0.0000 
     10 N9         44.8520   75.6430   44.2490 N.2       1 CFF402      0.0000 
     11 O13        44.5270   73.9600   40.1680 O.2       1 CFF402      0.0000 
     12 N7         43.8430   75.7430   42.3090 N.pl3     1 CFF402      0.0000 
     13 C8         43.9100   76.2800   43.5430 C.2       1 CFF402      0.0000 
     14 C14        42.8500   76.3450   41.4430 C.3       1 CFF402      0.0000 
@<TRIPOS>BOND
     1    1    2 am   
     2    1    3 1    
     3    1    4 am   
     4    2    5 am   
     5    2    6 2    
     6    4    9 1    
     7    4   11 2    
     8    5    7 1    
     9    5    8 1    
    10    8    9 2    
    11    8   10 1    
    12    9   12 1    
    13   10   13 2    
    14   12   13 1    
    15   12   14 1    
@<TRIPOS>SUBSTRUCTURE
     1 CFF402      1 GROUP   
@<TRIPOS>SET

