#    Name: 6icp_2_CFF
#    Modification time : Fri May 22 19:26:20 2020

@<TRIPOS>MOLECULE
6icp_2_CFF
   14    15     1     0     0
SMALL
NO_CHARGES


@<TRIPOS>ATOM
      1 N1         73.5250   94.8140   87.5380 N.am      1 CFF402      0.0000 
      2 C2         72.9240   93.6820   87.0720 C.2       1 CFF402      0.0000 
      3 C10        74.8870   95.1050   87.1110 C.3       1 CFF402      0.0000 
      4 C6         72.8540   95.6160   88.3810 C.2       1 CFF402      0.0000 
      5 N3         71.6580   93.3690   87.4520 N.am      1 CFF402      0.0000 
      6 O11        73.5170   92.9680   86.3350 O.2       1 CFF402      0.0000 
      7 C12        70.9620   92.1900   87.0050 C.3       1 CFF402      0.0000 
      8 C4         70.9880   94.1550   88.2860 C.2       1 CFF402      0.0000 
      9 C5         71.5610   95.2760   88.7530 C.2       1 CFF402      0.0000 
     10 N9         69.7530   94.0280   88.7840 N.2       1 CFF402      0.0000 
     11 O13        73.3420   96.6140   88.8210 O.2       1 CFF402      0.0000 
     12 N7         70.6640   95.8570   89.5560 N.pl3     1 CFF402      0.0000 
     13 C8         69.5540   95.0850   89.5740 C.2       1 CFF402      0.0000 
     14 C14        70.5590   97.0390   90.3760 C.3       1 CFF402      0.0000 
@<TRIPOS>BOND
     1    1    2 am   
     2    1    3 1    
     3    1    4 am   
     4    2    5 am   
     5    2    6 2    
     6    4    9 1    
     7    4   11 2    
     8    5    7 1    
     9    5    8 1    
    10    8    9 2    
    11    8   10 1    
    12    9   12 1    
    13   10   13 2    
    14   12   13 1    
    15   12   14 1    
@<TRIPOS>SUBSTRUCTURE
     1 CFF402      1 GROUP   
@<TRIPOS>SET

