#    Name: 5yo2_1_ACO
#    Modification time : Fri May 22 19:14:38 2020

@<TRIPOS>MOLECULE
5yo2_1_ACO
   85    88     1     0     1
SMALL
NO_CHARGES


@<TRIPOS>ATOM
      1 N1A         9.7170   75.7660   74.6560 N.ar      1 ACO202      0.0000 
      2 C2A        10.6680   74.8030   74.7640 C.ar      1 ACO202      0.0000 
      3 N3A        11.9460   75.1530   75.0170 N.ar      1 ACO202      0.0000 
      4 C4A        12.2830   76.4550   75.1620 C.ar      1 ACO202      0.0000 
      5 C5A        11.3540   77.4070   75.0570 C.ar      1 ACO202      0.0000 
      6 C6A        10.0420   77.0430   74.7970 C.ar      1 ACO202      0.0000 
      7 N6A         8.8170   77.8310   74.6280 N.pl3     1 ACO202      0.0000 
      8 N7A        11.9670   78.5940   75.2440 Du        1 ACO202      0.0000 
      9 C8A        13.2630   78.3690   75.4630 Du        1 ACO202      0.0000 
     10 N9A        13.4600   77.0360   75.4080 N.pl3     1 ACO202      0.0000 
     11 C1B        14.7590   77.0700   75.6500 C.3       1 ACO202      0.0000 
     12 C2B        15.2570   75.6220   75.5070 C.3       1 ACO202      0.0000 
     13 O2B        15.1880   74.9290   76.8060 O.3       1 ACO202      0.0000 
     14 C3B        16.5150   75.7280   75.0580 C.3       1 ACO202      0.0000 
     15 O3B        17.4430   75.8170   76.1540 O.3       1 ACO202      0.0000 
     16 P3B        18.7850   74.8570   76.0810 P.3       1 ACO202      0.0000 
     17 O7A        19.6020   75.0370   77.3440 O.co2     1 ACO202      0.0000 
     18 O8A        18.3650   73.4230   75.9540 O.co2     1 ACO202      0.0000 
     19 O9A        19.6090   75.2570   74.8740 O.co2     1 ACO202      0.0000 
     20 C4B        16.5470   77.0840   74.1480 C.3       1 ACO202      0.0000 
     21 O4B        15.5940   77.8850   74.5790 O.3       1 ACO202      0.0000 
     22 C5B        16.2590   76.6910   72.7200 C.3       1 ACO202      0.0000 
     23 O5B        14.9790   76.1460   72.7010 O.3       1 ACO202      0.0000 
     24 P1A        14.3360   75.6220   71.2630 P.3       1 ACO202      0.0000 
     25 O1A        12.9480   76.1400   71.1200 O.co2     1 ACO202      0.0000 
     26 O2A        14.3410   74.1290   71.2190 O.co2     1 ACO202      0.0000 
     27 O3A        15.2050   76.1970   69.9900 O.3       1 ACO202      0.0000 
     28 P2A        14.9440   75.4820   68.5180 P.3       1 ACO202      0.0000 
     29 O4A        13.8170   76.1960   67.7830 O.co2     1 ACO202      0.0000 
     30 O5A        14.5370   74.0610   68.7690 O.co2     1 ACO202      0.0000 
     31 O6A        16.3890   75.5420   67.6300 O.3       1 ACO202      0.0000 
     32 CBP        18.2630   74.4620   66.5940 C.3       1 ACO202      0.0000 
     33 CCP        17.4140   74.5570   67.8920 C.3       1 ACO202      0.0000 
     34 CDP        17.3780   73.8420   65.5070 C.3       1 ACO202      0.0000 
     35 CEP        19.5020   73.5790   66.8300 C.3       1 ACO202      0.0000 
     36 CAP        18.6630   75.9360   66.2240 C.3       1 ACO202      0.0000 
     37 OAP        19.2990   76.5080   67.3070 O.3       1 ACO202      0.0000 
     38 C9P        19.5970   75.9790   65.0190 C.2       1 ACO202      0.0000 
     39 O9P        19.1870   75.7150   63.9310 O.2       1 ACO202      0.0000 
     40 N8P        20.9950   76.3730   65.2150 N.am      1 ACO202      0.0000 
     41 C7P        21.9040   76.4030   64.0450 C.3       1 ACO202      0.0000 
     42 C6P        21.9980   74.9410   63.5260 C.3       1 ACO202      0.0000 
     43 C5P        22.4370   74.1420   64.7880 C.2       1 ACO202      0.0000 
     44 O5P        22.7730   74.7180   65.7510 O.2       1 ACO202      0.0000 
     45 N4P        22.4210   72.6700   64.8030 N.am      1 ACO202      0.0000 
     46 C3P        22.8430   71.9850   66.0660 C.3       1 ACO202      0.0000 
     47 C2P        22.7810   70.4810   65.8060 C.3       1 ACO202      0.0000 
     48 S1P        24.4730   69.9110   65.3800 S.3       1 ACO202      0.0000 
     49 C          24.1670   68.3810   64.4450 C.2       1 ACO202      0.0000 
     50 O          24.3320   67.3030   64.9290 O.2       1 ACO202      0.0000 
     51 CH3        23.6470   68.5540   63.0150 C.3       1 ACO202      0.0000 
     52 H2A        10.4400   73.9070   74.6650 H         1 ACO202      0.0000 
     53 H61A        8.0670   77.4350   74.4830 H         1 ACO202      0.0000 
     54 H62A        8.8480   78.6900   74.6750 H         1 ACO202      0.0000 
     55 H8A        13.9130   79.0150   75.6220 H         1 ACO202      0.0000 
     56 H1B        14.9370   77.4010   76.5440 H         1 ACO202      0.0000 
     57 H2B        14.7170   75.1540   74.8510 H         1 ACO202      0.0000 
     58 HO2A       14.4480   74.5140   76.8680 H         1 ACO202      0.0000 
     59 H3B        16.7290   74.9600   74.5050 H         1 ACO202      0.0000 
     60 H4B        17.4120   77.5180   74.2190 H         1 ACO202      0.0000 
     61 H51A       16.2970   77.4670   72.1390 H         1 ACO202      0.0000 
     62 H52A       16.9030   76.0300   72.4190 H         1 ACO202      0.0000 
     63 H121       17.9720   74.8320   68.6360 H         1 ACO202      0.0000 
     64 H122       17.0010   73.7010   68.0820 H         1 ACO202      0.0000 
     65 H131       16.4560   74.1100   65.6460 H         1 ACO202      0.0000 
     66 H132       17.4440   72.8750   65.5480 H         1 ACO202      0.0000 
     67 H133       17.6750   74.1500   64.6360 H         1 ACO202      0.0000 
     68 H141       20.0760   73.9990   67.4900 H         1 ACO202      0.0000 
     69 H142       19.9870   73.4730   65.9980 H         1 ACO202      0.0000 
     70 H143       19.2210   72.7080   67.1540 H         1 ACO202      0.0000 
     71 H10        17.8610   76.4440   66.0220 H         1 ACO202      0.0000 
     72 HO1        18.7190   76.8110   67.8490 H         1 ACO202      0.0000 
     73 HN8        21.2900   76.5550   66.0020 H         1 ACO202      0.0000 
     74 H71        21.5390   76.9830   63.3590 H         1 ACO202      0.0000 
     75 H72        22.7820   76.7120   64.3170 H         1 ACO202      0.0000 
     76 H61        21.1170   74.6540   63.2390 H         1 ACO202      0.0000 
     77 H62        22.6420   74.8430   62.8070 H         1 ACO202      0.0000 
     78 HN4        22.1660   72.2200   64.1160 H         1 ACO202      0.0000 
     79 H31        23.7470   72.2450   66.3020 H         1 ACO202      0.0000 
     80 H32        22.2320   72.2180   66.7830 H         1 ACO202      0.0000 
     81 H21        22.4660   70.0210   66.6000 H         1 ACO202      0.0000 
     82 H22        22.1830   70.3010   65.0640 H         1 ACO202      0.0000 
     83 HH31       24.2880   69.0680   62.4980 H         1 ACO202      0.0000 
     84 HH32       22.7970   69.0230   63.0340 H         1 ACO202      0.0000 
     85 HH33       23.5250   67.6830   62.6060 H         1 ACO202      0.0000 
@<TRIPOS>BOND
     1    1    2 ar   
     2    1    6 ar   
     3    2    3 ar   
     4    3    4 ar   
     5    2   52 1    
     6    4    5 ar   
     7    4   10 1    
     8    5    6 ar   
     9    5    8 du   
    10    6    7 1    
    11    8    9 du   
    12    7   53 1    
    13    7   54 1    
    14    9   10 du   
    15    9   11 du   
    16   10   11 1    
    17    9   55 1    
    18   11   12 1    
    19   11   21 1    
    20   11   56 1    
    21   12   13 1    
    22   12   14 1    
    23   12   57 1    
    24   14   59 1    
    25   14   15 1    
    26   13   58 1    
    27   14   20 1    
    28   15   16 1    
    29   16   17 ar   
    30   16   18 ar   
    31   16   19 ar   
    32   20   21 1    
    33   20   22 1    
    34   20   60 1    
    35   22   23 1    
    36   22   61 1    
    37   22   62 1    
    38   23   24 1    
    39   24   25 ar   
    40   24   26 ar   
    41   24   27 1    
    42   27   28 1    
    43   28   29 ar   
    44   28   30 ar   
    45   28   31 1    
    46   31   33 1    
    47   32   33 1    
    48   32   34 1    
    49   32   35 1    
    50   32   36 1    
    51   33   63 1    
    52   33   64 1    
    53   34   66 1    
    54   34   65 1    
    55   34   67 1    
    56   35   68 1    
    57   35   69 1    
    58   35   70 1    
    59   36   37 1    
    60   36   38 1    
    61   36   71 1    
    62   37   72 1    
    63   38   39 2    
    64   38   40 am   
    65   40   41 1    
    66   41   42 1    
    67   40   73 1    
    68   41   74 1    
    69   41   75 1    
    70   42   43 1    
    71   42   76 1    
    72   42   77 1    
    73   43   44 2    
    74   43   45 am   
    75   45   46 1    
    76   46   47 1    
    77   45   78 1    
    78   46   79 1    
    79   46   80 1    
    80   47   48 1    
    81   47   81 1    
    82   47   82 1    
    83   48   49 1    
    84   49   50 2    
    85   49   51 1    
    86   51   83 1    
    87   51   84 1    
    88   51   85 1    
@<TRIPOS>SUBSTRUCTURE
     1 ACO202      1 GROUP   
@<TRIPOS>SET
ATOM$ORANGE STATIC     ATOMS   COLORGROUP SYSTEM 
44 2 2 4 4 5 5 6 6 11 11 12 12 14 14 20 20 22 \
22 32 32 33 33 34 34 35 35 36 36 38 38 41 41 42 42 43 \
43 46 46 47 47 49 49 51 51 

