#    Name: 6ngm_2_H4B_CAVITY_N1_4
#    Modification time : Fri May 22 19:30:14 2020

@<TRIPOS>MOLECULE
6ngm_2_H4B_CAVITY_N1_4
    7     0     5     0     0
SMALL
NO_CHARGES


@<TRIPOS>ATOM
      1 N          11.8500    1.7800   51.9200 N.am      1 ALA2        0.0000 
      2 NZ         13.1900    0.5600   53.7800 N.4       2 LYS4        0.0000 
      3 CZ         13.6200    1.8200   53.1000 C.ar      3 PHE5        0.0000 
      4 CZ         12.2300    2.3700   53.2400 C.ar      3 PHE5        0.0000 
      5 CA         12.8100   -0.0400   52.4600 C.3       4 GLY6        0.0000 
      6 DU         13.2400    1.2300   51.7700 H         5 CUB7        0.0000 
      7 DU         11.4300    0.5100   52.6100 H         5 CUB7        0.0000 
@<TRIPOS>BOND
@<TRIPOS>SUBSTRUCTURE
     1 ALA2        1 GROUP   
     2 LYS4        2 GROUP   
     3 PHE5        3 GROUP   
     4 GLY6        5 GROUP   
     5 CUB7        6 GROUP   
@<TRIPOS>SET

