#    Name: 6ngm_2_H4B_CAVITY_N1_8
#    Modification time : Fri May 22 19:30:14 2020

@<TRIPOS>MOLECULE
6ngm_2_H4B_CAVITY_N1_8
   38     0     6     0     0
SMALL
NO_CHARGES


@<TRIPOS>ATOM
      1 OG         13.2500    8.4900   55.3100 O.3       1 SER1        0.0000 
      2 OG         12.8200    7.2200   56.0000 O.3       1 SER1        0.0000 
      3 N          11.8500    1.7800   51.9200 N.am      2 ALA2        0.0000 
      4 O           8.6000    0.9400   54.9100 O.2       2 ALA2        0.0000 
      5 N          11.2200    3.5100   54.7200 N.am      2 ALA2        0.0000 
      6 N           8.9800    1.5300   56.2400 N.am      2 ALA2        0.0000 
      7 N           9.7800    3.3900   56.8800 N.am      2 ALA2        0.0000 
      8 NZ         13.1900    0.5600   53.7800 N.4       3 LYS4        0.0000 
      9 NZ         11.3800   -0.1600   54.6200 N.4       3 LYS4        0.0000 
     10 NZ          9.5600   -0.8700   55.4500 N.4       3 LYS4        0.0000 
     11 NZ         13.5700    1.1500   55.1100 N.4       3 LYS4        0.0000 
     12 NZ         12.1800    1.7000   55.2600 N.4       3 LYS4        0.0000 
     13 NZ         11.7500    0.4400   55.9400 N.4       3 LYS4        0.0000 
     14 NZ          9.9400   -0.2800   56.7800 N.4       3 LYS4        0.0000 
     15 CZ         13.6200    1.8200   53.1000 C.ar      4 PHE5        0.0000 
     16 CZ         12.2300    2.3700   53.2400 C.ar      4 PHE5        0.0000 
     17 CZ         11.6400    4.7800   54.0300 C.ar      4 PHE5        0.0000 
     18 CZ         12.6000    2.9600   54.5700 C.ar      4 PHE5        0.0000 
     19 CZ         12.4500    6.6300   54.6700 C.ar      4 PHE5        0.0000 
     20 CZ         13.4100    4.8200   55.2100 C.ar      4 PHE5        0.0000 
     21 CZ         12.0200    5.3700   55.3600 C.ar      4 PHE5        0.0000 
     22 CA         12.8100   -0.0400   52.4600 C.3       5 GLY6        0.0000 
     23 CA         11.0000   -0.7500   53.2900 C.3       5 GLY6        0.0000 
     24 CA          9.6100   -0.2000   53.4400 C.3       5 GLY6        0.0000 
     25 CA          9.9900    0.3900   54.7700 C.3       5 GLY6        0.0000 
     26 CA          8.1700   -0.3200   55.6000 C.3       5 GLY6        0.0000 
     27 CA         12.8700    7.9000   53.9800 C.3       5 GLY6        0.0000 
     28 CA         11.0600    7.1800   54.8200 C.3       5 GLY6        0.0000 
     29 CA         10.6300    5.9200   55.5100 C.3       5 GLY6        0.0000 
     30 CA         10.2000    4.6500   56.1900 C.3       5 GLY6        0.0000 
     31 DU         13.2400    1.2300   51.7700 H         6 CUB7        0.0000 
     32 DU         11.4300    0.5100   52.6100 H         6 CUB7        0.0000 
     33 DU         11.8000    1.1100   53.9300 H         6 CUB7        0.0000 
     34 DU         10.7900    2.2500   55.4000 H         6 CUB7        0.0000 
     35 DU         10.3600    0.9800   56.0900 H         6 CUB7        0.0000 
     36 DU         11.5900    4.1000   56.0400 H         6 CUB7        0.0000 
     37 DU         11.1700    2.8400   56.7300 H         6 CUB7        0.0000 
     38 DU         10.7400    1.5800   57.4200 H         6 CUB7        0.0000 
@<TRIPOS>BOND
@<TRIPOS>SUBSTRUCTURE
     1 SER1        1 GROUP   
     2 ALA2        3 GROUP   
     3 LYS4        8 GROUP   
     4 PHE5       15 GROUP   
     5 GLY6       22 GROUP   
     6 CUB7       31 GROUP   
@<TRIPOS>SET

