#    Name: 6ngm_2_H4B
#    Modification time : Fri May 22 19:30:13 2020

@<TRIPOS>MOLECULE
6ngm_2_H4B
   17    18     1     0     1
SMALL
NO_CHARGES


@<TRIPOS>ATOM
      1 N1         14.3740    3.4700   48.4970 N.2       1 H4B802      0.0000 
      2 C2         14.4570    2.9560   49.7420 C.2       1 H4B802      0.0000 
      3 N2         13.4090    2.2730   50.2610 N.pl3     1 H4B802      0.0000 
      4 N3         15.5800    3.1240   50.4690 N.am      1 H4B802      0.0000 
      5 C4         16.6460    3.8040   49.9890 C.2       1 H4B802      0.0000 
      6 O4         17.6790    3.9410   50.6950 O.2       1 H4B802      0.0000 
      7 C4A        16.5710    4.3460   48.7160 C.2       1 H4B802      0.0000 
      8 C8A        15.4130    4.1560   47.9720 C.2       1 H4B802      0.0000 
      9 N5         17.6010    5.0480   48.1860 N.3       1 H4B802      0.0000 
     10 N8         15.3020    4.6660   46.7230 N.pl3     1 H4B802      0.0000 
     11 C6         17.2700    6.0000   47.1330 C.3       1 H4B802      0.0000 
     12 C7         16.4210    5.3230   46.0540 C.3       1 H4B802      0.0000 
     13 C9         18.5120    6.6500   46.5200 C.3       1 H4B802      0.0000 
     14 O9         19.4770    5.6660   46.1290 O.3       1 H4B802      0.0000 
     15 C10        18.1150    7.4700   45.2970 C.3       1 H4B802      0.0000 
     16 C11        19.3350    8.1180   44.6480 C.3       1 H4B802      0.0000 
     17 O10        17.1770    8.4700   45.7060 O.3       1 H4B802      0.0000 
@<TRIPOS>BOND
     1    1    2 2    
     2    1    8 1    
     3    2    3 1    
     4    2    4 1    
     5    4    5 am   
     6    5    6 2    
     7    5    7 1    
     8    7    8 2    
     9    7    9 1    
    10    8   10 1    
    11    9   11 1    
    12   10   12 1    
    13   11   12 1    
    14   11   13 1    
    15   13   14 1    
    16   13   15 1    
    17   15   16 1    
    18   15   17 1    
@<TRIPOS>SUBSTRUCTURE
     1 H4B802      1 GROUP   
@<TRIPOS>SET
ATOM$ORANGE STATIC     ATOMS   COLORGROUP SYSTEM 
18 2 2 5 5 7 7 8 8 11 11 12 12 13 13 15 15 16 \
16 

