#    Name: 6ngm_2_H4B_CAVITY_N1_6
#    Modification time : Fri May 22 19:30:14 2020

@<TRIPOS>MOLECULE
6ngm_2_H4B_CAVITY_N1_6
   19     0     5     0     0
SMALL
NO_CHARGES


@<TRIPOS>ATOM
      1 N          11.8500    1.7800   51.9200 N.am      1 ALA2        0.0000 
      2 N          11.2200    3.5100   54.7200 N.am      1 ALA2        0.0000 
      3 NZ         13.1900    0.5600   53.7800 N.4       2 LYS4        0.0000 
      4 NZ         11.3800   -0.1600   54.6200 N.4       2 LYS4        0.0000 
      5 NZ         13.5700    1.1500   55.1100 N.4       2 LYS4        0.0000 
      6 NZ         12.1800    1.7000   55.2600 N.4       2 LYS4        0.0000 
      7 CZ         13.6200    1.8200   53.1000 C.ar      3 PHE5        0.0000 
      8 CZ         12.2300    2.3700   53.2400 C.ar      3 PHE5        0.0000 
      9 CZ         11.6400    4.7800   54.0300 C.ar      3 PHE5        0.0000 
     10 CZ         12.6000    2.9600   54.5700 C.ar      3 PHE5        0.0000 
     11 CZ         13.4100    4.8200   55.2100 C.ar      3 PHE5        0.0000 
     12 CA         12.8100   -0.0400   52.4600 C.3       4 GLY6        0.0000 
     13 CA         11.0000   -0.7500   53.2900 C.3       4 GLY6        0.0000 
     14 CA          9.6100   -0.2000   53.4400 C.3       4 GLY6        0.0000 
     15 CA          9.9900    0.3900   54.7700 C.3       4 GLY6        0.0000 
     16 DU         13.2400    1.2300   51.7700 H         5 CUB7        0.0000 
     17 DU         11.4300    0.5100   52.6100 H         5 CUB7        0.0000 
     18 DU         11.8000    1.1100   53.9300 H         5 CUB7        0.0000 
     19 DU         10.7900    2.2500   55.4000 H         5 CUB7        0.0000 
@<TRIPOS>BOND
@<TRIPOS>SUBSTRUCTURE
     1 ALA2        1 GROUP   
     2 LYS4        3 GROUP   
     3 PHE5        7 GROUP   
     4 GLY6       12 GROUP   
     5 CUB7       16 GROUP   
@<TRIPOS>SET

