#    Name: 6ngm_2_H4B_CAVITY_N1_ALL
#    Modification time : Fri May 22 19:30:14 2020

@<TRIPOS>MOLECULE
6ngm_2_H4B_CAVITY_N1_ALL
   73     0     6     0     0
SMALL
NO_CHARGES


@<TRIPOS>ATOM
      1 OG         13.2500    8.4900   55.3100 O.3       1 SER1        0.0000 
      2 OG         12.8200    7.2200   56.0000 O.3       1 SER1        0.0000 
      3 N          11.8500    1.7800   51.9200 N.am      2 ALA2        0.0000 
      4 O           8.6000    0.9400   54.9100 O.2       2 ALA2        0.0000 
      5 N          11.2200    3.5100   54.7200 N.am      2 ALA2        0.0000 
      6 N           8.9800    1.5300   56.2400 N.am      2 ALA2        0.0000 
      7 N           8.5500    0.2700   56.9300 N.am      2 ALA2        0.0000 
      8 O           9.2400    6.4700   55.6500 O.2       2 ALA2        0.0000 
      9 N           9.7800    3.3900   56.8800 N.am      2 ALA2        0.0000 
     10 N           9.3500    2.1300   57.5600 N.am      2 ALA2        0.0000 
     11 N           8.9300    0.8600   58.2500 N.am      2 ALA2        0.0000 
     12 N           8.7700    4.5300   58.3500 N.am      2 ALA2        0.0000 
     13 N           7.3800    5.0800   58.5000 N.am      2 ALA2        0.0000 
     14 N           9.7300    2.7200   58.8900 N.am      2 ALA2        0.0000 
     15 N           8.3400    3.2700   59.0400 N.am      2 ALA2        0.0000 
     16 N           6.9500    3.8200   59.1900 N.am      2 ALA2        0.0000 
     17 N           7.9100    2.0000   59.7300 N.am      2 ALA2        0.0000 
     18 O           7.3300    4.4100   60.5100 O.2       2 ALA2        0.0000 
     19 NZ         13.1900    0.5600   53.7800 N.4       3 LYS4        0.0000 
     20 NZ         11.3800   -0.1600   54.6200 N.4       3 LYS4        0.0000 
     21 NZ          9.5600   -0.8700   55.4500 N.4       3 LYS4        0.0000 
     22 NZ         13.5700    1.1500   55.1100 N.4       3 LYS4        0.0000 
     23 NZ         12.1800    1.7000   55.2600 N.4       3 LYS4        0.0000 
     24 NZ         11.7500    0.4400   55.9400 N.4       3 LYS4        0.0000 
     25 NZ          9.9400   -0.2800   56.7800 N.4       3 LYS4        0.0000 
     26 CZ         13.6200    1.8200   53.1000 C.ar      4 PHE5        0.0000 
     27 CZ         12.2300    2.3700   53.2400 C.ar      4 PHE5        0.0000 
     28 CZ         11.6400    4.7800   54.0300 C.ar      4 PHE5        0.0000 
     29 CZ         12.6000    2.9600   54.5700 C.ar      4 PHE5        0.0000 
     30 CZ         12.4500    6.6300   54.6700 C.ar      4 PHE5        0.0000 
     31 CZ         13.4100    4.8200   55.2100 C.ar      4 PHE5        0.0000 
     32 CZ         12.0200    5.3700   55.3600 C.ar      4 PHE5        0.0000 
     33 CZ          9.5700    6.3900   58.9900 C.ar      4 PHE5        0.0000 
     34 CZ         10.5300    4.5800   59.5300 C.ar      4 PHE5        0.0000 
     35 CZ          9.1400    5.1200   59.6800 C.ar      4 PHE5        0.0000 
     36 CZ          7.7500    5.6700   59.8300 C.ar      4 PHE5        0.0000 
     37 CZ          8.7200    3.8600   60.3600 C.ar      4 PHE5        0.0000 
     38 CZ          8.2900    2.6000   61.0500 C.ar      4 PHE5        0.0000 
     39 CZ          6.9000    3.1500   61.2000 C.ar      4 PHE5        0.0000 
     40 CZ          8.1300    6.2700   61.1500 C.ar      4 PHE5        0.0000 
     41 CZ          7.7000    5.0000   61.8400 C.ar      4 PHE5        0.0000 
     42 CA         12.8100   -0.0400   52.4600 C.3       5 GLY6        0.0000 
     43 CA         11.0000   -0.7500   53.2900 C.3       5 GLY6        0.0000 
     44 CA          9.6100   -0.2000   53.4400 C.3       5 GLY6        0.0000 
     45 CA          9.9900    0.3900   54.7700 C.3       5 GLY6        0.0000 
     46 CA          8.1700   -0.3200   55.6000 C.3       5 GLY6        0.0000 
     47 CA         12.8700    7.9000   53.9800 C.3       5 GLY6        0.0000 
     48 CA         11.0600    7.1800   54.8200 C.3       5 GLY6        0.0000 
     49 CA         10.6300    5.9200   55.5100 C.3       5 GLY6        0.0000 
     50 CA         10.2000    4.6500   56.1900 C.3       5 GLY6        0.0000 
     51 CA         11.8600    9.0400   55.4600 C.3       5 GLY6        0.0000 
     52 CA         10.0500    8.3200   56.2900 C.3       5 GLY6        0.0000 
     53 CA          9.6200    7.0600   56.9800 C.3       5 GLY6        0.0000 
     54 CA          9.1900    5.8000   57.6700 C.3       5 GLY6        0.0000 
     55 CA          7.8000    6.3400   57.8100 C.3       5 GLY6        0.0000 
     56 CA         12.2400    9.6300   56.7800 C.3       5 GLY6        0.0000 
     57 CA         11.8100    8.3700   57.4700 C.3       5 GLY6        0.0000 
     58 CA         10.4200    8.9200   57.6200 C.3       5 GLY6        0.0000 
     59 CA          8.6100    8.2000   58.4500 C.3       5 GLY6        0.0000 
     60 CA          8.1800    6.9400   59.1400 C.3       5 GLY6        0.0000 
     61 DU         13.2400    1.2300   51.7700 H         6 CUB7        0.0000 
     62 DU         11.4300    0.5100   52.6100 H         6 CUB7        0.0000 
     63 DU         11.8000    1.1100   53.9300 H         6 CUB7        0.0000 
     64 DU         10.7900    2.2500   55.4000 H         6 CUB7        0.0000 
     65 DU         10.3600    0.9800   56.0900 H         6 CUB7        0.0000 
     66 DU         11.5900    4.1000   56.0400 H         6 CUB7        0.0000 
     67 DU         11.1700    2.8400   56.7300 H         6 CUB7        0.0000 
     68 DU         10.7400    1.5800   57.4200 H         6 CUB7        0.0000 
     69 DU         11.4300    7.7700   56.1400 H         6 CUB7        0.0000 
     70 DU         11.0100    6.5100   56.8300 H         6 CUB7        0.0000 
     71 DU         10.5800    5.2500   57.5200 H         6 CUB7        0.0000 
     72 DU         10.1500    3.9800   58.2000 H         6 CUB7        0.0000 
     73 DU         10.0000    7.6500   58.3000 H         6 CUB7        0.0000 
@<TRIPOS>BOND
@<TRIPOS>SUBSTRUCTURE
     1 SER1        1 GROUP   
     2 ALA2        3 GROUP   
     3 LYS4       19 GROUP   
     4 PHE5       26 GROUP   
     5 GLY6       42 GROUP   
     6 CUB7       61 GROUP   
@<TRIPOS>SET

