#    Name: 6a5z_1_9CR
#    Modification time : Fri May 22 19:24:25 2020

@<TRIPOS>MOLECULE
6a5z_1_9CR
   22    22     1     0     0
SMALL
NO_CHARGES


@<TRIPOS>ATOM
      1 C1        -12.7970   38.8710   14.4150 C.3       1 9CR501      0.0000 
      2 C2        -12.9660   38.1900   15.7820 C.3       1 9CR501      0.0000 
      3 C3        -12.2910   38.9610   16.9140 C.3       1 9CR501      0.0000 
      4 C4        -10.7900   38.9890   16.6640 C.3       1 9CR501      0.0000 
      5 C5        -10.4540   39.5740   15.2900 C.2       1 9CR501      0.0000 
      6 C6        -11.3050   39.0770   14.1030 C.2       1 9CR501      0.0000 
      7 C7        -11.1800   40.0480   12.9390 C.2       1 9CR501      0.0000 
      8 C8        -10.3180   40.0290   12.0340 C.2       1 9CR501      0.0000 
      9 C9         -9.5570   40.1750   11.0740 C.2       1 9CR501      0.0000 
     10 C10        -9.1500   41.3660   10.9200 C.2       1 9CR501      0.0000 
     11 C11        -8.7290   42.5070   10.9430 C.2       1 9CR501      0.0000 
     12 C12        -8.3230   43.6140   11.2030 C.2       1 9CR501      0.0000 
     13 C13        -7.8160   44.6980   11.6500 C.2       1 9CR501      0.0000 
     14 C14        -6.6660   45.2480   11.1830 C.2       1 9CR501      0.0000 
     15 C15        -5.9590   46.4850   11.6790 C.2       1 9CR501      0.0000 
     16 C16       -13.5710   40.1950   14.4850 C.3       1 9CR501      0.0000 
     17 C17       -13.3700   37.9470   13.3360 C.3       1 9CR501      0.0000 
     18 C18        -8.9700   39.3680   14.9970 C.3       1 9CR501      0.0000 
     19 C19        -9.2810   39.0190   10.1640 C.3       1 9CR501      0.0000 
     20 C20        -8.5910   45.2860   12.7830 C.3       1 9CR501      0.0000 
     21 O1         -4.8390   46.7700   11.2170 O.co2     1 9CR501      0.0000 
     22 O2         -6.3500   47.2440   12.5730 O.co2     1 9CR501      0.0000 
@<TRIPOS>BOND
     1    1    2 1    
     2    1    6 1    
     3    1   16 1    
     4    1   17 1    
     5    2    3 1    
     6    3    4 1    
     7    4    5 1    
     8    5    6 2    
     9    5   18 1    
    10    6    7 1    
    11    7    8 2    
    12    8    9 1    
    13    9   10 2    
    14    9   19 1    
    15   10   11 1    
    16   11   12 2    
    17   12   13 1    
    18   13   14 2    
    19   13   20 1    
    20   14   15 1    
    21   15   21 ar   
    22   15   22 ar   
@<TRIPOS>SUBSTRUCTURE
     1 9CR501      1 GROUP   
@<TRIPOS>SET

