#    Name: 6a5z_2_9CR
#    Modification time : Fri May 22 19:24:28 2020

@<TRIPOS>MOLECULE
6a5z_2_9CR
   22    22     1     0     0
SMALL
NO_CHARGES


@<TRIPOS>ATOM
      1 C1         14.0250    9.3110  -43.3820 C.3       1 9CR501      0.0000 
      2 C2         13.2660    9.3470  -44.7090 C.3       1 9CR501      0.0000 
      3 C3         13.9300   10.2440  -45.7490 C.3       1 9CR501      0.0000 
      4 C4         13.9590   11.6800  -45.2280 C.3       1 9CR501      0.0000 
      5 C5         14.5990   11.7780  -43.8350 C.2       1 9CR501      0.0000 
      6 C6         14.1300   10.7300  -42.7910 C.2       1 9CR501      0.0000 
      7 C7         15.0180   10.7130  -41.5370 C.2       1 9CR501      0.0000 
      8 C8         15.0680   11.6240  -40.6390 C.2       1 9CR501      0.0000 
      9 C9         15.2050   12.5050  -39.7170 C.2       1 9CR501      0.0000 
     10 C10        16.3180   13.1670  -39.5640 C.2       1 9CR501      0.0000 
     11 C11        17.4950   13.5350  -39.6380 C.2       1 9CR501      0.0000 
     12 C12        18.5050   14.1920  -39.9210 C.2       1 9CR501      0.0000 
     13 C13        19.5880   14.7070  -40.4020 C.2       1 9CR501      0.0000 
     14 C14        20.1450   15.8390  -39.9130 C.2       1 9CR501      0.0000 
     15 C15        21.3490   16.5560  -40.4470 C.2       1 9CR501      0.0000 
     16 C16        15.3840    8.6550  -43.6750 C.3       1 9CR501      0.0000 
     17 C17        13.2140    8.4460  -42.4220 C.3       1 9CR501      0.0000 
     18 C18        14.3970   13.2080  -43.3400 C.3       1 9CR501      0.0000 
     19 C19        14.0380   12.7730  -38.8220 C.3       1 9CR501      0.0000 
     20 C20        20.1070   13.9800  -41.5980 C.3       1 9CR501      0.0000 
     21 O1         22.0340   16.1190  -41.3950 O.co2     1 9CR501      0.0000 
     22 O2         21.6470   17.6840  -39.9640 O.co2     1 9CR501      0.0000 
@<TRIPOS>BOND
     1    1    2 1    
     2    1    6 1    
     3    1   16 1    
     4    1   17 1    
     5    2    3 1    
     6    3    4 1    
     7    4    5 1    
     8    5    6 2    
     9    5   18 1    
    10    6    7 1    
    11    7    8 2    
    12    8    9 1    
    13    9   10 2    
    14    9   19 1    
    15   10   11 1    
    16   11   12 2    
    17   12   13 1    
    18   13   14 2    
    19   13   20 1    
    20   14   15 1    
    21   15   21 ar   
    22   15   22 ar   
@<TRIPOS>SUBSTRUCTURE
     1 9CR501      1 GROUP   
@<TRIPOS>SET

