#    Name: 6cge_1_NAP
#    Modification time : Fri May 22 19:27:25 2020

@<TRIPOS>MOLECULE
6cge_1_NAP
   31    33     1     0     1
SMALL
NO_CHARGES


@<TRIPOS>ATOM
      1 PA        -13.0230  -13.2390    0.1840 P.3       1 NAP401      0.0000 
      2 O1A       -13.3190  -11.7580    0.2700 O.co2     1 NAP401      0.0000 
      3 O2A       -13.1720  -14.1120    1.4220 O.co2     1 NAP401      0.0000 
      4 O5B       -11.5340  -13.4040   -0.4570 O.3       1 NAP401      0.0000 
      5 C5B       -11.1100  -12.7960   -1.7010 C.3       1 NAP401      0.0000 
      6 C4B       -10.2000  -13.6880   -2.5660 C.3       1 NAP401      0.0000 
      7 O4B        -9.6150  -12.8930   -3.6280 O.3       1 NAP401      0.0000 
      8 C3B        -9.0340  -14.2990   -1.7870 C.3       1 NAP401      0.0000 
      9 O3B        -8.7170  -15.6510   -2.1490 O.3       1 NAP401      0.0000 
     10 C2B        -7.8950  -13.4090   -2.1930 C.3       1 NAP401      0.0000 
     11 O2B        -6.6340  -14.0310   -1.9300 O.3       1 NAP401      0.0000 
     12 C1B        -8.2130  -13.1380   -3.6420 C.3       1 NAP401      0.0000 
     13 N9A        -7.3260  -12.0610   -4.1450 N.pl3     1 NAP401      0.0000 
     14 C8A        -7.1320  -10.8130   -3.6690 C.2       1 NAP401      0.0000 
     15 N7A        -6.1700  -10.1660   -4.3920 N.2       1 NAP401      0.0000 
     16 C5A        -5.7460  -11.0000   -5.3590 C.ar      1 NAP401      0.0000 
     17 C6A        -4.7770  -10.9870   -6.4740 C.ar      1 NAP401      0.0000 
     18 N6A        -4.0160   -9.9210   -6.7560 N.pl3     1 NAP401      0.0000 
     19 N1A        -4.6600  -12.1090   -7.2240 N.ar      1 NAP401      0.0000 
     20 C2A        -5.3820  -13.2070   -6.9920 C.ar      1 NAP401      0.0000 
     21 N3A        -6.2800  -13.3120   -6.0120 N.ar      1 NAP401      0.0000 
     22 C4A        -6.5010  -12.2580   -5.1780 C.ar      1 NAP401      0.0000 
     23 O3        -13.8220  -13.9390   -1.0470 O.3       1 NAP401      0.0000 
     24 PN        -15.4020  -13.8960   -1.4000 P.3       1 NAP401      0.0000 
     25 O1N       -15.5190  -13.5830   -3.0000 O.3       1 NAP401      0.0000 
     26 O2N       -15.8920  -15.3080   -1.2270 O.co2     1 NAP401      0.0000 
     27 O5D       -15.9830  -12.7540   -0.5980 O.co2     1 NAP401      0.0000 
     28 P2B        -5.8580  -13.4290   -0.6440 P.3       1 NAP401      0.0000 
     29 O1X        -5.3260  -12.0940   -1.1280 O.co2     1 NAP401      0.0000 
     30 O2X        -6.9080  -13.2810    0.4280 O.co2     1 NAP401      0.0000 
     31 O3X        -4.7730  -14.4180   -0.3020 O.co2     1 NAP401      0.0000 
@<TRIPOS>BOND
     1    1    2 ar   
     2    1    3 ar   
     3    1    4 1    
     4    1   23 1    
     5    4    5 1    
     6    5    6 1    
     7    6    7 1    
     8    6    8 1    
     9    7   12 1    
    10    8    9 1    
    11    8   10 1    
    12   10   11 1    
    13   10   12 1    
    14   11   28 1    
    15   12   13 1    
    16   13   14 1    
    17   13   22 1    
    18   14   15 2    
    19   15   16 1    
    20   16   17 ar   
    21   16   22 ar   
    22   17   18 1    
    23   17   19 ar   
    24   19   20 ar   
    25   20   21 ar   
    26   21   22 ar   
    27   23   24 1    
    28   24   25 1    
    29   24   26 ar   
    30   24   27 ar   
    31   28   29 ar   
    32   28   30 ar   
    33   28   31 ar   
@<TRIPOS>SUBSTRUCTURE
     1 NAP401      1 GROUP   
@<TRIPOS>SET
ATOM$ORANGE STATIC     ATOMS   COLORGROUP SYSTEM 
20 5 5 6 6 8 8 10 10 12 12 14 14 16 16 17 17 20 \
20 22 22 

