#    Name: 6cge_2_NAP
#    Modification time : Fri May 22 19:27:30 2020

@<TRIPOS>MOLECULE
6cge_2_NAP
   31    33     1     0     1
SMALL
NO_CHARGES


@<TRIPOS>ATOM
      1 PA        -11.8990   15.4310  -25.0970 P.3       1 NAP401      0.0000 
      2 O1A       -11.2740   14.4170  -26.0400 O.co2     1 NAP401      0.0000 
      3 O2A       -11.8950   16.9100  -25.4590 O.co2     1 NAP401      0.0000 
      4 O5B       -11.1320   15.2110  -23.6700 O.3       1 NAP401      0.0000 
      5 C5B       -11.5200   15.9140  -22.4840 C.3       1 NAP401      0.0000 
      6 C4B       -10.3640   16.4850  -21.6720 C.3       1 NAP401      0.0000 
      7 O4B        -9.7930   15.4410  -20.8590 O.3       1 NAP401      0.0000 
      8 C3B        -9.2080   17.0950  -22.4670 C.3       1 NAP401      0.0000 
      9 O3B        -8.9470   18.4840  -22.1630 O.3       1 NAP401      0.0000 
     10 C2B        -8.0510   16.2240  -22.0250 C.3       1 NAP401      0.0000 
     11 O2B        -6.8060   16.9010  -22.1110 O.3       1 NAP401      0.0000 
     12 C1B        -8.4680   15.8820  -20.6130 C.3       1 NAP401      0.0000 
     13 N9A        -7.5150   14.9650  -19.9380 N.pl3     1 NAP401      0.0000 
     14 C8A        -7.0470   13.7900  -20.3710 C.2       1 NAP401      0.0000 
     15 N7A        -6.1480   13.2900  -19.4940 N.2       1 NAP401      0.0000 
     16 C5A        -6.0200   14.1460  -18.4700 C.ar      1 NAP401      0.0000 
     17 C6A        -5.2430   14.2180  -17.2110 C.ar      1 NAP401      0.0000 
     18 N6A        -4.3830   13.2420  -16.8350 N.pl3     1 NAP401      0.0000 
     19 N1A        -5.4190   15.3190  -16.4350 N.ar      1 NAP401      0.0000 
     20 C2A        -6.2650   16.3180  -16.7800 C.ar      1 NAP401      0.0000 
     21 N3A        -7.0030   16.3130  -17.9060 N.ar      1 NAP401      0.0000 
     22 C4A        -6.9210   15.2670  -18.7730 C.ar      1 NAP401      0.0000 
     23 O3        -13.4430   15.0010  -24.8100 O.3       1 NAP401      0.0000 
     24 PN        -14.7360   15.9610  -25.0310 P.3       1 NAP401      0.0000 
     25 O1N       -14.6180   16.4830  -26.5620 O.3       1 NAP401      0.0000 
     26 O2N       -15.9630   15.0760  -24.9330 O.co2     1 NAP401      0.0000 
     27 O5D       -14.6250   17.1730  -24.1250 O.co2     1 NAP401      0.0000 
     28 P2B        -5.7860   16.6010  -23.3440 P.3       1 NAP401      0.0000 
     29 O1X        -6.5510   16.1610  -24.5930 O.co2     1 NAP401      0.0000 
     30 O2X        -4.8560   15.5180  -22.8100 O.co2     1 NAP401      0.0000 
     31 O3X        -5.2480   18.0080  -23.4070 O.co2     1 NAP401      0.0000 
@<TRIPOS>BOND
     1    1    2 ar   
     2    1    3 ar   
     3    1    4 1    
     4    1   23 1    
     5    4    5 1    
     6    5    6 1    
     7    6    7 1    
     8    6    8 1    
     9    7   12 1    
    10    8    9 1    
    11    8   10 1    
    12   10   11 1    
    13   10   12 1    
    14   11   28 1    
    15   12   13 1    
    16   13   14 1    
    17   13   22 1    
    18   14   15 2    
    19   15   16 1    
    20   16   17 ar   
    21   16   22 ar   
    22   17   18 1    
    23   17   19 ar   
    24   19   20 ar   
    25   20   21 ar   
    26   21   22 ar   
    27   23   24 1    
    28   24   25 1    
    29   24   26 ar   
    30   24   27 ar   
    31   28   29 ar   
    32   28   30 ar   
    33   28   31 ar   
@<TRIPOS>SUBSTRUCTURE
     1 NAP401      1 GROUP   
@<TRIPOS>SET
ATOM$ORANGE STATIC     ATOMS   COLORGROUP SYSTEM 
20 5 5 6 6 8 8 10 10 12 12 14 14 16 16 17 17 20 \
20 22 22 

