#    Name: 6cge_1_NAP_CAVITY_N1_8
#    Modification time : Fri May 22 19:27:27 2020

@<TRIPOS>MOLECULE
6cge_1_NAP_CAVITY_N1_8
   84     0     6     0     0
SMALL
NO_CHARGES


@<TRIPOS>ATOM
      1 OG        -14.2300  -14.5400    2.1100 O.3       1 SER1        0.0000 
      2 OG        -13.1200  -14.3800    1.1200 O.3       1 SER1        0.0000 
      3 OG        -12.0100  -14.2200    0.1200 O.3       1 SER1        0.0000 
      4 OG        -15.1700  -13.8300    1.1800 O.3       1 SER1        0.0000 
      5 OG        -14.0600  -13.6700    0.1900 O.3       1 SER1        0.0000 
      6 OG        -17.2200  -13.2800    1.2400 O.3       1 SER1        0.0000 
      7 OG        -16.1000  -13.1200    0.2500 O.3       1 SER1        0.0000 
      8 OG        -13.6800  -12.3600    0.8200 O.3       1 SER1        0.0000 
      9 OG        -15.7300  -11.8100    0.8800 O.3       1 SER1        0.0000 
     10 OG        -17.7800  -11.2500    0.9400 O.3       1 SER1        0.0000 
     11 OG        -18.5300   -9.6600   -1.9100 O.3       1 SER1        0.0000 
     12 OG        -17.4200   -9.5000   -2.9000 O.3       1 SER1        0.0000 
     13 OG        -16.3100   -9.3400   -3.9000 O.3       1 SER1        0.0000 
     14 OG        -19.4700   -8.9500   -2.8400 O.3       1 SER1        0.0000 
     15 OG        -16.4700  -10.6600    2.5000 O.3       1 SER1        0.0000 
     16 OG        -17.2300   -9.0700   -0.3500 O.3       1 SER1        0.0000 
     17 OG        -16.1100   -8.9100   -1.3400 O.3       1 SER1        0.0000 
     18 OG        -18.1600   -8.3500   -1.2800 O.3       1 SER1        0.0000 
     19 OG        -15.9400   -8.0300   -3.2700 O.3       1 SER1        0.0000 
     20 O         -16.4700  -14.4200   -0.3800 O.2       2 ALA2        0.0000 
     21 O         -15.3600  -14.2600   -1.3800 O.2       2 ALA2        0.0000 
     22 N         -15.1800  -13.3800   -3.3000 N.am      2 ALA2        0.0000 
     23 N         -12.7600  -12.6300   -2.7300 N.am      2 ALA2        0.0000 
     24 N         -13.7000  -11.9100   -3.6600 N.am      2 ALA2        0.0000 
     25 N         -14.6300  -11.2000   -4.5900 N.am      2 ALA2        0.0000 
     26 N         -18.7300  -10.0900   -4.4700 N.am      2 ALA2        0.0000 
     27 N         -13.5000  -11.4800   -1.1100 N.am      2 ALA2        0.0000 
     28 N         -12.3900  -11.3200   -2.1000 N.am      2 ALA2        0.0000 
     29 N         -14.4400  -10.7700   -2.0400 N.am      2 ALA2        0.0000 
     30 N         -13.3300  -10.6000   -3.0300 N.am      2 ALA2        0.0000 
     31 N         -20.7600   -9.9900    0.0700 N.am      2 ALA2        0.0000 
     32 N         -19.6500   -9.8300   -0.9200 N.am      2 ALA2        0.0000 
     33 N         -20.5800   -9.1100   -1.8500 N.am      2 ALA2        0.0000 
     34 N         -13.1300  -10.1700   -0.4700 N.am      2 ALA2        0.0000 
     35 N         -18.5200  -10.1100    2.5700 N.am      2 ALA2        0.0000 
     36 N         -14.0700   -9.4600   -1.4000 N.am      2 ALA2        0.0000 
     37 O         -19.4500   -9.3900    1.6400 O.2       2 ALA2        0.0000 
     38 OD1       -15.5700  -10.4800   -5.5200 O.co2     3 ASP3        0.0000 
     39 OD1       -15.2000   -9.1700   -4.8900 O.co2     3 ASP3        0.0000 
     40 CZ        -15.0000   -8.7400   -2.3300 C.ar      4 PHE5        0.0000 
     41 CZ        -15.7400   -7.6000   -0.7100 C.ar      4 PHE5        0.0000 
     42 CZ        -14.6300   -7.4300   -1.7000 C.ar      4 PHE5        0.0000 
     43 CA        -13.4900  -15.6900    0.4800 C.3       5 GLY6        0.0000 
     44 CA        -15.5400  -15.1400    0.5500 C.3       5 GLY6        0.0000 
     45 CA        -14.4300  -14.9800   -0.4500 C.3       5 GLY6        0.0000 
     46 CA        -17.5900  -14.5900    0.6100 C.3       5 GLY6        0.0000 
     47 CA        -18.5200  -13.8700   -0.3200 C.3       5 GLY6        0.0000 
     48 CA        -17.4100  -13.7100   -1.3100 C.3       5 GLY6        0.0000 
     49 CA        -16.3000  -13.5500   -2.3100 C.3       5 GLY6        0.0000 
     50 CA        -17.2300  -12.8300   -3.2400 C.3       5 GLY6        0.0000 
     51 CA        -16.1200  -12.6700   -4.2300 C.3       5 GLY6        0.0000 
     52 CA        -19.2800  -12.2800   -3.1800 C.3       5 GLY6        0.0000 
     53 CA        -18.1600  -12.1200   -4.1700 C.3       5 GLY6        0.0000 
     54 CA        -18.1500  -12.5600    0.3100 C.3       5 GLY6        0.0000 
     55 CA        -19.0800  -11.8500   -0.6200 C.3       5 GLY6        0.0000 
     56 CA        -17.9700  -11.6900   -1.6100 C.3       5 GLY6        0.0000 
     57 CA        -20.0200  -11.1300   -1.5500 C.3       5 GLY6        0.0000 
     58 CA        -17.7900  -10.8100   -3.5400 C.3       5 GLY6        0.0000 
     59 CA        -16.6800  -10.6500   -4.5300 C.3       5 GLY6        0.0000 
     60 CA        -19.8400  -10.2600   -3.4700 C.3       5 GLY6        0.0000 
     61 CA        -19.8300  -10.7000    1.0000 C.3       5 GLY6        0.0000 
     62 CA        -18.7100  -10.5400    0.0100 C.3       5 GLY6        0.0000 
     63 CA        -14.2600   -9.8900   -3.9600 C.3       5 GLY6        0.0000 
     64 CA        -13.8900   -8.5800   -3.3300 C.3       5 GLY6        0.0000 
     65 CA        -14.8200   -7.8700   -4.2600 C.3       5 GLY6        0.0000 
     66 DU        -12.9400  -13.5000   -0.8100 H         6 CUB7        0.0000 
     67 DU        -14.9900  -12.9500   -0.7400 H         6 CUB7        0.0000 
     68 DU        -13.8800  -12.7900   -1.7400 H         6 CUB7        0.0000 
     69 DU        -17.0400  -12.4000   -0.6800 H         6 CUB7        0.0000 
     70 DU        -15.9200  -12.2400   -1.6800 H         6 CUB7        0.0000 
     71 DU        -14.8100  -12.0700   -2.6700 H         6 CUB7        0.0000 
     72 DU        -16.8600  -11.5200   -2.6100 H         6 CUB7        0.0000 
     73 DU        -15.7500  -11.3600   -3.6000 H         6 CUB7        0.0000 
     74 DU        -18.9100  -10.9700   -2.5400 H         6 CUB7        0.0000 
     75 DU        -12.5700  -12.2000   -0.1700 H         6 CUB7        0.0000 
     76 DU        -14.6200  -11.6400   -0.1100 H         6 CUB7        0.0000 
     77 DU        -16.6700  -11.0900   -0.0500 H         6 CUB7        0.0000 
     78 DU        -17.6000  -10.3800   -0.9800 H         6 CUB7        0.0000 
     79 DU        -16.4900  -10.2100   -1.9700 H         6 CUB7        0.0000 
     80 DU        -15.3700  -10.0500   -2.9700 H         6 CUB7        0.0000 
     81 DU        -17.4100   -9.9500    1.5700 H         6 CUB7        0.0000 
     82 DU        -16.2900   -9.7800    0.5800 H         6 CUB7        0.0000 
     83 DU        -15.1800   -9.6200   -0.4100 H         6 CUB7        0.0000 
     84 DU        -18.3400   -9.2300    0.6400 H         6 CUB7        0.0000 
@<TRIPOS>BOND
@<TRIPOS>SUBSTRUCTURE
     1 SER1        1 GROUP   
     2 ALA2       20 GROUP   
     3 ASP3       38 GROUP   
     4 PHE5       40 GROUP   
     5 GLY6       43 GROUP   
     6 CUB7       66 GROUP   
@<TRIPOS>SET

