#    Name: 6hz8_10_GDP_CAVITY_N1_4
#    Modification time : Fri May 22 19:40:08 2020

@<TRIPOS>MOLECULE
6hz8_10_GDP_CAVITY_N1_4
   79     0     7     0     0
SMALL
NO_CHARGES


@<TRIPOS>ATOM
      1 OG        181.8700  109.9000  149.0500 O.3       1 SER1        0.0000 
      2 OG        182.2000  110.1500  147.6100 O.3       1 SER1        0.0000 
      3 OG        184.3500  109.3200  146.4000 O.3       1 SER1        0.0000 
      4 OG        183.2700  110.2500  149.4400 O.3       1 SER1        0.0000 
      5 OG        183.6100  110.5000  148.0000 O.3       1 SER1        0.0000 
      6 OG        183.9500  110.7500  146.5600 O.3       1 SER1        0.0000 
      7 OG        184.2800  111.0100  145.1200 O.3       1 SER1        0.0000 
      8 OG        184.6200  111.2600  143.6800 O.3       1 SER1        0.0000 
      9 OG        183.8900  112.4400  145.2800 O.3       1 SER1        0.0000 
     10 OG        184.2200  112.7000  143.8400 O.3       1 SER1        0.0000 
     11 OG        184.5600  112.9500  142.4000 O.3       1 SER1        0.0000 
     12 OG        183.8200  114.1300  144.0000 O.3       1 SER1        0.0000 
     13 OG        185.4200  109.4100  148.2300 O.3       1 SER1        0.0000 
     14 OG        184.6800  110.5900  149.8300 O.3       1 SER1        0.0000 
     15 OG        185.0200  110.8500  148.3900 O.3       1 SER1        0.0000 
     16 OG        185.6900  111.3500  145.5100 O.3       1 SER1        0.0000 
     17 OG        186.8200  109.7500  148.6200 O.3       1 SER1        0.0000 
     18 O         179.3300  111.1500  145.5500 O.2       2 ALA2        0.0000 
     19 O         181.8100  110.5700  142.9000 O.2       2 ALA2        0.0000 
     20 O         181.0700  111.7500  144.5000 O.2       2 ALA2        0.0000 
     21 O         183.2800  109.2200  144.5700 O.2       2 ALA2        0.0000 
     22 O         183.6100  109.4800  143.1300 O.2       2 ALA2        0.0000 
     23 N         181.5300  109.6500  150.4900 N.am      2 ALA2        0.0000 
     24 O         182.8800  110.6600  144.7300 O.2       2 ALA2        0.0000 
     25 N         182.9400  109.9900  150.8800 N.am      2 ALA2        0.0000 
     26 N         182.5400  111.4300  151.0400 N.am      2 ALA2        0.0000 
     27 N         183.9500  111.7800  151.4300 N.am      2 ALA2        0.0000 
     28 N         185.7500  110.6800  151.6600 N.am      2 ALA2        0.0000 
     29 OD1       180.3400  111.9100  141.2300 O.co2     3 ASP3        0.0000 
     30 OD1       180.6700  113.1900  144.6600 O.co2     3 ASP3        0.0000 
     31 OD1       183.2100  110.9100  143.2900 O.co2     3 ASP3        0.0000 
     32 OD1       182.0800  113.5300  145.0500 O.co2     3 ASP3        0.0000 
     33 OD1       182.4200  113.7900  143.6100 O.co2     3 ASP3        0.0000 
     34 OD1       183.5500  112.1900  146.7200 O.co2     3 ASP3        0.0000 
     35 OD1       183.1500  113.6300  146.8800 O.co2     3 ASP3        0.0000 
     36 OD1       183.4900  113.8800  145.4400 O.co2     3 ASP3        0.0000 
     37 NZ        181.3500  113.7000  141.7800 N.4       4 LYS4        0.0000 
     38 NZ        181.4100  113.0300  147.9300 N.4       4 LYS4        0.0000 
     39 NZ        181.7400  113.2800  146.4900 N.4       4 LYS4        0.0000 
     40 NZ        182.7500  114.0400  142.1700 N.4       4 LYS4        0.0000 
     41 NZ        183.0900  114.3000  140.7300 N.4       4 LYS4        0.0000 
     42 NZ        182.8100  113.3700  148.3200 N.4       4 LYS4        0.0000 
     43 NZ        184.1600  114.3900  142.5600 N.4       4 LYS4        0.0000 
     44 NZ        185.3500  111.1000  146.9500 N.4       4 LYS4        0.0000 
     45 NZ        184.2800  112.0300  149.9900 N.4       4 LYS4        0.0000 
     46 NZ        184.6200  112.2800  148.5500 N.4       4 LYS4        0.0000 
     47 NZ        184.9600  112.5400  147.1100 N.4       4 LYS4        0.0000 
     48 NZ        186.0900  110.9400  150.2200 N.4       4 LYS4        0.0000 
     49 NZ        186.4200  111.1900  148.7800 N.4       4 LYS4        0.0000 
     50 NZ        186.7600  111.4500  147.3400 N.4       4 LYS4        0.0000 
     51 NZ        187.4900  111.2800  150.6100 N.4       4 LYS4        0.0000 
     52 CZ        182.4800  113.1200  149.7600 C.ar      5 PHE5        0.0000 
     53 CA        179.2700  112.8400  144.2700 C.3       6 GLY6        0.0000 
     54 CA        179.6000  113.1000  142.8300 C.3       6 GLY6        0.0000 
     55 CA        180.8000  109.8100  147.2200 C.3       6 GLY6        0.0000 
     56 CA        180.4000  111.2400  147.3800 C.3       6 GLY6        0.0000 
     57 CA        181.4100  112.0000  143.0600 C.3       6 GLY6        0.0000 
     58 CA        181.7500  112.2600  141.6200 C.3       6 GLY6        0.0000 
     59 CA        181.0100  113.4400  143.2200 C.3       6 GLY6        0.0000 
     60 CA        182.9400  108.9700  146.0100 C.3       6 GLY6        0.0000 
     61 CA        182.5400  110.4100  146.1700 C.3       6 GLY6        0.0000 
     62 CA        183.5500  111.1700  141.8500 C.3       6 GLY6        0.0000 
     63 CA        183.1500  112.6000  142.0100 C.3       6 GLY6        0.0000 
     64 CA        183.4900  112.8600  140.5700 C.3       6 GLY6        0.0000 
     65 CA        184.6800  109.5700  144.9600 C.3       6 GLY6        0.0000 
     66 CA        184.9600  111.5100  142.2400 C.3       6 GLY6        0.0000 
     67 CA        185.7500  109.6600  146.7900 C.3       6 GLY6        0.0000 
     68 CA        186.0900  109.9200  145.3500 C.3       6 GLY6        0.0000 
     69 CA        183.8800  113.4700  150.1500 C.3       6 GLY6        0.0000 
     70 CA        187.1600  110.0100  147.1800 C.3       6 GLY6        0.0000 
     71 DU        180.3400  112.9300  146.1000 H         7 CUB7        0.0000 
     72 DU        181.4700  111.3400  149.2100 H         7 CUB7        0.0000 
     73 DU        181.8100  111.5900  147.7700 H         7 CUB7        0.0000 
     74 DU        182.1400  111.8400  146.3300 H         7 CUB7        0.0000 
     75 DU        182.4800  112.1000  144.8900 H         7 CUB7        0.0000 
     76 DU        182.8200  112.3500  143.4500 H         7 CUB7        0.0000 
     77 DU        181.0700  112.7700  149.3700 H         7 CUB7        0.0000 
     78 DU        182.8800  111.6800  149.6000 H         7 CUB7        0.0000 
     79 DU        183.2100  111.9400  148.1600 H         7 CUB7        0.0000 
@<TRIPOS>BOND
@<TRIPOS>SUBSTRUCTURE
     1 SER1        1 GROUP   
     2 ALA2       18 GROUP   
     3 ASP3       29 GROUP   
     4 LYS4       37 GROUP   
     5 PHE5       52 GROUP   
     6 GLY6       53 GROUP   
     7 CUB7       71 GROUP   
@<TRIPOS>SET

