#    Name: 6hz8_6_GDP
#    Modification time : Fri May 22 19:39:48 2020

@<TRIPOS>MOLECULE
6hz8_6_GDP
   40    42     1     0     1
SMALL
NO_CHARGES


@<TRIPOS>ATOM
      1 PB        103.7550   93.9150  140.5410 P.3       1 GDP1001     0.0000 
      2 O1B       104.2550   93.9000  139.1500 O.co2     1 GDP1001     0.0000 
      3 O2B       104.1850   95.1790  141.1770 O.co2     1 GDP1001     0.0000 
      4 O3B       102.2790   93.8470  140.5500 O.co2     1 GDP1001     0.0000 
      5 O3A       104.3430   92.6340  141.3170 O.3       1 GDP1001     0.0000 
      6 PA        104.7230   92.7190  142.8680 P.3       1 GDP1001     0.0000 
      7 O1A       105.4420   93.9820  143.1290 O.co2     1 GDP1001     0.0000 
      8 O2A       103.4900   92.6640  143.6760 O.co2     1 GDP1001     0.0000 
      9 O5'       105.6810   91.4840  143.2610 O.3       1 GDP1001     0.0000 
     10 C5'       106.1940   90.6300  142.2380 C.3       1 GDP1001     0.0000 
     11 C4'       107.0010   89.4270  142.7760 C.3       1 GDP1001     0.0000 
     12 O4'       108.2360   89.9800  143.3630 O.3       1 GDP1001     0.0000 
     13 C3'       106.3330   88.6650  143.9160 C.3       1 GDP1001     0.0000 
     14 O3'       106.7420   87.2950  143.8800 O.3       1 GDP1001     0.0000 
     15 C2'       106.9510   89.3490  145.0930 C.3       1 GDP1001     0.0000 
     16 O2'       106.7870   88.5800  146.2760 O.3       1 GDP1001     0.0000 
     17 C1'       108.3900   89.3510  144.6480 C.3       1 GDP1001     0.0000 
     18 N9        109.2410   90.1540  145.5590 N.pl3     1 GDP1001     0.0000 
     19 C8        109.2740   91.4790  145.4710 C.2       1 GDP1001     0.0000 
     20 N7        110.1000   91.9450  146.3980 N.2       1 GDP1001     0.0000 
     21 C5        110.5720   90.9060  147.0710 C.2       1 GDP1001     0.0000 
     22 C6        111.4220   90.8530  148.0860 C.2       1 GDP1001     0.0000 
     23 O6        111.9010   91.8840  148.5490 O.2       1 GDP1001     0.0000 
     24 N1        111.7680   89.6180  148.6250 N.am      1 GDP1001     0.0000 
     25 C2        111.1980   88.4740  148.0700 C.2       1 GDP1001     0.0000 
     26 N2        111.4910   87.2720  148.5420 N.pl3     1 GDP1001     0.0000 
     27 N3        110.3420   88.5940  147.0530 N.2       1 GDP1001     0.0000 
     28 C4        110.0440   89.7960  146.5520 C.2       1 GDP1001     0.0000 
     29 H5'       106.8480   91.2220  141.5990 H         1 GDP1001     0.0000 
     30 H5''      105.3510   90.2660  141.6580 H         1 GDP1001     0.0000 
     31 H4'       107.1620   88.7380  141.9520 H         1 GDP1001     0.0000 
     32 H3'       105.2500   88.7180  143.8980 H         1 GDP1001     0.0000 
     33 HO3'      106.3990   86.8740  143.0440 H         1 GDP1001     0.0000 
     34 H2'       106.5950   90.3620  145.1680 H         1 GDP1001     0.0000 
     35 HO2'      107.1490   87.6620  146.1130 H         1 GDP1001     0.0000 
     36 H1'       108.7700   88.3370  144.5360 H         1 GDP1001     0.0000 
     37 H8        108.7280   92.0870  144.7520 H         1 GDP1001     0.0000 
     38 HN1       112.4080   89.5590  149.3900 H         1 GDP1001     0.0000 
     39 HN21      112.1320   87.1770  149.3020 H         1 GDP1001     0.0000 
     40 HN22      111.0730   86.4650  148.1260 H         1 GDP1001     0.0000 
@<TRIPOS>BOND
     1    1    2 ar   
     2    1    3 ar   
     3    1    4 ar   
     4    1    5 1    
     5    5    6 1    
     6    6    7 ar   
     7    6    8 ar   
     8    6    9 1    
     9    9   10 1    
    10   10   11 1    
    11   10   29 1    
    12   10   30 1    
    13   11   12 1    
    14   11   13 1    
    15   11   31 1    
    16   12   17 1    
    17   13   14 1    
    18   13   15 1    
    19   13   32 1    
    20   14   33 1    
    21   15   16 1    
    22   15   17 1    
    23   15   34 1    
    24   16   35 1    
    25   17   18 1    
    26   17   36 1    
    27   18   19 1    
    28   18   28 1    
    29   19   20 2    
    30   19   37 1    
    31   20   21 1    
    32   21   22 1    
    33   21   28 2    
    34   22   23 2    
    35   22   24 am   
    36   24   25 1    
    37   24   38 1    
    38   25   26 1    
    39   25   27 2    
    40   26   39 1    
    41   26   40 1    
    42   27   28 1    
@<TRIPOS>SUBSTRUCTURE
     1 GDP1001     1 GROUP   
@<TRIPOS>SET
ATOM$ORANGE STATIC     ATOMS   COLORGROUP SYSTEM 
20 10 10 11 11 13 13 15 15 17 17 19 19 21 21 22 22 25 \
25 28 28 

