#    Name: 6hz8_11_GDP
#    Modification time : Fri May 22 19:40:14 2020

@<TRIPOS>MOLECULE
6hz8_11_GDP
   40    42     1     0     1
SMALL
NO_CHARGES


@<TRIPOS>ATOM
      1 PB        161.4520  134.6010  158.4020 P.3       1 GDP1001     0.0000 
      2 O1B       160.9560  135.8450  157.7780 O.co2     1 GDP1001     0.0000 
      3 O2B       160.7210  133.4400  157.8510 O.co2     1 GDP1001     0.0000 
      4 O3B       162.8980  134.4530  158.1350 O.co2     1 GDP1001     0.0000 
      5 O3A       161.2130  134.6670  159.9800 O.3       1 GDP1001     0.0000 
      6 PA        161.5510  133.3670  160.8500 P.3       1 GDP1001     0.0000 
      7 O1A       160.8530  132.2000  160.2630 O.co2     1 GDP1001     0.0000 
      8 O2A       163.0130  133.1260  160.8400 O.co2     1 GDP1001     0.0000 
      9 O5'       161.0490  133.5910  162.3730 O.3       1 GDP1001     0.0000 
     10 C5'       161.8320  134.3490  163.3010 C.3       1 GDP1001     0.0000 
     11 C4'       160.9330  134.8620  164.4590 C.3       1 GDP1001     0.0000 
     12 O4'       160.2370  133.7540  165.1480 O.3       1 GDP1001     0.0000 
     13 C3'       161.7210  135.5320  165.5870 C.3       1 GDP1001     0.0000 
     14 O3'       160.8290  136.3500  166.3850 O.3       1 GDP1001     0.0000 
     15 C2'       162.1800  134.3140  166.3540 C.3       1 GDP1001     0.0000 
     16 O2'       162.7330  134.6610  167.6370 O.3       1 GDP1001     0.0000 
     17 C1'       160.8520  133.6040  166.4860 C.3       1 GDP1001     0.0000 
     18 N9        161.0220  132.2040  166.9110 N.pl3     1 GDP1001     0.0000 
     19 C8        160.9750  131.1280  166.1380 C.2       1 GDP1001     0.0000 
     20 N7        161.1820  130.0660  166.9080 N.2       1 GDP1001     0.0000 
     21 C5        161.3800  130.4940  168.1510 C.2       1 GDP1001     0.0000 
     22 C6        161.6380  129.8320  169.2710 C.2       1 GDP1001     0.0000 
     23 O6        161.7180  128.6070  169.2630 O.2       1 GDP1001     0.0000 
     24 N1        161.8020  130.5350  170.4650 N.am      1 GDP1001     0.0000 
     25 C2        161.6960  131.9210  170.4390 C.2       1 GDP1001     0.0000 
     26 N2        161.8530  132.6270  171.5510 N.pl3     1 GDP1001     0.0000 
     27 N3        161.4410  132.5350  169.2790 N.2       1 GDP1001     0.0000 
     28 C4        161.2810  131.8220  168.1540 C.2       1 GDP1001     0.0000 
     29 H5'       162.2430  135.2100  162.7760 H         1 GDP1001     0.0000 
     30 H5''      162.6500  133.7210  163.6170 H         1 GDP1001     0.0000 
     31 H4'       160.2500  135.5770  164.0020 H         1 GDP1001     0.0000 
     32 H3'       162.5440  136.1440  165.2220 H         1 GDP1001     0.0000 
     33 HO3'      159.8930  135.9960  166.3830 H         1 GDP1001     0.0000 
     34 H2'       162.8720  133.7160  165.7980 H         1 GDP1001     0.0000 
     35 HO2'      162.0730  135.2070  168.1530 H         1 GDP1001     0.0000 
     36 H1'       160.2450  134.1190  167.2190 H         1 GDP1001     0.0000 
     37 H8        160.7710  131.1180  165.0700 H         1 GDP1001     0.0000 
     38 HN1       161.9930  130.0550  171.3210 H         1 GDP1001     0.0000 
     39 HN21      162.0560  132.1580  172.4110 H         1 GDP1001     0.0000 
     40 HN22      161.7730  133.6220  171.5190 H         1 GDP1001     0.0000 
@<TRIPOS>BOND
     1    1    2 ar   
     2    1    3 ar   
     3    1    4 ar   
     4    1    5 1    
     5    5    6 1    
     6    6    7 ar   
     7    6    8 ar   
     8    6    9 1    
     9    9   10 1    
    10   10   11 1    
    11   10   29 1    
    12   10   30 1    
    13   11   12 1    
    14   11   13 1    
    15   11   31 1    
    16   12   17 1    
    17   13   14 1    
    18   13   15 1    
    19   13   32 1    
    20   14   33 1    
    21   15   16 1    
    22   15   17 1    
    23   15   34 1    
    24   16   35 1    
    25   17   18 1    
    26   17   36 1    
    27   18   19 1    
    28   18   28 1    
    29   19   20 2    
    30   19   37 1    
    31   20   21 1    
    32   21   22 1    
    33   21   28 2    
    34   22   23 2    
    35   22   24 am   
    36   24   25 1    
    37   24   38 1    
    38   25   26 1    
    39   25   27 2    
    40   26   39 1    
    41   26   40 1    
    42   27   28 1    
@<TRIPOS>SUBSTRUCTURE
     1 GDP1001     1 GROUP   
@<TRIPOS>SET
ATOM$ORANGE STATIC     ATOMS   COLORGROUP SYSTEM 
20 10 10 11 11 13 13 15 15 17 17 19 19 21 21 22 22 25 \
25 28 28 

