#    Name: 6hz8_5_GDP_CAVITY_N1_4
#    Modification time : Fri May 22 19:39:42 2020

@<TRIPOS>MOLECULE
6hz8_5_GDP_CAVITY_N1_4
  129     0     7     0     0
SMALL
NO_CHARGES


@<TRIPOS>ATOM
      1 OG         89.0200  117.4000  159.9300 O.3       1 SER1        0.0000 
      2 OG         88.6200  118.8300  160.0900 O.3       1 SER1        0.0000 
      3 OG         88.9600  119.0900  158.6500 O.3       1 SER1        0.0000 
      4 OG         91.5600  116.1400  163.4300 O.3       1 SER1        0.0000 
      5 OG         91.9000  116.4000  161.9900 O.3       1 SER1        0.0000 
      6 OG         92.2300  116.6500  160.5500 O.3       1 SER1        0.0000 
      7 OG         90.8200  117.3300  165.0300 O.3       1 SER1        0.0000 
      8 OG         91.1600  117.5800  163.5900 O.3       1 SER1        0.0000 
      9 OG         91.5000  117.8300  162.1500 O.3       1 SER1        0.0000 
     10 OG         91.8300  118.0900  160.7100 O.3       1 SER1        0.0000 
     11 OG         90.4300  118.7600  165.1900 O.3       1 SER1        0.0000 
     12 OG         90.7600  119.0200  163.7500 O.3       1 SER1        0.0000 
     13 OG         93.6400  117.0000  160.9400 O.3       1 SER1        0.0000 
     14 OG         92.2300  117.6700  165.4200 O.3       1 SER1        0.0000 
     15 OG         91.8300  119.1100  165.5800 O.3       1 SER1        0.0000 
     16 OG         91.4300  120.5500  165.7400 O.3       1 SER1        0.0000 
     17 OG         90.6400  123.4200  166.0600 O.3       1 SER1        0.0000 
     18 OG         93.2400  119.4600  165.9700 O.3       1 SER1        0.0000 
     19 O          87.9500  118.3300  162.9700 O.2       2 ALA2        0.0000 
     20 N          92.2300  115.6300  155.6800 N.am      2 ALA2        0.0000 
     21 O          91.1000  118.2500  157.4400 O.2       2 ALA2        0.0000 
     22 N          93.6400  115.9700  156.0700 N.am      2 ALA2        0.0000 
     23 O          92.9000  117.1600  157.6700 O.2       2 ALA2        0.0000 
     24 O          92.8400  118.8500  156.3900 O.2       2 ALA2        0.0000 
     25 O          91.4400  119.5300  160.8700 O.2       2 ALA2        0.0000 
     26 N          93.0900  113.1100  166.3800 N.am      2 ALA2        0.0000 
     27 N          93.4300  113.3600  164.9400 N.am      2 ALA2        0.0000 
     28 N          92.3500  114.2900  167.9800 N.am      2 ALA2        0.0000 
     29 N          92.6900  114.5500  166.5400 N.am      2 ALA2        0.0000 
     30 N          93.7000  115.3100  162.2200 N.am      2 ALA2        0.0000 
     31 N          91.6200  115.4800  169.5800 N.am      2 ALA2        0.0000 
     32 N          91.9600  115.7300  168.1400 N.am      2 ALA2        0.0000 
     33 N          92.2900  115.9800  166.7000 N.am      2 ALA2        0.0000 
     34 N          92.6300  116.2400  165.2600 N.am      2 ALA2        0.0000 
     35 O          94.3100  117.5000  158.0600 O.2       2 ALA2        0.0000 
     36 N          90.8800  116.6600  171.1800 N.am      2 ALA2        0.0000 
     37 N          91.2200  116.9100  169.7400 N.am      2 ALA2        0.0000 
     38 N          91.5600  117.1700  168.3000 N.am      2 ALA2        0.0000 
     39 N          91.8900  117.4200  166.8600 N.am      2 ALA2        0.0000 
     40 N          90.8200  118.3500  169.9000 N.am      2 ALA2        0.0000 
     41 N          91.1600  118.6000  168.4600 N.am      2 ALA2        0.0000 
     42 N          91.5000  118.8600  167.0200 N.am      2 ALA2        0.0000 
     43 N          91.3700  122.2400  164.4600 N.am      2 ALA2        0.0000 
     44 OD1        89.4800  114.2700  161.0500 O.co2     3 ASP3        0.0000 
     45 OD1        89.0800  115.7000  161.2100 O.co2     3 ASP3        0.0000 
     46 OD1        89.4200  115.9600  159.7700 O.co2     3 ASP3        0.0000 
     47 OD1        89.7600  116.2100  158.3300 O.co2     3 ASP3        0.0000 
     48 OD1        88.6800  117.1400  161.3700 O.co2     3 ASP3        0.0000 
     49 OD1        89.3600  117.6500  158.4900 O.co2     3 ASP3        0.0000 
     50 OD1        89.6900  117.9000  157.0500 O.co2     3 ASP3        0.0000 
     51 OD1        89.3000  119.3400  157.2100 O.co2     3 ASP3        0.0000 
     52 OD1        90.8300  116.3000  160.1600 O.co2     3 ASP3        0.0000 
     53 OD1        91.5000  116.8100  157.2800 O.co2     3 ASP3        0.0000 
     54 OD1        90.3700  119.4300  159.0400 O.co2     3 ASP3        0.0000 
     55 NZ         87.6700  116.3800  165.6900 N.4       4 LYS4        0.0000 
     56 NZ         88.0100  116.6300  164.2500 N.4       4 LYS4        0.0000 
     57 NZ         88.3500  116.8900  162.8100 N.4       4 LYS4        0.0000 
     58 NZ         91.6200  113.4300  159.8400 N.4       4 LYS4        0.0000 
     59 NZ         90.8900  114.6100  161.4400 N.4       4 LYS4        0.0000 
     60 NZ         91.2200  114.8700  160.0000 N.4       4 LYS4        0.0000 
     61 NZ         91.5600  115.1200  158.5600 N.4       4 LYS4        0.0000 
     62 NZ         91.9000  115.3700  157.1200 N.4       4 LYS4        0.0000 
     63 NZ         89.4800  115.2900  165.9200 N.4       4 LYS4        0.0000 
     64 NZ         90.1500  115.8000  163.0400 N.4       4 LYS4        0.0000 
     65 NZ         90.4900  116.0500  161.6000 N.4       4 LYS4        0.0000 
     66 NZ         91.1600  116.5600  158.7200 N.4       4 LYS4        0.0000 
     67 NZ         89.0800  116.7300  166.0800 N.4       4 LYS4        0.0000 
     68 NZ         89.4200  116.9800  164.6400 N.4       4 LYS4        0.0000 
     69 NZ         89.7500  117.2300  163.2000 N.4       4 LYS4        0.0000 
     70 NZ         92.0200  113.0200  164.5500 N.4       4 LYS4        0.0000 
     71 NZ         93.7000  114.2800  157.3500 N.4       4 LYS4        0.0000 
     72 NZ         91.2800  114.2000  166.1500 N.4       4 LYS4        0.0000 
     73 NZ         91.6200  114.4500  164.7100 N.4       4 LYS4        0.0000 
     74 NZ         91.9600  114.7100  163.2700 N.4       4 LYS4        0.0000 
     75 NZ         92.9700  115.4700  158.9500 N.4       4 LYS4        0.0000 
     76 NZ         93.3000  115.7200  157.5100 N.4       4 LYS4        0.0000 
     77 NZ         90.8900  115.6400  166.3100 N.4       4 LYS4        0.0000 
     78 NZ         91.2200  115.8900  164.8700 N.4       4 LYS4        0.0000 
     79 CZ         89.0800  117.7500  170.9500 C.ar      5 PHE5        0.0000 
     80 CZ         89.4200  118.0000  169.5100 C.ar      5 PHE5        0.0000 
     81 CZ         89.7500  118.2600  168.0700 C.ar      5 PHE5        0.0000 
     82 CZ         90.0900  118.5100  166.6300 C.ar      5 PHE5        0.0000 
     83 CZ         89.3500  119.7000  168.2300 C.ar      5 PHE5        0.0000 
     84 CZ         89.6900  119.9500  166.7900 C.ar      5 PHE5        0.0000 
     85 CZ         89.6300  121.6400  165.5100 C.ar      5 PHE5        0.0000 
     86 CZ         89.2300  123.0800  165.6700 C.ar      5 PHE5        0.0000 
     87 CZ         94.7100  116.0700  157.9000 C.ar      5 PHE5        0.0000 
     88 CZ         90.4200  119.7900  170.0600 C.ar      5 PHE5        0.0000 
     89 CZ         90.7600  120.0400  168.6200 C.ar      5 PHE5        0.0000 
     90 CZ         90.0300  121.2300  170.2200 C.ar      5 PHE5        0.0000 
     91 CZ         90.3600  121.4800  168.7800 C.ar      5 PHE5        0.0000 
     92 CZ         90.7000  121.7300  167.3400 C.ar      5 PHE5        0.0000 
     93 CZ         90.3000  123.1700  167.5000 C.ar      5 PHE5        0.0000 
     94 CZ         91.8300  120.1300  170.4500 C.ar      5 PHE5        0.0000 
     95 CZ         92.1700  120.3900  169.0100 C.ar      5 PHE5        0.0000 
     96 CZ         92.5000  120.6400  167.5700 C.ar      5 PHE5        0.0000 
     97 CZ         92.8400  120.8900  166.1300 C.ar      5 PHE5        0.0000 
     98 CZ         92.4400  122.3300  166.2900 C.ar      5 PHE5        0.0000 
     99 CA         88.2900  118.5800  161.5300 C.3       6 GLY6        0.0000 
    100 CA         91.8300  117.0700  155.8400 C.3       6 GLY6        0.0000 
    101 CA         91.4400  118.5000  156.0000 C.3       6 GLY6        0.0000 
    102 CA         88.6800  118.1600  166.2400 C.3       6 GLY6        0.0000 
    103 CA         89.0200  118.4200  164.8000 C.3       6 GLY6        0.0000 
    104 CA         89.3600  118.6700  163.3600 C.3       6 GLY6        0.0000 
    105 CA         89.6900  118.9300  161.9200 C.3       6 GLY6        0.0000 
    106 CA         90.0300  119.1800  160.4800 C.3       6 GLY6        0.0000 
    107 CA         93.2400  117.4100  156.2300 C.3       6 GLY6        0.0000 
    108 CA         93.5800  117.6700  154.7900 C.3       6 GLY6        0.0000 
    109 CA         92.1700  118.3400  159.2700 C.3       6 GLY6        0.0000 
    110 CA         91.1000  119.2700  162.3100 C.3       6 GLY6        0.0000 
    111 CA         90.0300  120.2000  165.3500 C.3       6 GLY6        0.0000 
    112 CA         93.9700  117.2500  159.5000 C.3       6 GLY6        0.0000 
    113 CA         94.6500  117.7600  156.6200 C.3       6 GLY6        0.0000 
    114 CA         91.7700  120.8000  164.3000 C.3       6 GLY6        0.0000 
    115 CA         91.0400  121.9900  165.9000 C.3       6 GLY6        0.0000 
    116 CA         92.9000  119.2000  167.4100 C.3       6 GLY6        0.0000 
    117 CA         93.1800  121.1500  164.6900 C.3       6 GLY6        0.0000 
    118 DU         90.0900  117.4900  161.7600 H         7 CUB7        0.0000 
    119 DU         90.4300  117.7400  160.3200 H         7 CUB7        0.0000 
    120 DU         90.7600  118.0000  158.8800 H         7 CUB7        0.0000 
    121 DU         92.2900  114.9600  161.8300 H         7 CUB7        0.0000 
    122 DU         92.6300  115.2100  160.3900 H         7 CUB7        0.0000 
    123 DU         90.5500  115.3800  167.7500 H         7 CUB7        0.0000 
    124 DU         92.5700  116.9000  159.1100 H         7 CUB7        0.0000 
    125 DU         90.1500  116.8200  167.9100 H         7 CUB7        0.0000 
    126 DU         90.4900  117.0700  166.4700 H         7 CUB7        0.0000 
    127 DU         94.0400  115.5600  160.7800 H         7 CUB7        0.0000 
    128 DU         94.3700  115.8100  159.3400 H         7 CUB7        0.0000 
    129 DU         91.1000  120.2900  167.1800 H         7 CUB7        0.0000 
@<TRIPOS>BOND
@<TRIPOS>SUBSTRUCTURE
     1 SER1        1 GROUP   
     2 ALA2       19 GROUP   
     3 ASP3       44 GROUP   
     4 LYS4       55 GROUP   
     5 PHE5       79 GROUP   
     6 GLY6       99 GROUP   
     7 CUB7      118 GROUP   
@<TRIPOS>SET

