#    Name: 6hz8_10_GDP_CAVITY_N1_6
#    Modification time : Fri May 22 19:40:08 2020

@<TRIPOS>MOLECULE
6hz8_10_GDP_CAVITY_N1_6
  111     0     7     0     0
SMALL
NO_CHARGES


@<TRIPOS>ATOM
      1 OG        177.1900  111.9900  146.7600 O.3       1 SER1        0.0000 
      2 OG        181.8700  109.9000  149.0500 O.3       1 SER1        0.0000 
      3 OG        182.2000  110.1500  147.6100 O.3       1 SER1        0.0000 
      4 OG        180.4000  112.2700  152.2500 O.3       1 SER1        0.0000 
      5 OG        180.7400  112.5200  150.8100 O.3       1 SER1        0.0000 
      6 OG        184.3500  109.3200  146.4000 O.3       1 SER1        0.0000 
      7 OG        183.2700  110.2500  149.4400 O.3       1 SER1        0.0000 
      8 OG        183.6100  110.5000  148.0000 O.3       1 SER1        0.0000 
      9 OG        183.9500  110.7500  146.5600 O.3       1 SER1        0.0000 
     10 OG        184.2800  111.0100  145.1200 O.3       1 SER1        0.0000 
     11 OG        184.6200  111.2600  143.6800 O.3       1 SER1        0.0000 
     12 OG        183.8900  112.4400  145.2800 O.3       1 SER1        0.0000 
     13 OG        184.2200  112.7000  143.8400 O.3       1 SER1        0.0000 
     14 OG        184.5600  112.9500  142.4000 O.3       1 SER1        0.0000 
     15 OG        183.8200  114.1300  144.0000 O.3       1 SER1        0.0000 
     16 OG        182.0800  114.5600  149.9200 O.3       1 SER1        0.0000 
     17 OG        185.4200  109.4100  148.2300 O.3       1 SER1        0.0000 
     18 OG        184.6800  110.5900  149.8300 O.3       1 SER1        0.0000 
     19 OG        185.0200  110.8500  148.3900 O.3       1 SER1        0.0000 
     20 OG        185.6900  111.3500  145.5100 O.3       1 SER1        0.0000 
     21 OG        186.8200  109.7500  148.6200 O.3       1 SER1        0.0000 
     22 O         179.3300  111.1500  145.5500 O.2       2 ALA2        0.0000 
     23 N         178.5300  114.0300  145.8700 N.am      2 ALA2        0.0000 
     24 O         181.8100  110.5700  142.9000 O.2       2 ALA2        0.0000 
     25 O         181.0700  111.7500  144.5000 O.2       2 ALA2        0.0000 
     26 N         179.2700  113.8600  149.1400 N.am      2 ALA2        0.0000 
     27 O         183.2800  109.2200  144.5700 O.2       2 ALA2        0.0000 
     28 O         183.6100  109.4800  143.1300 O.2       2 ALA2        0.0000 
     29 N         181.2000  109.3900  151.9300 N.am      2 ALA2        0.0000 
     30 N         181.5300  109.6500  150.4900 N.am      2 ALA2        0.0000 
     31 O         182.8800  110.6600  144.7300 O.2       2 ALA2        0.0000 
     32 N         180.8000  110.8300  152.0900 N.am      2 ALA2        0.0000 
     33 N         182.9400  109.9900  150.8800 N.am      2 ALA2        0.0000 
     34 N         182.5400  111.4300  151.0400 N.am      2 ALA2        0.0000 
     35 N         183.9500  111.7800  151.4300 N.am      2 ALA2        0.0000 
     36 N         185.7500  110.6800  151.6600 N.am      2 ALA2        0.0000 
     37 OD1       180.3400  111.9100  141.2300 O.co2     3 ASP3        0.0000 
     38 OD1       180.6700  113.1900  144.6600 O.co2     3 ASP3        0.0000 
     39 OD1       183.2100  110.9100  143.2900 O.co2     3 ASP3        0.0000 
     40 OD1       182.0800  113.5300  145.0500 O.co2     3 ASP3        0.0000 
     41 OD1       182.4200  113.7900  143.6100 O.co2     3 ASP3        0.0000 
     42 OD1       182.3600  115.4800  142.3300 O.co2     3 ASP3        0.0000 
     43 OD1       183.5500  112.1900  146.7200 O.co2     3 ASP3        0.0000 
     44 OD1       183.1500  113.6300  146.8800 O.co2     3 ASP3        0.0000 
     45 OD1       183.4900  113.8800  145.4400 O.co2     3 ASP3        0.0000 
     46 NZ        181.3500  113.7000  141.7800 N.4       4 LYS4        0.0000 
     47 NZ        181.6800  113.9500  140.3400 N.4       4 LYS4        0.0000 
     48 NZ        179.6000  114.1200  147.7000 N.4       4 LYS4        0.0000 
     49 NZ        179.9400  114.3700  146.2600 N.4       4 LYS4        0.0000 
     50 NZ        180.9500  115.1300  141.9400 N.4       4 LYS4        0.0000 
     51 NZ        181.4100  113.0300  147.9300 N.4       4 LYS4        0.0000 
     52 NZ        181.7400  113.2800  146.4900 N.4       4 LYS4        0.0000 
     53 NZ        182.7500  114.0400  142.1700 N.4       4 LYS4        0.0000 
     54 NZ        183.0900  114.3000  140.7300 N.4       4 LYS4        0.0000 
     55 NZ        182.8100  113.3700  148.3200 N.4       4 LYS4        0.0000 
     56 NZ        184.1600  114.3900  142.5600 N.4       4 LYS4        0.0000 
     57 NZ        185.3500  111.1000  146.9500 N.4       4 LYS4        0.0000 
     58 NZ        184.2800  112.0300  149.9900 N.4       4 LYS4        0.0000 
     59 NZ        184.6200  112.2800  148.5500 N.4       4 LYS4        0.0000 
     60 NZ        184.9600  112.5400  147.1100 N.4       4 LYS4        0.0000 
     61 NZ        186.0900  110.9400  150.2200 N.4       4 LYS4        0.0000 
     62 NZ        186.4200  111.1900  148.7800 N.4       4 LYS4        0.0000 
     63 NZ        186.7600  111.4500  147.3400 N.4       4 LYS4        0.0000 
     64 NZ        187.4900  111.2800  150.6100 N.4       4 LYS4        0.0000 
     65 CZ        178.9900  110.9000  146.9900 C.ar      5 PHE5        0.0000 
     66 CZ        178.6000  112.3300  147.1500 C.ar      5 PHE5        0.0000 
     67 CZ        180.1300  109.3000  150.1000 C.ar      5 PHE5        0.0000 
     68 CZ        179.7300  110.7400  150.2600 C.ar      5 PHE5        0.0000 
     69 CZ        180.0600  110.9900  148.8200 C.ar      5 PHE5        0.0000 
     70 CZ        179.3300  112.1700  150.4200 C.ar      5 PHE5        0.0000 
     71 CZ        182.1400  112.8700  151.2000 C.ar      5 PHE5        0.0000 
     72 CZ        182.4800  113.1200  149.7600 C.ar      5 PHE5        0.0000 
     73 CA        176.1200  111.9000  144.9300 C.3       6 GLY6        0.0000 
     74 CA        177.5300  112.2400  145.3200 C.3       6 GLY6        0.0000 
     75 CA        177.1300  113.6800  145.4800 C.3       6 GLY6        0.0000 
     76 CA        177.4600  113.9300  144.0400 C.3       6 GLY6        0.0000 
     77 CA        180.6800  112.1700  139.7900 C.3       6 GLY6        0.0000 
     78 CA        178.9300  112.5900  145.7100 C.3       6 GLY6        0.0000 
     79 CA        179.2700  112.8400  144.2700 C.3       6 GLY6        0.0000 
     80 CA        179.6000  113.1000  142.8300 C.3       6 GLY6        0.0000 
     81 CA        179.9400  113.3500  141.3900 C.3       6 GLY6        0.0000 
     82 CA        180.2800  113.6000  139.9500 C.3       6 GLY6        0.0000 
     83 CA        180.4600  109.5500  148.6600 C.3       6 GLY6        0.0000 
     84 CA        180.8000  109.8100  147.2200 C.3       6 GLY6        0.0000 
     85 CA        180.4000  111.2400  147.3800 C.3       6 GLY6        0.0000 
     86 CA        181.4100  112.0000  143.0600 C.3       6 GLY6        0.0000 
     87 CA        181.7500  112.2600  141.6200 C.3       6 GLY6        0.0000 
     88 CA        181.0100  113.4400  143.2200 C.3       6 GLY6        0.0000 
     89 CA        182.9400  108.9700  146.0100 C.3       6 GLY6        0.0000 
     90 CA        182.5400  110.4100  146.1700 C.3       6 GLY6        0.0000 
     91 CA        183.5500  111.1700  141.8500 C.3       6 GLY6        0.0000 
     92 CA        183.1500  112.6000  142.0100 C.3       6 GLY6        0.0000 
     93 CA        183.4900  112.8600  140.5700 C.3       6 GLY6        0.0000 
     94 CA        184.6800  109.5700  144.9600 C.3       6 GLY6        0.0000 
     95 CA        184.9600  111.5100  142.2400 C.3       6 GLY6        0.0000 
     96 CA        185.7500  109.6600  146.7900 C.3       6 GLY6        0.0000 
     97 CA        186.0900  109.9200  145.3500 C.3       6 GLY6        0.0000 
     98 CA        183.8800  113.4700  150.1500 C.3       6 GLY6        0.0000 
     99 CA        187.1600  110.0100  147.1800 C.3       6 GLY6        0.0000 
    100 DU        179.6700  112.4300  148.9800 H         7 CUB7        0.0000 
    101 DU        180.0000  112.6800  147.5400 H         7 CUB7        0.0000 
    102 DU        180.3400  112.9300  146.1000 H         7 CUB7        0.0000 
    103 DU        181.1300  111.0800  150.6500 H         7 CUB7        0.0000 
    104 DU        181.4700  111.3400  149.2100 H         7 CUB7        0.0000 
    105 DU        181.8100  111.5900  147.7700 H         7 CUB7        0.0000 
    106 DU        182.1400  111.8400  146.3300 H         7 CUB7        0.0000 
    107 DU        182.4800  112.1000  144.8900 H         7 CUB7        0.0000 
    108 DU        182.8200  112.3500  143.4500 H         7 CUB7        0.0000 
    109 DU        181.0700  112.7700  149.3700 H         7 CUB7        0.0000 
    110 DU        182.8800  111.6800  149.6000 H         7 CUB7        0.0000 
    111 DU        183.2100  111.9400  148.1600 H         7 CUB7        0.0000 
@<TRIPOS>BOND
@<TRIPOS>SUBSTRUCTURE
     1 SER1        1 GROUP   
     2 ALA2       22 GROUP   
     3 ASP3       37 GROUP   
     4 LYS4       46 GROUP   
     5 PHE5       65 GROUP   
     6 GLY6       73 GROUP   
     7 CUB7      100 GROUP   
@<TRIPOS>SET

