#    Name: 6hz8_2_GNP
#    Modification time : Fri May 22 19:39:20 2020

@<TRIPOS>MOLECULE
6hz8_2_GNP
   45    47     1     0     1
SMALL
NO_CHARGES


@<TRIPOS>ATOM
      1 PG         75.4460  114.2130   97.7830 P.3       1 GNP1001     0.0000 
      2 O1G        76.9150  114.3090   97.7590 O.co2     1 GNP1001     0.0000 
      3 O2G        74.8870  115.4290   98.4050 O.co2     1 GNP1001     0.0000 
      4 O3G        75.0840  113.0240   98.5820 O.co2     1 GNP1001     0.0000 
      5 N3B        74.8410  114.0520   96.3180 N.3       1 GNP1001     0.0000 
      6 PB         75.5010  113.1200   95.3110 P.3       1 GNP1001     0.0000 
      7 O1B        76.9560  113.2420   95.3590 O.co2     1 GNP1001     0.0000 
      8 O2B        75.0500  111.7390   95.5660 O.co2     1 GNP1001     0.0000 
      9 O3A        74.9970  113.5700   93.8880 O.3       1 GNP1001     0.0000 
     10 PA         73.7330  112.8150   93.3220 P.3       1 GNP1001     0.0000 
     11 O1A        74.0860  111.4430   92.9080 O.co2     1 GNP1001     0.0000 
     12 O2A        72.7150  112.7260   94.3840 O.co2     1 GNP1001     0.0000 
     13 O5'        73.1900  113.6340   92.0780 O.3       1 GNP1001     0.0000 
     14 C5'        72.3640  114.7610   92.2970 C.3       1 GNP1001     0.0000 
     15 C4'        71.6590  115.2840   91.0210 C.3       1 GNP1001     0.0000 
     16 O4'        72.6170  115.5020   89.9070 O.3       1 GNP1001     0.0000 
     17 C3'        70.6260  114.3190   90.4470 C.3       1 GNP1001     0.0000 
     18 O3'        69.6580  115.0580   89.6870 O.3       1 GNP1001     0.0000 
     19 C2'        71.4860  113.4940   89.5370 C.3       1 GNP1001     0.0000 
     20 O2'        70.7220  112.7000   88.6300 O.3       1 GNP1001     0.0000 
     21 C1'        72.1950  114.6190   88.8210 C.3       1 GNP1001     0.0000 
     22 N9         73.2730  114.0740   88.0000 N.pl3     1 GNP1001     0.0000 
     23 C8         74.5370  113.8970   88.3430 C.2       1 GNP1001     0.0000 
     24 N7         75.1700  113.3680   87.3020 N.2       1 GNP1001     0.0000 
     25 C5         74.2850  113.2040   86.3240 C.2       1 GNP1001     0.0000 
     26 C6         74.4120  112.7110   85.0970 C.2       1 GNP1001     0.0000 
     27 O6         75.5010  112.3110   84.6890 O.2       1 GNP1001     0.0000 
     28 N1         73.2940  112.6570   84.2650 N.am      1 GNP1001     0.0000 
     29 C2         72.0740  113.1230   84.7500 C.2       1 GNP1001     0.0000 
     30 N2         70.9840  113.0870   83.9940 N.pl3     1 GNP1001     0.0000 
     31 N3         72.0100  113.6020   85.9940 N.2       1 GNP1001     0.0000 
     32 C4         73.1070  113.6460   86.7600 C.2       1 GNP1001     0.0000 
     33 HNB3       74.0040  114.5100   96.0670 H         1 GNP1001     0.0000 
     34 H5'2       72.9920  115.5470   92.7020 H         1 GNP1001     0.0000 
     35 H5'1       71.6130  114.5080   93.0370 H         1 GNP1001     0.0000 
     36 H4'        71.1340  116.1750   91.3310 H         1 GNP1001     0.0000 
     37 H3'        70.1250  113.7540   91.2160 H         1 GNP1001     0.0000 
     38 HO3'       69.0050  114.4290   89.2670 H         1 GNP1001     0.0000 
     39 H2'        72.1800  112.8990   90.0890 H         1 GNP1001     0.0000 
     40 HO2'       70.1040  113.2840   88.1140 H         1 GNP1001     0.0000 
     41 H1'        71.5200  115.1740   88.1810 H         1 GNP1001     0.0000 
     42 H8         74.9800  114.1590   89.2970 H         1 GNP1001     0.0000 
     43 HN1        73.3670  112.2930   83.3380 H         1 GNP1001     0.0000 
     44 HN21       71.0210  112.7080   83.0700 H         1 GNP1001     0.0000 
     45 HN22       70.1210  113.4320   84.3580 H         1 GNP1001     0.0000 
@<TRIPOS>BOND
     1    1    2 ar   
     2    1    3 ar   
     3    1    4 ar   
     4    1    5 1    
     5    5    6 1    
     6    5   33 1    
     7    6    7 ar   
     8    6    8 ar   
     9    6    9 1    
    10    9   10 1    
    11   10   11 ar   
    12   10   12 ar   
    13   10   13 1    
    14   13   14 1    
    15   14   15 1    
    16   14   34 1    
    17   14   35 1    
    18   15   16 1    
    19   15   17 1    
    20   15   36 1    
    21   16   21 1    
    22   17   18 1    
    23   17   19 1    
    24   17   37 1    
    25   18   38 1    
    26   19   20 1    
    27   19   21 1    
    28   19   39 1    
    29   20   40 1    
    30   21   22 1    
    31   21   41 1    
    32   22   23 1    
    33   22   32 1    
    34   23   24 2    
    35   23   42 1    
    36   24   25 1    
    37   25   26 1    
    38   25   32 2    
    39   26   27 2    
    40   26   28 am   
    41   28   29 1    
    42   28   43 1    
    43   29   30 1    
    44   29   31 2    
    45   30   44 1    
    46   30   45 1    
    47   31   32 1    
@<TRIPOS>SUBSTRUCTURE
     1 GNP1001     1 GROUP   
@<TRIPOS>SET
ATOM$ORANGE STATIC     ATOMS   COLORGROUP SYSTEM 
20 14 14 15 15 17 17 19 19 21 21 23 23 25 25 26 26 29 \
29 32 32 

