#    Name: 6hz8_1_GNP_CAVITY_N1_4
#    Modification time : Fri May 22 19:39:16 2020

@<TRIPOS>MOLECULE
6hz8_1_GNP_CAVITY_N1_4
   92     0     7     0     0
SMALL
NO_CHARGES


@<TRIPOS>ATOM
      1 OG         97.3000   90.0900  102.3600 O.3       1 SER1        0.0000 
      2 OG         96.5700   91.2800  103.9500 O.3       1 SER1        0.0000 
      3 OG         96.1700   92.7200  104.1100 O.3       1 SER1        0.0000 
      4 OG         98.3700   90.1900  104.1800 O.3       1 SER1        0.0000 
      5 OG         98.7100   90.4400  102.7400 O.3       1 SER1        0.0000 
      6 OG         97.9700   91.6200  104.3400 O.3       1 SER1        0.0000 
      7 OG         99.7800   90.5300  104.5700 O.3       1 SER1        0.0000 
      8 OG        100.1100   90.7900  103.1300 O.3       1 SER1        0.0000 
      9 OG         99.3800   91.9700  104.7300 O.3       1 SER1        0.0000 
     10 OG        101.1800   90.8800  104.9600 O.3       1 SER1        0.0000 
     11 OG        102.9900   89.7900  105.1900 O.3       1 SER1        0.0000 
     12 N          97.0300   87.1300  100.2100 N.am      2 ALA2        0.0000 
     13 N          96.6300   88.5600  100.3700 N.am      2 ALA2        0.0000 
     14 N          96.9700   88.8200   98.9300 N.am      2 ALA2        0.0000 
     15 N          96.2300   90.0000  100.5300 N.am      2 ALA2        0.0000 
     16 N          98.8300   86.0400  100.4400 N.am      2 ALA2        0.0000 
     17 N          99.1700   86.2900   99.0000 N.am      2 ALA2        0.0000 
     18 N          98.4300   87.4700  100.6000 N.am      2 ALA2        0.0000 
     19 N          97.7000   88.6600  102.1900 N.am      2 ALA2        0.0000 
     20 N          97.6400   90.3500  100.9200 N.am      2 ALA2        0.0000 
     21 N         100.2400   86.3800  100.8300 N.am      2 ALA2        0.0000 
     22 N         100.5700   86.6400   99.3900 N.am      2 ALA2        0.0000 
     23 N          99.1100   89.0000  102.5800 N.am      2 ALA2        0.0000 
     24 O          96.5600   92.3000  108.8200 O.2       2 ALA2        0.0000 
     25 O          96.9000   92.5600  107.3800 O.2       2 ALA2        0.0000 
     26 O          97.2400   92.8100  105.9400 O.2       2 ALA2        0.0000 
     27 N         101.2500   88.1700  101.3700 N.am      2 ALA2        0.0000 
     28 N         100.5100   89.3500  102.9700 N.am      2 ALA2        0.0000 
     29 O          98.6400   93.1600  106.3300 O.2       2 ALA2        0.0000 
     30 O          97.5700   94.0900  109.3700 O.2       2 ALA2        0.0000 
     31 O          97.9100   94.3400  107.9300 O.2       2 ALA2        0.0000 
     32 O         103.3900   88.3500  105.0300 O.2       2 ALA2        0.0000 
     33 N         102.6500   89.5400  106.6300 N.am      2 ALA2        0.0000 
     34 OD1        95.6200   87.8000  104.6800 O.co2     3 ASP3        0.0000 
     35 OD1        96.6300   89.5900  105.2300 O.co2     3 ASP3        0.0000 
     36 OD1        96.2300   91.0200  105.3900 O.co2     3 ASP3        0.0000 
     37 OD1        95.4900   92.2100  106.9900 O.co2     3 ASP3        0.0000 
     38 OD1        95.8300   92.4600  105.5500 O.co2     3 ASP3        0.0000 
     39 OD1        94.7600   93.3900  108.5900 O.co2     3 ASP3        0.0000 
     40 OD1        95.1000   93.6500  107.1500 O.co2     3 ASP3        0.0000 
     41 OD1        95.4300   93.9000  105.7100 O.co2     3 ASP3        0.0000 
     42 OD1        96.1700   93.7400  108.9800 O.co2     3 ASP3        0.0000 
     43 OD1        96.5000   93.9900  107.5400 O.co2     3 ASP3        0.0000 
     44 OD1        95.7700   95.1800  109.1400 O.co2     3 ASP3        0.0000 
     45 OD1        96.1000   95.4300  107.7000 O.co2     3 ASP3        0.0000 
     46 NZ         95.6200   86.7800   99.8200 N.4       4 LYS4        0.0000 
     47 NZ         95.9600   88.0600  103.2400 N.4       4 LYS4        0.0000 
     48 NZ         96.2900   88.3100  101.8100 N.4       4 LYS4        0.0000 
     49 NZ         95.8900   89.7500  101.9700 N.4       4 LYS4        0.0000 
     50 NZ         99.2300   84.6000  100.2800 N.4       4 LYS4        0.0000 
     51 NZ         96.9600   89.8400  103.7900 N.4       4 LYS4        0.0000 
     52 NZ        100.6400   84.9500  100.6600 N.4       4 LYS4        0.0000 
     53 NZ        101.7100   85.0400  102.4900 N.4       4 LYS4        0.0000 
     54 NZ        101.6400   86.7300  101.2100 N.4       4 LYS4        0.0000 
     55 CZ         94.8200   89.6600  100.1400 C.ar      5 PHE5        0.0000 
     56 CZ         95.1600   89.9100   98.7000 C.ar      5 PHE5        0.0000 
     57 CZ         96.7500   85.1800  102.9200 C.ar      5 PHE5        0.0000 
     58 CZ         96.0200   86.3700  104.5200 C.ar      5 PHE5        0.0000 
     59 CZ         96.3500   86.6200  103.0800 C.ar      5 PHE5        0.0000 
     60 CZ         98.8900   84.3500  101.7100 C.ar      5 PHE5        0.0000 
     61 CZ         98.5000   85.7800  101.8700 C.ar      5 PHE5        0.0000 
     62 CZ         97.7600   86.9700  103.4700 C.ar      5 PHE5        0.0000 
     63 CZ         98.1000   87.2200  102.0300 C.ar      5 PHE5        0.0000 
     64 CZ         97.0300   88.1500  105.0700 C.ar      5 PHE5        0.0000 
     65 CZ         97.3600   88.4000  103.6300 C.ar      5 PHE5        0.0000 
     66 CZ        100.3000   84.6900  102.1000 C.ar      5 PHE5        0.0000 
     67 CZ        100.9700   85.2000   99.2300 C.ar      5 PHE5        0.0000 
     68 CZ         99.9000   86.1300  102.2600 C.ar      5 PHE5        0.0000 
     69 CZ         99.5000   87.5700  102.4200 C.ar      5 PHE5        0.0000 
     70 CZ         98.7700   88.7500  104.0200 C.ar      5 PHE5        0.0000 
     71 CZ        101.3100   86.4800  102.6500 C.ar      5 PHE5        0.0000 
     72 CZ        100.9100   87.9100  102.8100 C.ar      5 PHE5        0.0000 
     73 CZ        100.1800   89.1000  104.4100 C.ar      5 PHE5        0.0000 
     74 CZ        102.7100   86.8200  103.0400 C.ar      5 PHE5        0.0000 
     75 CZ        101.9800   88.0100  104.6400 C.ar      5 PHE5        0.0000 
     76 CZ        102.3200   88.2600  103.2000 C.ar      5 PHE5        0.0000 
     77 CZ        101.5800   89.4400  104.8000 C.ar      5 PHE5        0.0000 
     78 CZ        101.9200   89.7000  103.3600 C.ar      5 PHE5        0.0000 
     79 CZ        101.5200   91.1300  103.5200 C.ar      5 PHE5        0.0000 
     80 CZ        103.0500   88.1000  106.4700 C.ar      5 PHE5        0.0000 
     81 CA         94.9500   86.2700  102.7000 C.3       6 GLY6        0.0000 
     82 CA         95.2800   86.5300  101.2600 C.3       6 GLY6        0.0000 
     83 CA         95.2200   88.2200   99.9800 C.3       6 GLY6        0.0000 
     84 CA         95.1600   91.9600  108.4300 C.3       6 GLY6        0.0000 
     85 CA         98.0300   89.9300  105.6200 C.3       6 GLY6        0.0000 
     86 CA         97.3000   91.1200  107.2200 C.3       6 GLY6        0.0000 
     87 CA         97.6400   91.3700  105.7800 C.3       6 GLY6        0.0000 
     88 CA         96.8400   94.2500  106.1000 C.3       6 GLY6        0.0000 
     89 CA         99.4400   90.2800  106.0100 C.3       6 GLY6        0.0000 
     90 DU         97.0900   85.4400  101.4900 H         7 CUB7        0.0000 
     91 DU         96.6900   86.8700  101.6500 H         7 CUB7        0.0000 
     92 DU         99.5700   84.8500   98.8400 H         7 CUB7        0.0000 
@<TRIPOS>BOND
@<TRIPOS>SUBSTRUCTURE
     1 SER1        1 GROUP   
     2 ALA2       12 GROUP   
     3 ASP3       34 GROUP   
     4 LYS4       46 GROUP   
     5 PHE5       55 GROUP   
     6 GLY6       81 GROUP   
     7 CUB7       90 GROUP   
@<TRIPOS>SET

