#    Name: 6hz8_4_GDP_CAVITY_N1_4
#    Modification time : Fri May 22 19:39:35 2020

@<TRIPOS>MOLECULE
6hz8_4_GDP_CAVITY_N1_4
  136     0     7     0     0
SMALL
NO_CHARGES


@<TRIPOS>ATOM
      1 OG         67.7300  138.4200  143.0300 O.3       1 SER1        0.0000 
      2 OG         68.0600  138.6800  141.5900 O.3       1 SER1        0.0000 
      3 OG         66.6600  139.3500  146.0700 O.3       1 SER1        0.0000 
      4 OG         66.2600  140.7900  146.2300 O.3       1 SER1        0.0000 
      5 OG         66.5900  141.0400  144.7900 O.3       1 SER1        0.0000 
      6 OG         64.7900  143.1600  149.4300 O.3       1 SER1        0.0000 
      7 OG         64.2700  147.9800  147.0300 O.3       1 SER1        0.0000 
      8 OG         64.6000  148.2300  145.5900 O.3       1 SER1        0.0000 
      9 OG         69.1300  138.7700  143.4200 O.3       1 SER1        0.0000 
     10 OG         68.4000  139.9500  145.0200 O.3       1 SER1        0.0000 
     11 OG         68.7400  140.2100  143.5800 O.3       1 SER1        0.0000 
     12 OG         67.6600  141.1400  146.6200 O.3       1 SER1        0.0000 
     13 OG         66.5900  142.0700  149.6600 O.3       1 SER1        0.0000 
     14 OG         66.9300  142.3200  148.2200 O.3       1 SER1        0.0000 
     15 OG         67.2700  142.5700  146.7800 O.3       1 SER1        0.0000 
     16 OG         66.2000  143.5000  149.8200 O.3       1 SER1        0.0000 
     17 OG         66.8700  144.0100  146.9400 O.3       1 SER1        0.0000 
     18 OG         65.8000  144.9400  149.9800 O.3       1 SER1        0.0000 
     19 OG         66.1300  145.2000  148.5400 O.3       1 SER1        0.0000 
     20 OG         65.7300  146.6300  148.7000 O.3       1 SER1        0.0000 
     21 OG         66.0700  146.8900  147.2600 O.3       1 SER1        0.0000 
     22 OG         65.3400  148.0700  148.8600 O.3       1 SER1        0.0000 
     23 OG         68.4000  140.9800  149.8900 O.3       1 SER1        0.0000 
     24 OG         68.7300  141.2300  148.4500 O.3       1 SER1        0.0000 
     25 OG         69.0700  141.4800  147.0100 O.3       1 SER1        0.0000 
     26 OG         69.8000  141.3200  150.2800 O.3       1 SER1        0.0000 
     27 OG         70.1400  141.5800  148.8400 O.3       1 SER1        0.0000 
     28 N          61.9100  145.1800  152.2400 N.am      2 ALA2        0.0000 
     29 O          62.8000  149.3200  145.3600 O.2       2 ALA2        0.0000 
     30 N          64.1200  142.6500  152.3100 N.am      2 ALA2        0.0000 
     31 N          63.7200  144.0900  152.4700 N.am      2 ALA2        0.0000 
     32 N          64.0500  144.3400  151.0300 N.am      2 ALA2        0.0000 
     33 N          64.3900  144.6000  149.5900 N.am      2 ALA2        0.0000 
     34 N          63.6600  145.7800  151.1900 N.am      2 ALA2        0.0000 
     35 N          63.9900  146.0300  149.7500 N.am      2 ALA2        0.0000 
     36 N          62.5800  146.7100  154.2300 N.am      2 ALA2        0.0000 
     37 N          62.9200  146.9600  152.7900 N.am      2 ALA2        0.0000 
     38 N          63.2600  147.2200  151.3500 N.am      2 ALA2        0.0000 
     39 N          63.5900  147.4700  149.9100 N.am      2 ALA2        0.0000 
     40 N          62.5200  148.4000  152.9500 N.am      2 ALA2        0.0000 
     41 N          63.2000  148.9100  150.0700 N.am      2 ALA2        0.0000 
     42 N          63.5300  149.1600  148.6300 N.am      2 ALA2        0.0000 
     43 O          63.8700  149.4100  147.1900 O.2       2 ALA2        0.0000 
     44 N          66.3200  140.1200  152.3800 N.am      2 ALA2        0.0000 
     45 O          68.0000  141.3900  145.1800 O.2       2 ALA2        0.0000 
     46 O          68.3400  141.6400  143.7400 O.2       2 ALA2        0.0000 
     47 N          65.9200  141.5600  152.5400 N.am      2 ALA2        0.0000 
     48 N          66.2600  141.8100  151.1000 N.am      2 ALA2        0.0000 
     49 N          65.8600  143.2500  151.2600 N.am      2 ALA2        0.0000 
     50 N          65.4000  146.3800  150.1400 N.am      2 ALA2        0.0000 
     51 N          65.0000  147.8200  150.3000 N.am      2 ALA2        0.0000 
     52 N          63.9300  148.7500  153.3400 N.am      2 ALA2        0.0000 
     53 O          69.8100  140.3000  145.4100 O.2       2 ALA2        0.0000 
     54 O          70.1400  140.5500  143.9700 O.2       2 ALA2        0.0000 
     55 N          68.0600  140.7200  151.3300 N.am      2 ALA2        0.0000 
     56 O          69.4100  141.7400  145.5700 O.2       2 ALA2        0.0000 
     57 O          71.2100  140.6500  145.8000 O.2       2 ALA2        0.0000 
     58 OD1        69.2000  137.0800  144.7000 O.co2     3 ASP3        0.0000 
     59 OD1        69.5300  137.3300  143.2600 O.co2     3 ASP3        0.0000 
     60 OD1        68.1200  138.0100  147.7400 O.co2     3 ASP3        0.0000 
     61 OD1        68.4600  138.2600  146.3000 O.co2     3 ASP3        0.0000 
     62 OD1        68.8000  138.5200  144.8600 O.co2     3 ASP3        0.0000 
     63 OD1        68.0600  139.7000  146.4600 O.co2     3 ASP3        0.0000 
     64 OD1        70.6000  137.4300  145.0900 O.co2     3 ASP3        0.0000 
     65 OD1        70.9400  137.6800  143.6500 O.co2     3 ASP3        0.0000 
     66 OD1        71.2100  139.6200  140.9300 O.co2     3 ASP3        0.0000 
     67 OD1        70.4800  140.8100  142.5300 O.co2     3 ASP3        0.0000 
     68 NZ         60.1100  146.2700  152.0100 N.4       4 LYS4        0.0000 
     69 NZ         63.4400  141.1200  150.3200 N.4       4 LYS4        0.0000 
     70 NZ         61.5100  146.6200  152.4000 N.4       4 LYS4        0.0000 
     71 NZ         68.1300  136.9900  142.8700 N.4       4 LYS4        0.0000 
     72 NZ         68.4600  137.2400  141.4300 N.4       4 LYS4        0.0000 
     73 NZ         65.9200  140.5400  147.6700 N.4       4 LYS4        0.0000 
     74 NZ         64.8500  141.4700  150.7100 N.4       4 LYS4        0.0000 
     75 NZ         65.1900  141.7200  149.2700 N.4       4 LYS4        0.0000 
     76 NZ         65.5200  141.9700  147.8300 N.4       4 LYS4        0.0000 
     77 NZ         69.8700  137.5900  141.8200 N.4       4 LYS4        0.0000 
     78 NZ         67.3900  139.1900  149.3400 N.4       4 LYS4        0.0000 
     79 NZ         67.7300  139.4500  147.9000 N.4       4 LYS4        0.0000 
     80 NZ         66.6600  140.3800  150.9400 N.4       4 LYS4        0.0000 
     81 NZ         66.9900  140.6300  149.5000 N.4       4 LYS4        0.0000 
     82 NZ         67.3300  140.8800  148.0600 N.4       4 LYS4        0.0000 
     83 NZ         69.5300  138.3600  148.1300 N.4       4 LYS4        0.0000 
     84 NZ         69.8700  138.6100  146.6900 N.4       4 LYS4        0.0000 
     85 NZ         70.2000  138.8600  145.2500 N.4       4 LYS4        0.0000 
     86 NZ         70.9400  138.7000  148.5200 N.4       4 LYS4        0.0000 
     87 NZ         71.2700  138.9600  147.0800 N.4       4 LYS4        0.0000 
     88 CZ         61.6400  142.2100  150.0900 C.ar      5 PHE5        0.0000 
     89 CZ         63.0500  142.5600  150.4800 C.ar      5 PHE5        0.0000 
     90 CZ         62.6500  144.0000  150.6400 C.ar      5 PHE5        0.0000 
     91 CZ         62.9800  144.2500  149.2000 C.ar      5 PHE5        0.0000 
     92 CZ         62.2500  145.4300  150.8000 C.ar      5 PHE5        0.0000 
     93 CZ         62.5900  145.6900  149.3600 C.ar      5 PHE5        0.0000 
     94 CZ         61.8500  146.8700  150.9600 C.ar      5 PHE5        0.0000 
     95 CZ         62.1900  147.1200  149.5200 C.ar      5 PHE5        0.0000 
     96 CZ         62.8600  147.6300  146.6400 C.ar      5 PHE5        0.0000 
     97 CZ         63.2000  147.8800  145.2000 C.ar      5 PHE5        0.0000 
     98 CZ         60.3800  149.2400  154.1600 C.ar      5 PHE5        0.0000 
     99 CZ         64.3300  146.2900  148.3100 C.ar      5 PHE5        0.0000 
    100 CZ         63.9300  147.7200  148.4700 C.ar      5 PHE5        0.0000 
    101 CZ         62.1900  148.1500  154.3900 C.ar      5 PHE5        0.0000 
    102 CZ         62.8600  148.6500  151.5100 C.ar      5 PHE5        0.0000 
    103 CZ         62.1200  149.8400  153.1100 C.ar      5 PHE5        0.0000 
    104 CZ         62.4600  150.0900  151.6700 C.ar      5 PHE5        0.0000 
    105 CZ         64.2700  149.0000  151.9000 C.ar      5 PHE5        0.0000 
    106 CZ         69.1900  138.1000  149.5700 C.ar      5 PHE5        0.0000 
    107 CZ         68.4600  139.2900  151.1700 C.ar      5 PHE5        0.0000 
    108 CZ         68.8000  139.5400  149.7300 C.ar      5 PHE5        0.0000 
    109 CZ         70.2000  139.8900  150.1200 C.ar      5 PHE5        0.0000 
    110 CA         64.1200  141.6300  147.4400 C.3       6 GLY6        0.0000 
    111 CA         63.3800  142.8100  149.0400 C.3       6 GLY6        0.0000 
    112 CA         61.1200  148.0500  152.5600 C.3       6 GLY6        0.0000 
    113 CA         61.4500  148.3100  151.1200 C.3       6 GLY6        0.0000 
    114 CA         62.4600  149.0700  146.8000 C.3       6 GLY6        0.0000 
    115 CA         60.7200  149.4900  152.7200 C.3       6 GLY6        0.0000 
    116 CA         68.4000  138.9300  140.1500 C.3       6 GLY6        0.0000 
    117 CA         67.6700  140.1100  141.7500 C.3       6 GLY6        0.0000 
    118 CA         65.8600  142.2300  146.3900 C.3       6 GLY6        0.0000 
    119 CA         65.1300  143.4100  147.9900 C.3       6 GLY6        0.0000 
    120 CA         64.7300  144.8500  148.1500 C.3       6 GLY6        0.0000 
    121 CA         64.6600  146.5400  146.8700 C.3       6 GLY6        0.0000 
    122 CA         65.0000  146.7900  145.4300 C.3       6 GLY6        0.0000 
    123 CA         69.4700  139.0200  141.9800 C.3       6 GLY6        0.0000 
    124 CA         69.8100  139.2800  140.5400 C.3       6 GLY6        0.0000 
    125 CA         69.0700  140.4600  142.1400 C.3       6 GLY6        0.0000 
    126 CA         66.4700  145.4500  147.1000 C.3       6 GLY6        0.0000 
    127 CA         71.2800  137.9300  142.2100 C.3       6 GLY6        0.0000 
    128 CA         70.8800  139.3700  142.3700 C.3       6 GLY6        0.0000 
    129 CA         71.9500  139.4600  144.2000 C.3       6 GLY6        0.0000 
    130 DU         64.4500  142.9000  150.8700 H         7 CUB7        0.0000 
    131 DU         70.5400  139.1200  143.8100 H         7 CUB7        0.0000 
    132 DU         69.1300  139.7900  148.2900 H         7 CUB7        0.0000 
    133 DU         69.4700  140.0500  146.8500 H         7 CUB7        0.0000 
    134 DU         71.6100  139.2100  145.6400 H         7 CUB7        0.0000 
    135 DU         70.5400  140.1400  148.6800 H         7 CUB7        0.0000 
    136 DU         70.8800  140.3900  147.2400 H         7 CUB7        0.0000 
@<TRIPOS>BOND
@<TRIPOS>SUBSTRUCTURE
     1 SER1        1 GROUP   
     2 ALA2       28 GROUP   
     3 ASP3       58 GROUP   
     4 LYS4       68 GROUP   
     5 PHE5       88 GROUP   
     6 GLY6      110 GROUP   
     7 CUB7      130 GROUP   
@<TRIPOS>SET

