#    Name: 6hz8_3_GNP
#    Modification time : Fri May 22 19:39:27 2020

@<TRIPOS>MOLECULE
6hz8_3_GNP
   45    47     1     0     1
SMALL
NO_CHARGES


@<TRIPOS>ATOM
      1 PG         63.2820  135.6930  113.6590 P.3       1 GNP1001     0.0000 
      2 O1G        64.1480  135.3780  112.5060 O.co2     1 GNP1001     0.0000 
      3 O2G        64.1120  136.1240  114.8000 O.co2     1 GNP1001     0.0000 
      4 O3G        62.4770  134.5100  114.0310 O.co2     1 GNP1001     0.0000 
      5 N3B        62.3660  136.8640  113.2380 N.3       1 GNP1001     0.0000 
      6 PB         61.7720  136.8340  111.8460 P.3       1 GNP1001     0.0000 
      7 O1B        62.7590  137.3490  110.8790 O.co2     1 GNP1001     0.0000 
      8 O2B        61.3400  135.4600  111.5380 O.co2     1 GNP1001     0.0000 
      9 O3A        60.5150  137.7840  111.9360 O.3       1 GNP1001     0.0000 
     10 PA         59.0970  137.0850  112.0620 P.3       1 GNP1001     0.0000 
     11 O1A        58.8480  136.3070  110.8400 O.co2     1 GNP1001     0.0000 
     12 O2A        59.0700  136.1790  113.2250 O.co2     1 GNP1001     0.0000 
     13 O5'        57.9880  138.1960  112.2600 O.3       1 GNP1001     0.0000 
     14 C5'        58.2280  139.0010  113.3930 C.3       1 GNP1001     0.0000 
     15 C4'        57.3060  140.2090  113.6000 C.3       1 GNP1001     0.0000 
     16 O4'        57.3840  141.2060  112.5020 O.3       1 GNP1001     0.0000 
     17 C3'        55.8300  139.8920  113.6920 C.3       1 GNP1001     0.0000 
     18 O3'        55.1970  140.9320  114.4510 O.3       1 GNP1001     0.0000 
     19 C2'        55.4360  139.9770  112.2540 C.3       1 GNP1001     0.0000 
     20 O2'        54.0230  140.0390  112.1050 O.3       1 GNP1001     0.0000 
     21 C1'        56.0540  141.3110  111.9090 C.3       1 GNP1001     0.0000 
     22 N9         55.9970  141.5460  110.4660 N.pl3     1 GNP1001     0.0000 
     23 C8         56.9060  141.2660  109.5480 C.2       1 GNP1001     0.0000 
     24 N7         56.4220  141.6390  108.3700 N.2       1 GNP1001     0.0000 
     25 C5         55.2040  142.1300  108.5650 C.2       1 GNP1001     0.0000 
     26 C6         54.3090  142.6270  107.7200 C.2       1 GNP1001     0.0000 
     27 O6         54.5480  142.6910  106.5150 O.2       1 GNP1001     0.0000 
     28 N1         53.0850  143.0810  108.2110 N.am      1 GNP1001     0.0000 
     29 C2         52.8390  143.0000  109.5860 C.2       1 GNP1001     0.0000 
     30 N2         51.6940  143.4160  110.1230 N.pl3     1 GNP1001     0.0000 
     31 N3         53.7830  142.4860  110.3760 N.2       1 GNP1001     0.0000 
     32 C4         54.9420  142.0630  109.8670 C.2       1 GNP1001     0.0000 
     33 HNB3       62.1840  137.6260  113.8520 H         1 GNP1001     0.0000 
     34 H5'2       59.2540  139.3530  113.3600 H         1 GNP1001     0.0000 
     35 H5'1       58.1260  138.3640  114.2410 H         1 GNP1001     0.0000 
     36 H4'        57.6150  140.6160  114.5500 H         1 GNP1001     0.0000 
     37 H3'        55.6370  138.9300  114.1620 H         1 GNP1001     0.0000 
     38 HO3'       54.2130  140.7770  114.4890 H         1 GNP1001     0.0000 
     39 H2'        55.8920  139.1940  111.6790 H         1 GNP1001     0.0000 
     40 HO2'       53.6730  140.8090  112.6300 H         1 GNP1001     0.0000 
     41 H1'        55.5110  142.1160  112.3980 H         1 GNP1001     0.0000 
     42 H8         57.8810  140.8320  109.7310 H         1 GNP1001     0.0000 
     43 HN1        52.4040  143.4580  107.5860 H         1 GNP1001     0.0000 
     44 HN21       50.9640  143.7930  109.5590 H         1 GNP1001     0.0000 
     45 HN22       51.5620  143.3430  111.1100 H         1 GNP1001     0.0000 
@<TRIPOS>BOND
     1    1    2 ar   
     2    1    3 ar   
     3    1    4 ar   
     4    1    5 1    
     5    5    6 1    
     6    5   33 1    
     7    6    7 ar   
     8    6    8 ar   
     9    6    9 1    
    10    9   10 1    
    11   10   11 ar   
    12   10   12 ar   
    13   10   13 1    
    14   13   14 1    
    15   14   15 1    
    16   14   34 1    
    17   14   35 1    
    18   15   16 1    
    19   15   17 1    
    20   15   36 1    
    21   16   21 1    
    22   17   18 1    
    23   17   19 1    
    24   17   37 1    
    25   18   38 1    
    26   19   20 1    
    27   19   21 1    
    28   19   39 1    
    29   20   40 1    
    30   21   22 1    
    31   21   41 1    
    32   22   23 1    
    33   22   32 1    
    34   23   24 2    
    35   23   42 1    
    36   24   25 1    
    37   25   26 1    
    38   25   32 2    
    39   26   27 2    
    40   26   28 am   
    41   28   29 1    
    42   28   43 1    
    43   29   30 1    
    44   29   31 2    
    45   30   44 1    
    46   30   45 1    
    47   31   32 1    
@<TRIPOS>SUBSTRUCTURE
     1 GNP1001     1 GROUP   
@<TRIPOS>SET
ATOM$ORANGE STATIC     ATOMS   COLORGROUP SYSTEM 
20 14 14 15 15 17 17 19 19 21 21 23 23 25 25 26 26 29 \
29 32 32 

