#    Name: 6hz8_7_GNP_CAVITY_N1_8
#    Modification time : Fri May 22 19:39:55 2020

@<TRIPOS>MOLECULE
6hz8_7_GNP_CAVITY_N1_8
  119     0     7     0     0
SMALL
NO_CHARGES


@<TRIPOS>ATOM
      1 OG        149.1600  162.0700  105.2700 O.3       1 SER1        0.0000 
      2 OG        151.3000  161.2300  104.0600 O.3       1 SER1        0.0000 
      3 OG        151.6300  161.4800  102.6200 O.3       1 SER1        0.0000 
      4 OG        152.7000  161.5700  104.4500 O.3       1 SER1        0.0000 
      5 OG        153.0400  161.8300  103.0100 O.3       1 SER1        0.0000 
      6 OG        154.9100  159.0500  104.5200 O.3       1 SER1        0.0000 
      7 OG        154.5100  160.4800  104.6800 O.3       1 SER1        0.0000 
      8 OG        154.8500  160.7400  103.2400 O.3       1 SER1        0.0000 
      9 OG        155.1800  160.9900  101.8000 O.3       1 SER1        0.0000 
     10 OG        154.4500  162.1700  103.4000 O.3       1 SER1        0.0000 
     11 O         147.0200  162.9000  106.4800 O.2       2 ALA2        0.0000 
     12 O         147.3500  163.1600  105.0400 O.2       2 ALA2        0.0000 
     13 N         148.8200  161.8100  106.7100 N.am      2 ALA2        0.0000 
     14 N         150.1000  164.5200   99.6700 N.am      2 ALA2        0.0000 
     15 O         150.9600  160.9700  105.5000 O.2       2 ALA2        0.0000 
     16 N         151.2400  162.9200  102.7800 N.am      2 ALA2        0.0000 
     17 N         152.5800  163.9300   97.0200 N.am      2 ALA2        0.0000 
     18 N         151.1700  164.6100  101.5000 N.am      2 ALA2        0.0000 
     19 N         151.5100  164.8600  100.0600 N.am      2 ALA2        0.0000 
     20 N         151.8500  165.1200   98.6200 N.am      2 ALA2        0.0000 
     21 O         152.7700  159.8800  105.7300 O.2       2 ALA2        0.0000 
     22 N         153.3800  162.0800  101.5700 N.am      2 ALA2        0.0000 
     23 N         152.9800  163.5200  101.7300 N.am      2 ALA2        0.0000 
     24 N         153.9900  164.2800   97.4100 N.am      2 ALA2        0.0000 
     25 N         152.9200  165.2100  100.4500 N.am      2 ALA2        0.0000 
     26 N         153.2500  165.4600   99.0100 N.am      2 ALA2        0.0000 
     27 N         154.7800  162.4300  101.9600 N.am      2 ALA2        0.0000 
     28 N         155.1200  162.6800  100.5200 N.am      2 ALA2        0.0000 
     29 N         155.4600  162.9300   99.0800 N.am      2 ALA2        0.0000 
     30 N         154.3900  163.8700  102.1200 N.am      2 ALA2        0.0000 
     31 N         154.7200  164.1200  100.6800 N.am      2 ALA2        0.0000 
     32 N         155.0600  164.3700   99.2400 N.am      2 ALA2        0.0000 
     33 O         157.8100  167.7800  103.6100 O.2       2 ALA2        0.0000 
     34 O         159.2100  168.1300  104.0000 O.2       2 ALA2        0.0000 
     35 OD1       155.6400  158.8900  107.7900 O.co2     3 ASP3        0.0000 
     36 OD1       155.9800  159.1400  106.3500 O.co2     3 ASP3        0.0000 
     37 OD1       155.5800  160.5800  106.5100 O.co2     3 ASP3        0.0000 
     38 OD1       155.9200  160.8300  105.0700 O.co2     3 ASP3        0.0000 
     39 OD1       155.1800  162.0100  106.6700 O.co2     3 ASP3        0.0000 
     40 OD1       155.5200  162.2700  105.2300 O.co2     3 ASP3        0.0000 
     41 OD1       157.3800  159.4900  106.7400 O.co2     3 ASP3        0.0000 
     42 OD1       156.8600  164.3000  104.3400 O.co2     3 ASP3        0.0000 
     43 NZ        149.3700  165.7000  101.2700 N.4       4 LYS4        0.0000 
     44 NZ        149.7100  165.9500   99.8300 N.4       4 LYS4        0.0000 
     45 NZ        150.7800  166.0500  101.6600 N.4       4 LYS4        0.0000 
     46 NZ        151.1100  166.3000  100.2200 N.4       4 LYS4        0.0000 
     47 NZ        152.5200  166.6500  100.6100 N.4       4 LYS4        0.0000 
     48 NZ        151.7800  167.8300  102.2100 N.4       4 LYS4        0.0000 
     49 NZ        152.1200  168.0800  100.7700 N.4       4 LYS4        0.0000 
     50 NZ        155.3900  164.6300   97.8000 N.4       4 LYS4        0.0000 
     51 NZ        155.0000  166.0600   97.9600 N.4       4 LYS4        0.0000 
     52 NZ        156.3100  159.3900  104.9100 N.4       4 LYS4        0.0000 
     53 NZ        155.8500  162.5200  103.7900 N.4       4 LYS4        0.0000 
     54 NZ        156.1900  162.7700  102.3500 N.4       4 LYS4        0.0000 
     55 NZ        156.4600  164.7200   99.6300 N.4       4 LYS4        0.0000 
     56 NZ        156.4000  166.4100   98.3500 N.4       4 LYS4        0.0000 
     57 CZ        149.4900  162.3200  103.8300 C.ar      5 PHE5        0.0000 
     58 CZ        148.4200  163.2500  106.8700 C.ar      5 PHE5        0.0000 
     59 CZ        148.7600  163.5000  105.4300 C.ar      5 PHE5        0.0000 
     60 CZ        149.0900  163.7600  103.9900 C.ar      5 PHE5        0.0000 
     61 CZ        149.4300  164.0100  102.5500 C.ar      5 PHE5        0.0000 
     62 CZ        149.7700  164.2600  101.1100 C.ar      5 PHE5        0.0000 
     63 CZ        150.5600  162.4100  105.6600 C.ar      5 PHE5        0.0000 
     64 CZ        150.9000  162.6700  104.2200 C.ar      5 PHE5        0.0000 
     65 CZ        150.8400  164.3600  102.9400 C.ar      5 PHE5        0.0000 
     66 CZ        152.1800  165.3700   97.1800 C.ar      5 PHE5        0.0000 
     67 CZ        152.5200  165.6200   95.7400 C.ar      5 PHE5        0.0000 
     68 CZ        151.4500  166.5500   98.7800 C.ar      5 PHE5        0.0000 
     69 CZ        151.7800  166.8100   97.3400 C.ar      5 PHE5        0.0000 
     70 CZ        152.1200  167.0600   95.9000 C.ar      5 PHE5        0.0000 
     71 CZ        152.3100  163.0100  104.6100 C.ar      5 PHE5        0.0000 
     72 CZ        152.6400  163.2700  103.1700 C.ar      5 PHE5        0.0000 
     73 CZ        152.2400  164.7000  103.3300 C.ar      5 PHE5        0.0000 
     74 CZ        152.5800  164.9600  101.8900 C.ar      5 PHE5        0.0000 
     75 CZ        152.1800  166.3900  102.0500 C.ar      5 PHE5        0.0000 
     76 CZ        153.7100  163.3600  105.0000 C.ar      5 PHE5        0.0000 
     77 CZ        154.0500  163.6100  103.5600 C.ar      5 PHE5        0.0000 
     78 CZ        153.6500  165.0500  103.7200 C.ar      5 PHE5        0.0000 
     79 CZ        153.9900  165.3000  102.2800 C.ar      5 PHE5        0.0000 
     80 CZ        153.5900  166.7400  102.4400 C.ar      5 PHE5        0.0000 
     81 CZ        153.1900  168.1800  102.6000 C.ar      5 PHE5        0.0000 
     82 CZ        155.1200  163.7000  105.3900 C.ar      5 PHE5        0.0000 
     83 CZ        155.4600  163.9600  103.9500 C.ar      5 PHE5        0.0000 
     84 CZ        155.0600  165.4000  104.1100 C.ar      5 PHE5        0.0000 
     85 CZ        155.3900  165.6500  102.6700 C.ar      5 PHE5        0.0000 
     86 CZ        154.9900  167.0900  102.8300 C.ar      5 PHE5        0.0000 
     87 CZ        156.4600  165.7400  104.5000 C.ar      5 PHE5        0.0000 
     88 CZ        156.0600  167.1800  104.6600 C.ar      5 PHE5        0.0000 
     89 CZ        156.4000  167.4300  103.2200 C.ar      5 PHE5        0.0000 
     90 CZ        157.8700  166.0900  104.8900 C.ar      5 PHE5        0.0000 
     91 CZ        157.4700  167.5300  105.0500 C.ar      5 PHE5        0.0000 
     92 CA        154.3200  164.5300   95.9700 C.3       6 GLY6        0.0000 
     93 CA        153.9300  165.9700   96.1300 C.3       6 GLY6        0.0000 
     94 CA        154.5700  158.7900  105.9600 C.3       6 GLY6        0.0000 
     95 CA        154.1700  160.2300  106.1200 C.3       6 GLY6        0.0000 
     96 CA        153.7700  161.6700  106.2800 C.3       6 GLY6        0.0000 
     97 CA        154.1100  161.9200  104.8400 C.3       6 GLY6        0.0000 
     98 CA        155.7900  163.1900   97.6400 C.3       6 GLY6        0.0000 
     99 CA        155.3300  166.3200   96.5200 C.3       6 GLY6        0.0000 
    100 CA        155.2400  160.3200  107.9500 C.3       6 GLY6        0.0000 
    101 CA        156.5300  163.0300  100.9100 C.3       6 GLY6        0.0000 
    102 CA        156.8600  163.2800   99.4700 C.3       6 GLY6        0.0000 
    103 CA        155.7900  164.2100  102.5100 C.3       6 GLY6        0.0000 
    104 CA        156.1300  164.4600  101.0700 C.3       6 GLY6        0.0000 
    105 CA        156.6500  160.6700  108.3400 C.3       6 GLY6        0.0000 
    106 CA        157.2000  164.5600  102.9000 C.3       6 GLY6        0.0000 
    107 CA        157.8700  165.0600  100.0200 C.3       6 GLY6        0.0000 
    108 CA        156.8000  166.0000  103.0600 C.3       6 GLY6        0.0000 
    109 CA        157.1400  166.2500  101.6200 C.3       6 GLY6        0.0000 
    110 CA        158.2100  166.3400  103.4500 C.3       6 GLY6        0.0000 
    111 DU        153.5900  165.7200   97.5700 H         7 CUB7        0.0000 
    112 DU        152.8500  166.9000   99.1700 H         7 CUB7        0.0000 
    113 DU        153.1900  167.1500   97.7300 H         7 CUB7        0.0000 
    114 DU        153.5300  167.4100   96.2900 H         7 CUB7        0.0000 
    115 DU        154.3200  165.5600  100.8400 H         7 CUB7        0.0000 
    116 DU        154.6600  165.8100   99.4000 H         7 CUB7        0.0000 
    117 DU        153.9200  166.9900  101.0000 H         7 CUB7        0.0000 
    118 DU        155.7300  165.9000  101.2300 H         7 CUB7        0.0000 
    119 DU        155.3300  167.3400  101.3900 H         7 CUB7        0.0000 
@<TRIPOS>BOND
@<TRIPOS>SUBSTRUCTURE
     1 SER1        1 GROUP   
     2 ALA2       11 GROUP   
     3 ASP3       35 GROUP   
     4 LYS4       43 GROUP   
     5 PHE5       57 GROUP   
     6 GLY6       92 GROUP   
     7 CUB7      111 GROUP   
@<TRIPOS>SET

