#    Name: 6hz8_5_GDP_CAVITY_N1_8
#    Modification time : Fri May 22 19:39:42 2020

@<TRIPOS>MOLECULE
6hz8_5_GDP_CAVITY_N1_8
  153     0     7     0     0
SMALL
NO_CHARGES


@<TRIPOS>ATOM
      1 OG         89.0200  117.4000  159.9300 O.3       1 SER1        0.0000 
      2 OG         88.6200  118.8300  160.0900 O.3       1 SER1        0.0000 
      3 OG         88.9600  119.0900  158.6500 O.3       1 SER1        0.0000 
      4 OG         93.0300  113.7800  160.2300 O.3       1 SER1        0.0000 
      5 OG         91.5600  116.1400  163.4300 O.3       1 SER1        0.0000 
      6 OG         91.9000  116.4000  161.9900 O.3       1 SER1        0.0000 
      7 OG         92.2300  116.6500  160.5500 O.3       1 SER1        0.0000 
      8 OG         90.8200  117.3300  165.0300 O.3       1 SER1        0.0000 
      9 OG         91.1600  117.5800  163.5900 O.3       1 SER1        0.0000 
     10 OG         91.5000  117.8300  162.1500 O.3       1 SER1        0.0000 
     11 OG         91.8300  118.0900  160.7100 O.3       1 SER1        0.0000 
     12 OG         90.4300  118.7600  165.1900 O.3       1 SER1        0.0000 
     13 OG         90.7600  119.0200  163.7500 O.3       1 SER1        0.0000 
     14 OG         94.4300  114.1200  160.6200 O.3       1 SER1        0.0000 
     15 OG         93.6400  117.0000  160.9400 O.3       1 SER1        0.0000 
     16 OG         92.2300  117.6700  165.4200 O.3       1 SER1        0.0000 
     17 OG         91.8300  119.1100  165.5800 O.3       1 SER1        0.0000 
     18 OG         91.4300  120.5500  165.7400 O.3       1 SER1        0.0000 
     19 OG         90.6400  123.4200  166.0600 O.3       1 SER1        0.0000 
     20 OG         96.7900  116.9200  155.4100 O.3       1 SER1        0.0000 
     21 OG         95.0400  117.3400  161.3300 O.3       1 SER1        0.0000 
     22 OG         93.2400  119.4600  165.9700 O.3       1 SER1        0.0000 
     23 O          87.9500  118.3300  162.9700 O.2       2 ALA2        0.0000 
     24 N          92.2300  115.6300  155.6800 N.am      2 ALA2        0.0000 
     25 O          91.1000  118.2500  157.4400 O.2       2 ALA2        0.0000 
     26 N          93.6400  115.9700  156.0700 N.am      2 ALA2        0.0000 
     27 O          92.9000  117.1600  157.6700 O.2       2 ALA2        0.0000 
     28 O          92.8400  118.8500  156.3900 O.2       2 ALA2        0.0000 
     29 O          91.4400  119.5300  160.8700 O.2       2 ALA2        0.0000 
     30 N          93.0900  113.1100  166.3800 N.am      2 ALA2        0.0000 
     31 N          93.4300  113.3600  164.9400 N.am      2 ALA2        0.0000 
     32 N          93.7600  113.6200  163.5000 N.am      2 ALA2        0.0000 
     33 N          95.4400  114.8800  156.3000 N.am      2 ALA2        0.0000 
     34 N          92.3500  114.2900  167.9800 N.am      2 ALA2        0.0000 
     35 N          92.6900  114.5500  166.5400 N.am      2 ALA2        0.0000 
     36 N          93.7000  115.3100  162.2200 N.am      2 ALA2        0.0000 
     37 N          95.0500  116.3200  156.4600 N.am      2 ALA2        0.0000 
     38 N          95.3800  116.5700  155.0200 N.am      2 ALA2        0.0000 
     39 N          91.6200  115.4800  169.5800 N.am      2 ALA2        0.0000 
     40 N          91.9600  115.7300  168.1400 N.am      2 ALA2        0.0000 
     41 N          92.2900  115.9800  166.7000 N.am      2 ALA2        0.0000 
     42 N          92.6300  116.2400  165.2600 N.am      2 ALA2        0.0000 
     43 O          94.3100  117.5000  158.0600 O.2       2 ALA2        0.0000 
     44 N          90.8800  116.6600  171.1800 N.am      2 ALA2        0.0000 
     45 N          91.2200  116.9100  169.7400 N.am      2 ALA2        0.0000 
     46 N          91.5600  117.1700  168.3000 N.am      2 ALA2        0.0000 
     47 N          91.8900  117.4200  166.8600 N.am      2 ALA2        0.0000 
     48 N          90.8200  118.3500  169.9000 N.am      2 ALA2        0.0000 
     49 N          91.1600  118.6000  168.4600 N.am      2 ALA2        0.0000 
     50 N          91.5000  118.8600  167.0200 N.am      2 ALA2        0.0000 
     51 N          91.3700  122.2400  164.4600 N.am      2 ALA2        0.0000 
     52 N          95.5000  114.2200  162.4500 N.am      2 ALA2        0.0000 
     53 N          97.1900  115.4800  155.2500 N.am      2 ALA2        0.0000 
     54 OD1        89.4800  114.2700  161.0500 O.co2     3 ASP3        0.0000 
     55 OD1        89.0800  115.7000  161.2100 O.co2     3 ASP3        0.0000 
     56 OD1        89.4200  115.9600  159.7700 O.co2     3 ASP3        0.0000 
     57 OD1        89.7600  116.2100  158.3300 O.co2     3 ASP3        0.0000 
     58 OD1        88.6800  117.1400  161.3700 O.co2     3 ASP3        0.0000 
     59 OD1        89.3600  117.6500  158.4900 O.co2     3 ASP3        0.0000 
     60 OD1        89.6900  117.9000  157.0500 O.co2     3 ASP3        0.0000 
     61 OD1        89.3000  119.3400  157.2100 O.co2     3 ASP3        0.0000 
     62 OD1        90.8300  116.3000  160.1600 O.co2     3 ASP3        0.0000 
     63 OD1        91.5000  116.8100  157.2800 O.co2     3 ASP3        0.0000 
     64 OD1        90.3700  119.4300  159.0400 O.co2     3 ASP3        0.0000 
     65 OD1        94.7700  114.3800  159.1800 O.co2     3 ASP3        0.0000 
     66 OD1        95.1100  114.6300  157.7400 O.co2     3 ASP3        0.0000 
     67 OD1        95.8400  114.4700  161.0100 O.co2     3 ASP3        0.0000 
     68 OD1        96.8500  115.2300  156.6900 O.co2     3 ASP3        0.0000 
     69 NZ         87.6700  116.3800  165.6900 N.4       4 LYS4        0.0000 
     70 NZ         88.0100  116.6300  164.2500 N.4       4 LYS4        0.0000 
     71 NZ         88.3500  116.8900  162.8100 N.4       4 LYS4        0.0000 
     72 NZ         91.6200  113.4300  159.8400 N.4       4 LYS4        0.0000 
     73 NZ         90.8900  114.6100  161.4400 N.4       4 LYS4        0.0000 
     74 NZ         91.2200  114.8700  160.0000 N.4       4 LYS4        0.0000 
     75 NZ         91.5600  115.1200  158.5600 N.4       4 LYS4        0.0000 
     76 NZ         91.9000  115.3700  157.1200 N.4       4 LYS4        0.0000 
     77 NZ         89.4800  115.2900  165.9200 N.4       4 LYS4        0.0000 
     78 NZ         90.1500  115.8000  163.0400 N.4       4 LYS4        0.0000 
     79 NZ         90.4900  116.0500  161.6000 N.4       4 LYS4        0.0000 
     80 NZ         91.1600  116.5600  158.7200 N.4       4 LYS4        0.0000 
     81 NZ         89.0800  116.7300  166.0800 N.4       4 LYS4        0.0000 
     82 NZ         89.4200  116.9800  164.6400 N.4       4 LYS4        0.0000 
     83 NZ         89.7500  117.2300  163.2000 N.4       4 LYS4        0.0000 
     84 NZ         92.0200  113.0200  164.5500 N.4       4 LYS4        0.0000 
     85 NZ         93.7000  114.2800  157.3500 N.4       4 LYS4        0.0000 
     86 NZ         91.2800  114.2000  166.1500 N.4       4 LYS4        0.0000 
     87 NZ         91.6200  114.4500  164.7100 N.4       4 LYS4        0.0000 
     88 NZ         91.9600  114.7100  163.2700 N.4       4 LYS4        0.0000 
     89 NZ         92.9700  115.4700  158.9500 N.4       4 LYS4        0.0000 
     90 NZ         93.3000  115.7200  157.5100 N.4       4 LYS4        0.0000 
     91 NZ         90.8900  115.6400  166.3100 N.4       4 LYS4        0.0000 
     92 NZ         91.2200  115.8900  164.8700 N.4       4 LYS4        0.0000 
     93 CZ         92.3600  113.2700  163.1100 C.ar      5 PHE5        0.0000 
     94 CZ         92.6900  113.5200  161.6700 C.ar      5 PHE5        0.0000 
     95 CZ         89.0800  117.7500  170.9500 C.ar      5 PHE5        0.0000 
     96 CZ         89.4200  118.0000  169.5100 C.ar      5 PHE5        0.0000 
     97 CZ         89.7500  118.2600  168.0700 C.ar      5 PHE5        0.0000 
     98 CZ         90.0900  118.5100  166.6300 C.ar      5 PHE5        0.0000 
     99 CZ         89.3500  119.7000  168.2300 C.ar      5 PHE5        0.0000 
    100 CZ         89.6900  119.9500  166.7900 C.ar      5 PHE5        0.0000 
    101 CZ         89.6300  121.6400  165.5100 C.ar      5 PHE5        0.0000 
    102 CZ         89.2300  123.0800  165.6700 C.ar      5 PHE5        0.0000 
    103 CZ         94.1000  113.8700  162.0600 C.ar      5 PHE5        0.0000 
    104 CZ         94.7100  116.0700  157.9000 C.ar      5 PHE5        0.0000 
    105 CZ         90.4200  119.7900  170.0600 C.ar      5 PHE5        0.0000 
    106 CZ         90.7600  120.0400  168.6200 C.ar      5 PHE5        0.0000 
    107 CZ         90.0300  121.2300  170.2200 C.ar      5 PHE5        0.0000 
    108 CZ         90.3600  121.4800  168.7800 C.ar      5 PHE5        0.0000 
    109 CZ         90.7000  121.7300  167.3400 C.ar      5 PHE5        0.0000 
    110 CZ         90.3000  123.1700  167.5000 C.ar      5 PHE5        0.0000 
    111 CZ         95.4400  115.9100  161.1700 C.ar      5 PHE5        0.0000 
    112 CZ         95.7800  116.1600  159.7300 C.ar      5 PHE5        0.0000 
    113 CZ         96.4500  116.6700  156.8500 C.ar      5 PHE5        0.0000 
    114 CZ         95.3800  117.6000  159.8900 C.ar      5 PHE5        0.0000 
    115 CZ         95.7200  117.8500  158.4500 C.ar      5 PHE5        0.0000 
    116 CZ         91.8300  120.1300  170.4500 C.ar      5 PHE5        0.0000 
    117 CZ         92.1700  120.3900  169.0100 C.ar      5 PHE5        0.0000 
    118 CZ         92.5000  120.6400  167.5700 C.ar      5 PHE5        0.0000 
    119 CZ         92.8400  120.8900  166.1300 C.ar      5 PHE5        0.0000 
    120 CZ         92.4400  122.3300  166.2900 C.ar      5 PHE5        0.0000 
    121 CA         88.2900  118.5800  161.5300 C.3       6 GLY6        0.0000 
    122 CA         91.2900  113.1800  161.2800 C.3       6 GLY6        0.0000 
    123 CA         91.8300  117.0700  155.8400 C.3       6 GLY6        0.0000 
    124 CA         91.4400  118.5000  156.0000 C.3       6 GLY6        0.0000 
    125 CA         88.6800  118.1600  166.2400 C.3       6 GLY6        0.0000 
    126 CA         89.0200  118.4200  164.8000 C.3       6 GLY6        0.0000 
    127 CA         89.3600  118.6700  163.3600 C.3       6 GLY6        0.0000 
    128 CA         89.6900  118.9300  161.9200 C.3       6 GLY6        0.0000 
    129 CA         90.0300  119.1800  160.4800 C.3       6 GLY6        0.0000 
    130 CA         93.2400  117.4100  156.2300 C.3       6 GLY6        0.0000 
    131 CA         93.5800  117.6700  154.7900 C.3       6 GLY6        0.0000 
    132 CA         92.1700  118.3400  159.2700 C.3       6 GLY6        0.0000 
    133 CA         91.1000  119.2700  162.3100 C.3       6 GLY6        0.0000 
    134 CA         90.0300  120.2000  165.3500 C.3       6 GLY6        0.0000 
    135 CA         93.9700  117.2500  159.5000 C.3       6 GLY6        0.0000 
    136 CA         94.6500  117.7600  156.6200 C.3       6 GLY6        0.0000 
    137 CA         94.9800  118.0100  155.1800 C.3       6 GLY6        0.0000 
    138 CA         91.7700  120.8000  164.3000 C.3       6 GLY6        0.0000 
    139 CA         91.0400  121.9900  165.9000 C.3       6 GLY6        0.0000 
    140 CA         92.9000  119.2000  167.4100 C.3       6 GLY6        0.0000 
    141 CA         93.1800  121.1500  164.6900 C.3       6 GLY6        0.0000 
    142 DU         90.0900  117.4900  161.7600 H         7 CUB7        0.0000 
    143 DU         90.4300  117.7400  160.3200 H         7 CUB7        0.0000 
    144 DU         90.7600  118.0000  158.8800 H         7 CUB7        0.0000 
    145 DU         92.2900  114.9600  161.8300 H         7 CUB7        0.0000 
    146 DU         92.6300  115.2100  160.3900 H         7 CUB7        0.0000 
    147 DU         90.5500  115.3800  167.7500 H         7 CUB7        0.0000 
    148 DU         92.5700  116.9000  159.1100 H         7 CUB7        0.0000 
    149 DU         90.1500  116.8200  167.9100 H         7 CUB7        0.0000 
    150 DU         90.4900  117.0700  166.4700 H         7 CUB7        0.0000 
    151 DU         94.0400  115.5600  160.7800 H         7 CUB7        0.0000 
    152 DU         94.3700  115.8100  159.3400 H         7 CUB7        0.0000 
    153 DU         91.1000  120.2900  167.1800 H         7 CUB7        0.0000 
@<TRIPOS>BOND
@<TRIPOS>SUBSTRUCTURE
     1 SER1        1 GROUP   
     2 ALA2       23 GROUP   
     3 ASP3       54 GROUP   
     4 LYS4       69 GROUP   
     5 PHE5       93 GROUP   
     6 GLY6      121 GROUP   
     7 CUB7      142 GROUP   
@<TRIPOS>SET

