#    Name: 6hz8_12_GDP_CAVITY_N1_4
#    Modification time : Fri May 22 19:40:21 2020

@<TRIPOS>MOLECULE
6hz8_12_GDP_CAVITY_N1_4
  138     0     7     0     0
SMALL
NO_CHARGES


@<TRIPOS>ATOM
      1 OG        141.3500  159.9700  146.8400 O.3       1 SER1        0.0000 
      2 OG        144.8400  160.1500  139.8700 O.3       1 SER1        0.0000 
      3 OG        143.4300  160.8200  144.3500 O.3       1 SER1        0.0000 
      4 OG        144.7800  161.8400  138.5900 O.3       1 SER1        0.0000 
      5 OG        143.0300  162.2600  144.5100 O.3       1 SER1        0.0000 
      6 OG        145.9100  160.2400  141.7000 O.3       1 SER1        0.0000 
      7 OG        146.2500  160.4900  140.2600 O.3       1 SER1        0.0000 
      8 OG        145.1800  161.4200  143.3000 O.3       1 SER1        0.0000 
      9 OG        145.5100  161.6800  141.8600 O.3       1 SER1        0.0000 
     10 OG        145.8500  161.9300  140.4200 O.3       1 SER1        0.0000 
     11 OG        144.7800  162.8600  143.4600 O.3       1 SER1        0.0000 
     12 OG        145.1100  163.1100  142.0200 O.3       1 SER1        0.0000 
     13 OG        150.9300  158.4000  142.5500 O.3       1 SER1        0.0000 
     14 N         140.5600  162.8500  147.1600 N.am      2 ALA2        0.0000 
     15 N         139.0900  165.2100  150.3600 N.am      2 ALA2        0.0000 
     16 O         145.9700  157.5300  138.1100 O.2       2 ALA2        0.0000 
     17 N         142.3000  163.4400  146.1100 N.am      2 ALA2        0.0000 
     18 N         142.6400  163.7000  144.6700 N.am      2 ALA2        0.0000 
     19 N         141.5600  164.6300  147.7100 N.am      2 ALA2        0.0000 
     20 N         140.4900  165.5600  150.7500 N.am      2 ALA2        0.0000 
     21 N         141.1700  166.0700  147.8700 N.am      2 ALA2        0.0000 
     22 N         140.7700  167.5000  148.0300 N.am      2 ALA2        0.0000 
     23 O         146.3700  157.1100  142.8200 O.2       2 ALA2        0.0000 
     24 O         146.7100  157.3700  141.3800 O.2       2 ALA2        0.0000 
     25 O         147.0400  157.6200  139.9400 O.2       2 ALA2        0.0000 
     26 O         145.9700  158.5500  142.9800 O.2       2 ALA2        0.0000 
     27 O         146.6500  159.0600  140.1000 O.2       2 ALA2        0.0000 
     28 N         144.0400  164.0400  145.0600 N.am      2 ALA2        0.0000 
     29 N         144.3800  164.3000  143.6200 N.am      2 ALA2        0.0000 
     30 N         145.0500  164.8100  140.7400 N.am      2 ALA2        0.0000 
     31 N         143.3100  165.2300  146.6600 N.am      2 ALA2        0.0000 
     32 N         143.6400  165.4800  145.2200 N.am      2 ALA2        0.0000 
     33 O         147.7800  157.4600  143.2100 O.2       2 ALA2        0.0000 
     34 N         145.7900  164.6400  144.0100 N.am      2 ALA2        0.0000 
     35 N         146.1200  164.9000  142.5700 N.am      2 ALA2        0.0000 
     36 N         146.0600  166.5900  141.2900 N.am      2 ALA2        0.0000 
     37 O         149.1800  157.8100  143.6000 O.2       2 ALA2        0.0000 
     38 OD1       146.3100  157.7800  136.6700 O.co2     3 ASP3        0.0000 
     39 OD1       147.4400  156.1800  139.7800 O.co2     3 ASP3        0.0000 
     40 OD1       148.0500  158.3800  135.6200 O.co2     3 ASP3        0.0000 
     41 OD1       146.9800  159.3100  138.6600 O.co2     3 ASP3        0.0000 
     42 OD1       147.3200  159.5600  137.2200 O.co2     3 ASP3        0.0000 
     43 OD1       148.5100  156.2700  141.6100 O.co2     3 ASP3        0.0000 
     44 OD1       148.8500  156.5300  140.1700 O.co2     3 ASP3        0.0000 
     45 OD1       148.1100  157.7100  141.7700 O.co2     3 ASP3        0.0000 
     46 OD1       148.4500  157.9700  140.3300 O.co2     3 ASP3        0.0000 
     47 OD1       149.4600  158.7300  136.0100 O.co2     3 ASP3        0.0000 
     48 OD1       148.0500  159.4000  140.4900 O.co2     3 ASP3        0.0000 
     49 OD1       148.3900  159.6600  139.0500 O.co2     3 ASP3        0.0000 
     50 OD1       147.3200  160.5900  142.0900 O.co2     3 ASP3        0.0000 
     51 OD1       147.6500  160.8400  140.6500 O.co2     3 ASP3        0.0000 
     52 OD1       150.3200  155.1800  141.8400 O.co2     3 ASP3        0.0000 
     53 OD1       149.9200  156.6200  142.0000 O.co2     3 ASP3        0.0000 
     54 OD1       150.2500  156.8700  140.5600 O.co2     3 ASP3        0.0000 
     55 OD1       149.8600  158.3100  140.7200 O.co2     3 ASP3        0.0000 
     56 OD1       150.1900  158.5700  139.2800 O.co2     3 ASP3        0.0000 
     57 OD1       149.1200  159.5000  142.3200 O.co2     3 ASP3        0.0000 
     58 OD1       149.4600  159.7500  140.8800 O.co2     3 ASP3        0.0000 
     59 OD1       149.7900  160.0000  139.4400 O.co2     3 ASP3        0.0000 
     60 OD1       148.7200  160.9300  142.4800 O.co2     3 ASP3        0.0000 
     61 OD1       148.3200  162.3700  142.6400 O.co2     3 ASP3        0.0000 
     62 OD1       147.9300  163.8100  142.8000 O.co2     3 ASP3        0.0000 
     63 OD1       152.0000  157.4700  139.5100 O.co2     3 ASP3        0.0000 
     64 OD1       150.5300  159.8400  142.7100 O.co2     3 ASP3        0.0000 
     65 NZ        146.5800  160.7500  138.8200 N.4       4 LYS4        0.0000 
     66 NZ        146.9200  161.0000  137.3800 N.4       4 LYS4        0.0000 
     67 NZ        146.1800  162.1800  138.9800 N.4       4 LYS4        0.0000 
     68 NZ        145.4500  163.3700  140.5800 N.4       4 LYS4        0.0000 
     69 NZ        148.7200  159.9100  137.6100 N.4       4 LYS4        0.0000 
     70 NZ        149.0600  160.1600  136.1700 N.4       4 LYS4        0.0000 
     71 NZ        147.9900  161.0900  139.2100 N.4       4 LYS4        0.0000 
     72 NZ        147.2500  162.2800  140.8100 N.4       4 LYS4        0.0000 
     73 NZ        146.8600  163.7100  140.9700 N.4       4 LYS4        0.0000 
     74 NZ        146.4600  165.1500  141.1300 N.4       4 LYS4        0.0000 
     75 NZ        150.6500  155.4400  140.4000 N.4       4 LYS4        0.0000 
     76 NZ        151.3200  156.9700  142.3900 N.4       4 LYS4        0.0000 
     77 NZ        151.6600  157.2200  140.9500 N.4       4 LYS4        0.0000 
     78 NZ        151.2600  158.6600  141.1100 N.4       4 LYS4        0.0000 
     79 NZ        151.6000  158.9100  139.6700 N.4       4 LYS4        0.0000 
     80 NZ        152.6700  159.0000  141.5000 N.4       4 LYS4        0.0000 
     81 CZ        144.1700  158.6200  137.8800 C.ar      5 PHE5        0.0000 
     82 CZ        141.6900  160.2200  145.4000 C.ar      5 PHE5        0.0000 
     83 CZ        140.9500  161.4100  147.0000 C.ar      5 PHE5        0.0000 
     84 CZ        139.4200  165.4700  148.9200 C.ar      5 PHE5        0.0000 
     85 CZ        139.0300  166.9000  149.0800 C.ar      5 PHE5        0.0000 
     86 CZ        142.7600  160.3200  147.2300 C.ar      5 PHE5        0.0000 
     87 CZ        142.3600  161.7500  147.3900 C.ar      5 PHE5        0.0000 
     88 CZ        142.7000  162.0100  145.9500 C.ar      5 PHE5        0.0000 
     89 CZ        141.9600  163.1900  147.5500 C.ar      5 PHE5        0.0000 
     90 CZ        141.2300  164.3800  149.1500 C.ar      5 PHE5        0.0000 
     91 CZ        144.1000  162.3500  146.3400 C.ar      5 PHE5        0.0000 
     92 CZ        143.7100  163.7900  146.5000 C.ar      5 PHE5        0.0000 
     93 CZ        142.9700  164.9800  148.1000 C.ar      5 PHE5        0.0000 
     94 CZ        142.2400  166.1600  149.7000 C.ar      5 PHE5        0.0000 
     95 CZ        142.5700  166.4100  148.2600 C.ar      5 PHE5        0.0000 
     96 CZ        145.1100  164.1400  146.8900 C.ar      5 PHE5        0.0000 
     97 CZ        145.4500  164.3900  145.4500 C.ar      5 PHE5        0.0000 
     98 CZ        146.5200  164.4800  147.2800 C.ar      5 PHE5        0.0000 
     99 CZ        146.8600  164.7400  145.8400 C.ar      5 PHE5        0.0000 
    100 CZ        149.0000  163.9000  144.6300 C.ar      5 PHE5        0.0000 
    101 CZ        147.9300  164.8300  147.6700 C.ar      5 PHE5        0.0000 
    102 CZ        148.6000  165.3400  144.7900 C.ar      5 PHE5        0.0000 
    103 CA        141.2900  161.6600  145.5600 C.3       6 GLY6        0.0000 
    104 CA        138.6900  166.6500  150.5200 C.3       6 GLY6        0.0000 
    105 CA        145.5800  158.9600  138.2700 C.3       6 GLY6        0.0000 
    106 CA        143.1000  160.5700  145.7900 C.3       6 GLY6        0.0000 
    107 CA        146.3100  158.8000  141.5400 C.3       6 GLY6        0.0000 
    108 CA        145.5700  159.9900  143.1400 C.3       6 GLY6        0.0000 
    109 CA        144.5000  160.9200  146.1800 C.3       6 GLY6        0.0000 
    110 CA        144.8400  161.1700  144.7400 C.3       6 GLY6        0.0000 
    111 CA        144.4400  162.6100  144.9000 C.3       6 GLY6        0.0000 
    112 CA        147.3800  158.9000  143.3700 C.3       6 GLY6        0.0000 
    113 CA        146.9800  160.3300  143.5300 C.3       6 GLY6        0.0000 
    114 CA        146.2500  161.5200  145.1300 C.3       6 GLY6        0.0000 
    115 CA        145.8500  162.9500  145.2900 C.3       6 GLY6        0.0000 
    116 CA        149.5800  156.3700  143.4400 C.3       6 GLY6        0.0000 
    117 CA        148.7900  159.2400  143.7600 C.3       6 GLY6        0.0000 
    118 CA        148.3900  160.6800  143.9200 C.3       6 GLY6        0.0000 
    119 CA        147.6500  161.8600  145.5200 C.3       6 GLY6        0.0000 
    120 CA        147.2500  163.3000  145.6800 C.3       6 GLY6        0.0000 
    121 CA        149.7900  161.0300  144.3100 C.3       6 GLY6        0.0000 
    122 CA        149.0600  162.2100  145.9100 C.3       6 GLY6        0.0000 
    123 CA        149.3900  162.4600  144.4700 C.3       6 GLY6        0.0000 
    124 CA        148.3200  163.3900  147.5100 C.3       6 GLY6        0.0000 
    125 DU        145.9100  159.2200  136.8300 H         7 CUB7        0.0000 
    126 DU        145.1800  160.4000  138.4300 H         7 CUB7        0.0000 
    127 DU        140.8300  165.8100  149.3100 H         7 CUB7        0.0000 
    128 DU        147.6500  159.8200  135.7800 H         7 CUB7        0.0000 
    129 DU        147.7200  159.1500  141.9300 H         7 CUB7        0.0000 
    130 DU        146.5800  161.7700  143.6900 H         7 CUB7        0.0000 
    131 DU        146.9200  162.0200  142.2500 H         7 CUB7        0.0000 
    132 DU        146.1800  163.2100  143.8500 H         7 CUB7        0.0000 
    133 DU        146.5200  163.4600  142.4100 H         7 CUB7        0.0000 
    134 DU        149.5200  158.0600  142.1600 H         7 CUB7        0.0000 
    135 DU        147.9900  162.1200  144.0800 H         7 CUB7        0.0000 
    136 DU        147.5900  163.5500  144.2400 H         7 CUB7        0.0000 
    137 DU        148.6600  163.6500  146.0700 H         7 CUB7        0.0000 
    138 DU        148.2600  165.0800  146.2300 H         7 CUB7        0.0000 
@<TRIPOS>BOND
@<TRIPOS>SUBSTRUCTURE
     1 SER1        1 GROUP   
     2 ALA2       14 GROUP   
     3 ASP3       38 GROUP   
     4 LYS4       65 GROUP   
     5 PHE5       81 GROUP   
     6 GLY6      103 GROUP   
     7 CUB7      125 GROUP   
@<TRIPOS>SET

