#    Name: 6hz8_8_GNP
#    Modification time : Fri May 22 19:40:00 2020

@<TRIPOS>MOLECULE
6hz8_8_GNP
   45    47     1     0     1
SMALL
NO_CHARGES


@<TRIPOS>ATOM
      1 PG        176.4470  137.6020   97.7210 P.3       1 GNP1001     0.0000 
      2 O1G       174.9770  137.5130   97.6970 O.co2     1 GNP1001     0.0000 
      3 O2G       176.9990  136.3850   98.3470 O.co2     1 GNP1001     0.0000 
      4 O3G       176.8140  138.7910   98.5160 O.co2     1 GNP1001     0.0000 
      5 N3B       177.0530  137.7540   96.2570 N.3       1 GNP1001     0.0000 
      6 PB        176.3980  138.6870   95.2450 P.3       1 GNP1001     0.0000 
      7 O1B       174.9430  138.5720   95.2930 O.co2     1 GNP1001     0.0000 
      8 O2B       176.8550  140.0670   95.4970 O.co2     1 GNP1001     0.0000 
      9 O3A       176.9010  138.2290   93.8250 O.3       1 GNP1001     0.0000 
     10 PA        178.1680  138.9770   93.2570 P.3       1 GNP1001     0.0000 
     11 O1A       177.8220  140.3490   92.8380 O.co2     1 GNP1001     0.0000 
     12 O2A       179.1860  139.0640   94.3190 O.co2     1 GNP1001     0.0000 
     13 O5'       178.7080  138.1500   92.0160 O.3       1 GNP1001     0.0000 
     14 C5'       179.5290  137.0210   92.2380 C.3       1 GNP1001     0.0000 
     15 C4'       180.2320  136.4900   90.9650 C.3       1 GNP1001     0.0000 
     16 O4'       179.2740  136.2730   89.8510 O.3       1 GNP1001     0.0000 
     17 C3'       181.2690  137.4480   90.3890 C.3       1 GNP1001     0.0000 
     18 O3'       182.2350  136.7020   89.6310 O.3       1 GNP1001     0.0000 
     19 C2'       180.4150  138.2750   89.4750 C.3       1 GNP1001     0.0000 
     20 O2'       181.1820  139.0610   88.5660 O.3       1 GNP1001     0.0000 
     21 C1'       179.7000  137.1500   88.7620 C.3       1 GNP1001     0.0000 
     22 N9        178.6260  137.6970   87.9400 N.pl3     1 GNP1001     0.0000 
     23 C8        177.3620  137.8830   88.2810 C.2       1 GNP1001     0.0000 
     24 N7        176.7320  138.4110   87.2380 N.2       1 GNP1001     0.0000 
     25 C5        177.6190  138.5680   86.2600 C.2       1 GNP1001     0.0000 
     26 C6        177.4950  139.0570   85.0320 C.2       1 GNP1001     0.0000 
     27 O6        176.4080  139.4610   84.6220 O.2       1 GNP1001     0.0000 
     28 N1        178.6130  139.1030   84.1990 N.am      1 GNP1001     0.0000 
     29 C2        179.8310  138.6320   84.6860 C.2       1 GNP1001     0.0000 
     30 N2        180.9220  138.6610   83.9310 N.pl3     1 GNP1001     0.0000 
     31 N3        179.8920  138.1580   85.9320 N.2       1 GNP1001     0.0000 
     32 C4        178.7940  138.1210   86.6980 C.2       1 GNP1001     0.0000 
     33 HNB3      177.8900  137.2880   96.0080 H         1 GNP1001     0.0000 
     34 H5'2      178.8960  136.2390   92.6460 H         1 GNP1001     0.0000 
     35 H5'1      180.2810  137.2760   92.9780 H         1 GNP1001     0.0000 
     36 H4'       180.7510  135.5980   91.2780 H         1 GNP1001     0.0000 
     37 H3'       181.7810  138.0200   91.1620 H         1 GNP1001     0.0000 
     38 HO3'      182.8900  137.3250   89.2080 H         1 GNP1001     0.0000 
     39 H2'       179.7240  138.8750   90.0250 H         1 GNP1001     0.0000 
     40 HO2'      181.7980  138.4710   88.0530 H         1 GNP1001     0.0000 
     41 H1'       180.3730  136.5890   88.1240 H         1 GNP1001     0.0000 
     42 H8        176.9180  137.6250   89.2360 H         1 GNP1001     0.0000 
     43 HN1       178.5410  139.4640   83.2710 H         1 GNP1001     0.0000 
     44 HN21      180.8810  139.0370   83.0070 H         1 GNP1001     0.0000 
     45 HN22      181.7850  138.3120   84.2940 H         1 GNP1001     0.0000 
@<TRIPOS>BOND
     1    1    2 ar   
     2    1    3 ar   
     3    1    4 ar   
     4    1    5 1    
     5    5    6 1    
     6    5   33 1    
     7    6    7 ar   
     8    6    8 ar   
     9    6    9 1    
    10    9   10 1    
    11   10   11 ar   
    12   10   12 ar   
    13   10   13 1    
    14   13   14 1    
    15   14   15 1    
    16   14   34 1    
    17   14   35 1    
    18   15   16 1    
    19   15   17 1    
    20   15   36 1    
    21   16   21 1    
    22   17   18 1    
    23   17   19 1    
    24   17   37 1    
    25   18   38 1    
    26   19   20 1    
    27   19   21 1    
    28   19   39 1    
    29   20   40 1    
    30   21   22 1    
    31   21   41 1    
    32   22   23 1    
    33   22   32 1    
    34   23   24 2    
    35   23   42 1    
    36   24   25 1    
    37   25   26 1    
    38   25   32 2    
    39   26   27 2    
    40   26   28 am   
    41   28   29 1    
    42   28   43 1    
    43   29   30 1    
    44   29   31 2    
    45   30   44 1    
    46   30   45 1    
    47   31   32 1    
@<TRIPOS>SUBSTRUCTURE
     1 GNP1001     1 GROUP   
@<TRIPOS>SET
ATOM$ORANGE STATIC     ATOMS   COLORGROUP SYSTEM 
20 14 14 15 15 17 17 19 19 21 21 23 23 25 25 26 26 29 \
29 32 32 

