#    Name: 6hz8_7_GNP
#    Modification time : Fri May 22 19:39:54 2020

@<TRIPOS>MOLECULE
6hz8_7_GNP
   45    47     1     0     1
SMALL
NO_CHARGES


@<TRIPOS>ATOM
      1 PG        157.0790  155.7990  109.9460 P.3       1 GNP1001     0.0000 
      2 O1G       157.7000  154.7110  109.1660 O.co2     1 GNP1001     0.0000 
      3 O2G       156.0660  155.2380  110.8540 O.co2     1 GNP1001     0.0000 
      4 O3G       158.1000  156.5070  110.7400 O.co2     1 GNP1001     0.0000 
      5 N3B       156.4240  156.7960  108.9600 N.3       1 GNP1001     0.0000 
      6 PB        155.5910  157.9510  109.4830 P.3       1 GNP1001     0.0000 
      7 O1B       156.4790  158.9470  110.1180 O.co2     1 GNP1001     0.0000 
      8 O2B       154.5600  157.4800  110.4260 O.co2     1 GNP1001     0.0000 
      9 O3A       154.9430  158.5370  108.1460 O.3       1 GNP1001     0.0000 
     10 PA        155.3960  160.0190  107.7610 P.3       1 GNP1001     0.0000 
     11 O1A       156.8720  160.0870  107.7460 O.co2     1 GNP1001     0.0000 
     12 O2A       154.8930  160.9620  108.7800 O.co2     1 GNP1001     0.0000 
     13 O5'       154.8350  160.4180  106.3080 O.3       1 GNP1001     0.0000 
     14 C5'       155.5620  159.9740  105.1630 C.3       1 GNP1001     0.0000 
     15 C4'       155.0760  160.6040  103.8490 C.3       1 GNP1001     0.0000 
     16 O4'       153.6060  160.5080  103.8940 O.3       1 GNP1001     0.0000 
     17 C3'       155.3810  162.0880  103.7180 C.3       1 GNP1001     0.0000 
     18 O3'       155.4870  162.4480  102.3370 O.3       1 GNP1001     0.0000 
     19 C2'       154.1330  162.6740  104.2890 C.3       1 GNP1001     0.0000 
     20 O2'       153.9940  164.0480  103.9070 O.3       1 GNP1001     0.0000 
     21 C1'       153.1230  161.8280  103.5720 C.3       1 GNP1001     0.0000 
     22 N9        151.7860  162.1010  104.0990 N.pl3     1 GNP1001     0.0000 
     23 C8        151.1690  161.5220  105.1200 C.2       1 GNP1001     0.0000 
     24 N7        149.9800  162.0930  105.2590 N.2       1 GNP1001     0.0000 
     25 C5        149.8770  163.0430  104.3380 C.2       1 GNP1001     0.0000 
     26 C6        148.9030  163.8990  104.0670 C.2       1 GNP1001     0.0000 
     27 O6        147.8650  163.8990  104.7220 O.2       1 GNP1001     0.0000 
     28 N1        149.0650  164.8070  103.0270 N.am      1 GNP1001     0.0000 
     29 C2        150.2520  164.7880  102.3000 C.2       1 GNP1001     0.0000 
     30 N2        150.4600  165.6330  101.2990 N.pl3     1 GNP1001     0.0000 
     31 N3        151.1960  163.9070  102.6230 N.2       1 GNP1001     0.0000 
     32 C4        150.9980  163.0440  103.6210 C.2       1 GNP1001     0.0000 
     33 HNB3      156.5940  156.7200  107.9850 H         1 GNP1001     0.0000 
     34 H5'2      155.4320  158.8960  105.1030 H         1 GNP1001     0.0000 
     35 H5'1      156.6120  160.2090  105.2870 H         1 GNP1001     0.0000 
     36 H4'       155.5530  160.0870  103.0260 H         1 GNP1001     0.0000 
     37 H3'       156.2770  162.3860  104.2300 H         1 GNP1001     0.0000 
     38 HO3'      155.5980  163.4380  102.2660 H         1 GNP1001     0.0000 
     39 H2'       154.0810  162.4990  105.3450 H         1 GNP1001     0.0000 
     40 HO2'      154.7330  164.5790  104.3130 H         1 GNP1001     0.0000 
     41 H1'       153.1620  161.9950  102.5050 H         1 GNP1001     0.0000 
     42 H8        151.5540  160.6980  105.7120 H         1 GNP1001     0.0000 
     43 HN1       148.3390  165.4560  102.8080 H         1 GNP1001     0.0000 
     44 HN21      149.7600  166.3010  101.0480 H         1 GNP1001     0.0000 
     45 HN22      151.3250  165.5990  100.7990 H         1 GNP1001     0.0000 
@<TRIPOS>BOND
     1    1    2 ar   
     2    1    3 ar   
     3    1    4 ar   
     4    1    5 1    
     5    5    6 1    
     6    5   33 1    
     7    6    7 ar   
     8    6    8 ar   
     9    6    9 1    
    10    9   10 1    
    11   10   11 ar   
    12   10   12 ar   
    13   10   13 1    
    14   13   14 1    
    15   14   15 1    
    16   14   34 1    
    17   14   35 1    
    18   15   16 1    
    19   15   17 1    
    20   15   36 1    
    21   16   21 1    
    22   17   18 1    
    23   17   19 1    
    24   17   37 1    
    25   18   38 1    
    26   19   20 1    
    27   19   21 1    
    28   19   39 1    
    29   20   40 1    
    30   21   22 1    
    31   21   41 1    
    32   22   23 1    
    33   22   32 1    
    34   23   24 2    
    35   23   42 1    
    36   24   25 1    
    37   25   26 1    
    38   25   32 2    
    39   26   27 2    
    40   26   28 am   
    41   28   29 1    
    42   28   43 1    
    43   29   30 1    
    44   29   31 2    
    45   30   44 1    
    46   30   45 1    
    47   31   32 1    
@<TRIPOS>SUBSTRUCTURE
     1 GNP1001     1 GROUP   
@<TRIPOS>SET
ATOM$ORANGE STATIC     ATOMS   COLORGROUP SYSTEM 
20 14 14 15 15 17 17 19 19 21 21 23 23 25 25 26 26 29 \
29 32 32 

