#    Name: 6hz8_10_GDP
#    Modification time : Fri May 22 19:40:07 2020

@<TRIPOS>MOLECULE
6hz8_10_GDP
   40    42     1     0     1
SMALL
NO_CHARGES


@<TRIPOS>ATOM
      1 PB        183.2280  110.5530  143.9830 P.3       1 GDP1001     0.0000 
      2 O1B       183.8630  109.4150  143.2880 O.co2     1 GDP1001     0.0000 
      3 O2B       181.7910  110.6080  143.6440 O.co2     1 GDP1001     0.0000 
      4 O3B       183.8630  111.8150  143.5500 O.co2     1 GDP1001     0.0000 
      5 O3A       183.3930  110.3680  145.5670 O.3       1 GDP1001     0.0000 
      6 PA        184.5730  111.1160  146.3590 P.3       1 GDP1001     0.0000 
      7 O1A       185.6770  111.4240  145.4310 O.co2     1 GDP1001     0.0000 
      8 O2A       184.0260  112.3740  146.9100 O.co2     1 GDP1001     0.0000 
      9 O5'       185.1330  110.1590  147.5460 O.3       1 GDP1001     0.0000 
     10 C5'       184.7080  110.4030  148.8890 C.3       1 GDP1001     0.0000 
     11 C4'       185.4650  109.6110  149.9820 C.3       1 GDP1001     0.0000 
     12 O4'       185.3050  108.1800  149.6580 O.3       1 GDP1001     0.0000 
     13 C3'       186.9760  109.8240  150.0280 C.3       1 GDP1001     0.0000 
     14 O3'       187.4350  109.6110  151.3780 O.3       1 GDP1001     0.0000 
     15 C2'       187.4320  108.7200  149.1350 C.3       1 GDP1001     0.0000 
     16 O2'       188.8280  108.4630  149.2740 O.3       1 GDP1001     0.0000 
     17 C1'       186.6250  107.5880  149.7210 C.3       1 GDP1001     0.0000 
     18 N9        186.7780  106.3920  148.8780 N.pl3     1 GDP1001     0.0000 
     19 C8        186.2350  106.3040  147.6760 C.2       1 GDP1001     0.0000 
     20 N7        186.5580  105.1350  147.1500 N.2       1 GDP1001     0.0000 
     21 C5        187.3130  104.4990  148.0300 C.2       1 GDP1001     0.0000 
     22 C6        187.8820  103.3090  147.9600 C.2       1 GDP1001     0.0000 
     23 O6        187.7330  102.5990  146.9690 O.2       1 GDP1001     0.0000 
     24 N1        188.6310  102.8450  149.0300 N.am      1 GDP1001     0.0000 
     25 C2        188.7730  103.6690  150.1430 C.2       1 GDP1001     0.0000 
     26 N2        189.4860  103.2600  151.1830 N.pl3     1 GDP1001     0.0000 
     27 N3        188.1820  104.8690  150.1550 N.2       1 GDP1001     0.0000 
     28 C4        187.4590  105.2750  149.1030 C.2       1 GDP1001     0.0000 
     29 H5'       183.6580  110.1320  148.9360 H         1 GDP1001     0.0000 
     30 H5''      184.8120  111.4620  149.1000 H         1 GDP1001     0.0000 
     31 H4'       185.0570  109.9230  150.9300 H         1 GDP1001     0.0000 
     32 H3'       187.2780  110.8110  149.6890 H         1 GDP1001     0.0000 
     33 HO3'      188.4290  109.6760  151.4190 H         1 GDP1001     0.0000 
     34 H2'       187.1310  108.9160  148.1190 H         1 GDP1001     0.0000 
     35 HO2'      189.0450  108.2750  150.2280 H         1 GDP1001     0.0000 
     36 H1'       186.8960  107.3860  150.7470 H         1 GDP1001     0.0000 
     37 H8        185.6240  107.0680  147.2040 H         1 GDP1001     0.0000 
     38 HN1       189.0630  101.9450  148.9920 H         1 GDP1001     0.0000 
     39 HN21      189.9030  102.3560  151.1520 H         1 GDP1001     0.0000 
     40 HN22      189.5960  103.8420  151.9870 H         1 GDP1001     0.0000 
@<TRIPOS>BOND
     1    1    2 ar   
     2    1    3 ar   
     3    1    4 ar   
     4    1    5 1    
     5    5    6 1    
     6    6    7 ar   
     7    6    8 ar   
     8    6    9 1    
     9    9   10 1    
    10   10   11 1    
    11   10   29 1    
    12   10   30 1    
    13   11   12 1    
    14   11   13 1    
    15   11   31 1    
    16   12   17 1    
    17   13   14 1    
    18   13   15 1    
    19   13   32 1    
    20   14   33 1    
    21   15   16 1    
    22   15   17 1    
    23   15   34 1    
    24   16   35 1    
    25   17   18 1    
    26   17   36 1    
    27   18   19 1    
    28   18   28 1    
    29   19   20 2    
    30   19   37 1    
    31   20   21 1    
    32   21   22 1    
    33   21   28 2    
    34   22   23 2    
    35   22   24 am   
    36   24   25 1    
    37   24   38 1    
    38   25   26 1    
    39   25   27 2    
    40   26   39 1    
    41   26   40 1    
    42   27   28 1    
@<TRIPOS>SUBSTRUCTURE
     1 GDP1001     1 GROUP   
@<TRIPOS>SET
ATOM$ORANGE STATIC     ATOMS   COLORGROUP SYSTEM 
20 10 10 11 11 13 13 15 15 17 17 19 19 21 21 22 22 25 \
25 28 28 

