#    Name: 6hz8_1_GNP
#    Modification time : Fri May 22 19:39:14 2020

@<TRIPOS>MOLECULE
6hz8_1_GNP
   45    47     1     0     1
SMALL
NO_CHARGES


@<TRIPOS>ATOM
      1 PG         94.9210   96.2010  109.9460 P.3       1 GNP1001     0.0000 
      2 O1G        94.3000   97.2890  109.1660 O.co2     1 GNP1001     0.0000 
      3 O2G        95.9340   96.7620  110.8540 O.co2     1 GNP1001     0.0000 
      4 O3G        93.9000   95.4930  110.7400 O.co2     1 GNP1001     0.0000 
      5 N3B        95.5760   95.2030  108.9600 N.3       1 GNP1001     0.0000 
      6 PB         96.4080   94.0490  109.4830 P.3       1 GNP1001     0.0000 
      7 O1B        95.5210   93.0530  110.1180 O.co2     1 GNP1001     0.0000 
      8 O2B        97.4390   94.5200  110.4260 O.co2     1 GNP1001     0.0000 
      9 O3A        97.0570   93.4630  108.1460 O.3       1 GNP1001     0.0000 
     10 PA         96.6040   91.9810  107.7610 P.3       1 GNP1001     0.0000 
     11 O1A        95.1280   91.9130  107.7460 O.co2     1 GNP1001     0.0000 
     12 O2A        97.1070   91.0380  108.7800 O.co2     1 GNP1001     0.0000 
     13 O5'        97.1650   91.5820  106.3080 O.3       1 GNP1001     0.0000 
     14 C5'        96.4380   92.0260  105.1630 C.3       1 GNP1001     0.0000 
     15 C4'        96.9230   91.3960  103.8490 C.3       1 GNP1001     0.0000 
     16 O4'        98.3940   91.4920  103.8940 O.3       1 GNP1001     0.0000 
     17 C3'        96.6190   89.9120  103.7180 C.3       1 GNP1001     0.0000 
     18 O3'        96.5120   89.5510  102.3370 O.3       1 GNP1001     0.0000 
     19 C2'        97.8670   89.3260  104.2890 C.3       1 GNP1001     0.0000 
     20 O2'        98.0060   87.9520  103.9070 O.3       1 GNP1001     0.0000 
     21 C1'        98.8770   90.1720  103.5720 C.3       1 GNP1001     0.0000 
     22 N9        100.2140   89.8990  104.0990 N.pl3     1 GNP1001     0.0000 
     23 C8        100.8300   90.4780  105.1200 C.2       1 GNP1001     0.0000 
     24 N7        102.0200   89.9070  105.2590 N.2       1 GNP1001     0.0000 
     25 C5        102.1220   88.9570  104.3380 C.2       1 GNP1001     0.0000 
     26 C6        103.0970   88.1010  104.0670 C.2       1 GNP1001     0.0000 
     27 O6        104.1350   88.1010  104.7220 O.2       1 GNP1001     0.0000 
     28 N1        102.9350   87.1930  103.0270 N.am      1 GNP1001     0.0000 
     29 C2        101.7480   87.2110  102.3000 C.2       1 GNP1001     0.0000 
     30 N2        101.5400   86.3660  101.2990 N.pl3     1 GNP1001     0.0000 
     31 N3        100.8040   88.0930  102.6230 N.2       1 GNP1001     0.0000 
     32 C4        101.0020   88.9560  103.6210 C.2       1 GNP1001     0.0000 
     33 HNB3       95.4160   95.2720  107.9890 H         1 GNP1001     0.0000 
     34 H5'2       96.5680   93.1040  105.1030 H         1 GNP1001     0.0000 
     35 H5'1       95.3880   91.7900  105.2880 H         1 GNP1001     0.0000 
     36 H4'        96.4470   91.9120  103.0260 H         1 GNP1001     0.0000 
     37 H3'        95.7150   89.6130  104.2390 H         1 GNP1001     0.0000 
     38 HO3'       96.4010   88.5620  102.2660 H         1 GNP1001     0.0000 
     39 H2'        97.9200   89.5010  105.3450 H         1 GNP1001     0.0000 
     40 HO2'       97.2670   87.4210  104.3130 H         1 GNP1001     0.0000 
     41 H1'        98.8380   90.0050  102.5050 H         1 GNP1001     0.0000 
     42 H8        100.4460   91.3020  105.7120 H         1 GNP1001     0.0000 
     43 HN1       103.6610   86.5440  102.8080 H         1 GNP1001     0.0000 
     44 HN21      102.2400   85.6990  101.0480 H         1 GNP1001     0.0000 
     45 HN22      100.6750   86.4010  100.7990 H         1 GNP1001     0.0000 
@<TRIPOS>BOND
     1    1    2 ar   
     2    1    3 ar   
     3    1    4 ar   
     4    1    5 1    
     5    5    6 1    
     6    5   33 1    
     7    6    7 ar   
     8    6    8 ar   
     9    6    9 1    
    10    9   10 1    
    11   10   11 ar   
    12   10   12 ar   
    13   10   13 1    
    14   13   14 1    
    15   14   15 1    
    16   14   34 1    
    17   14   35 1    
    18   15   16 1    
    19   15   17 1    
    20   15   36 1    
    21   16   21 1    
    22   17   18 1    
    23   17   19 1    
    24   17   37 1    
    25   18   38 1    
    26   19   20 1    
    27   19   21 1    
    28   19   39 1    
    29   20   40 1    
    30   21   22 1    
    31   21   41 1    
    32   22   23 1    
    33   22   32 1    
    34   23   24 2    
    35   23   42 1    
    36   24   25 1    
    37   25   26 1    
    38   25   32 2    
    39   26   27 2    
    40   26   28 am   
    41   28   29 1    
    42   28   43 1    
    43   29   30 1    
    44   29   31 2    
    45   30   44 1    
    46   30   45 1    
    47   31   32 1    
@<TRIPOS>SUBSTRUCTURE
     1 GNP1001     1 GROUP   
@<TRIPOS>SET
ATOM$ORANGE STATIC     ATOMS   COLORGROUP SYSTEM 
20 14 14 15 15 17 17 19 19 21 21 23 23 25 25 26 26 29 \
29 32 32 

