#    Name: 6hz8_1_GNP_CAVITY_N1_8
#    Modification time : Fri May 22 19:39:16 2020

@<TRIPOS>MOLECULE
6hz8_1_GNP_CAVITY_N1_8
  121     0     7     0     0
SMALL
NO_CHARGES


@<TRIPOS>ATOM
      1 OG         97.3000   90.0900  102.3600 O.3       1 SER1        0.0000 
      2 OG         96.5700   91.2800  103.9500 O.3       1 SER1        0.0000 
      3 OG         96.1700   92.7200  104.1100 O.3       1 SER1        0.0000 
      4 OG         98.3700   90.1900  104.1800 O.3       1 SER1        0.0000 
      5 OG         98.7100   90.4400  102.7400 O.3       1 SER1        0.0000 
      6 OG         97.9700   91.6200  104.3400 O.3       1 SER1        0.0000 
      7 OG         99.7800   90.5300  104.5700 O.3       1 SER1        0.0000 
      8 OG        100.1100   90.7900  103.1300 O.3       1 SER1        0.0000 
      9 OG         99.3800   91.9700  104.7300 O.3       1 SER1        0.0000 
     10 OG        101.1800   90.8800  104.9600 O.3       1 SER1        0.0000 
     11 OG        102.9900   89.7900  105.1900 O.3       1 SER1        0.0000 
     12 N          97.0300   87.1300  100.2100 N.am      2 ALA2        0.0000 
     13 N          97.3600   87.3800   98.7700 N.am      2 ALA2        0.0000 
     14 N          97.7000   87.6300   97.3300 N.am      2 ALA2        0.0000 
     15 N          98.0400   87.8900   95.8900 N.am      2 ALA2        0.0000 
     16 N          96.6300   88.5600  100.3700 N.am      2 ALA2        0.0000 
     17 N          96.9700   88.8200   98.9300 N.am      2 ALA2        0.0000 
     18 N          97.3000   89.0700   97.4900 N.am      2 ALA2        0.0000 
     19 N          96.2300   90.0000  100.5300 N.am      2 ALA2        0.0000 
     20 N          98.8300   86.0400  100.4400 N.am      2 ALA2        0.0000 
     21 N          99.1700   86.2900   99.0000 N.am      2 ALA2        0.0000 
     22 N          98.4300   87.4700  100.6000 N.am      2 ALA2        0.0000 
     23 N          99.1100   87.9800   97.7200 N.am      2 ALA2        0.0000 
     24 N          97.7000   88.6600  102.1900 N.am      2 ALA2        0.0000 
     25 N          97.6400   90.3500  100.9200 N.am      2 ALA2        0.0000 
     26 N         100.2400   86.3800  100.8300 N.am      2 ALA2        0.0000 
     27 N         100.5700   86.6400   99.3900 N.am      2 ALA2        0.0000 
     28 N          99.1100   89.0000  102.5800 N.am      2 ALA2        0.0000 
     29 O          96.5600   92.3000  108.8200 O.2       2 ALA2        0.0000 
     30 O          96.9000   92.5600  107.3800 O.2       2 ALA2        0.0000 
     31 O          97.2400   92.8100  105.9400 O.2       2 ALA2        0.0000 
     32 N         101.2500   88.1700  101.3700 N.am      2 ALA2        0.0000 
     33 N         100.5100   89.3500  102.9700 N.am      2 ALA2        0.0000 
     34 O          98.6400   93.1600  106.3300 O.2       2 ALA2        0.0000 
     35 O          97.5700   94.0900  109.3700 O.2       2 ALA2        0.0000 
     36 O          97.9100   94.3400  107.9300 O.2       2 ALA2        0.0000 
     37 O         103.3900   88.3500  105.0300 O.2       2 ALA2        0.0000 
     38 N         102.6500   89.5400  106.6300 N.am      2 ALA2        0.0000 
     39 OD1        98.8300   85.0100   95.5700 O.co2     3 ASP3        0.0000 
     40 OD1        95.6200   87.8000  104.6800 O.co2     3 ASP3        0.0000 
     41 OD1        96.6300   89.5900  105.2300 O.co2     3 ASP3        0.0000 
     42 OD1        96.2300   91.0200  105.3900 O.co2     3 ASP3        0.0000 
     43 OD1        95.4900   92.2100  106.9900 O.co2     3 ASP3        0.0000 
     44 OD1        95.8300   92.4600  105.5500 O.co2     3 ASP3        0.0000 
     45 OD1        94.7600   93.3900  108.5900 O.co2     3 ASP3        0.0000 
     46 OD1        95.1000   93.6500  107.1500 O.co2     3 ASP3        0.0000 
     47 OD1        95.4300   93.9000  105.7100 O.co2     3 ASP3        0.0000 
     48 OD1        96.1700   93.7400  108.9800 O.co2     3 ASP3        0.0000 
     49 OD1        96.5000   93.9900  107.5400 O.co2     3 ASP3        0.0000 
     50 OD1        95.7700   95.1800  109.1400 O.co2     3 ASP3        0.0000 
     51 OD1        96.1000   95.4300  107.7000 O.co2     3 ASP3        0.0000 
     52 NZ         92.8100   86.0900   99.0400 N.4       4 LYS4        0.0000 
     53 NZ         94.2100   86.4300   99.4300 N.4       4 LYS4        0.0000 
     54 NZ         96.3600   85.6000   98.2200 N.4       4 LYS4        0.0000 
     55 NZ         95.6200   86.7800   99.8200 N.4       4 LYS4        0.0000 
     56 NZ         95.9600   87.0300   98.3800 N.4       4 LYS4        0.0000 
     57 NZ         96.2900   87.2900   96.9400 N.4       4 LYS4        0.0000 
     58 NZ         95.5600   88.4700   98.5400 N.4       4 LYS4        0.0000 
     59 NZ         95.9000   88.7300   97.1000 N.4       4 LYS4        0.0000 
     60 NZ         95.9600   88.0600  103.2400 N.4       4 LYS4        0.0000 
     61 NZ         96.2900   88.3100  101.8100 N.4       4 LYS4        0.0000 
     62 NZ         95.8900   89.7500  101.9700 N.4       4 LYS4        0.0000 
     63 NZ         99.2300   84.6000  100.2800 N.4       4 LYS4        0.0000 
     64 NZ         96.9600   89.8400  103.7900 N.4       4 LYS4        0.0000 
     65 NZ        100.6400   84.9500  100.6600 N.4       4 LYS4        0.0000 
     66 NZ        101.7100   85.0400  102.4900 N.4       4 LYS4        0.0000 
     67 NZ        101.6400   86.7300  101.2100 N.4       4 LYS4        0.0000 
     68 CZ         94.8200   89.6600  100.1400 C.ar      5 PHE5        0.0000 
     69 CZ         95.1600   89.9100   98.7000 C.ar      5 PHE5        0.0000 
     70 CZ         97.1500   83.7500  102.7600 C.ar      5 PHE5        0.0000 
     71 CZ         96.7500   85.1800  102.9200 C.ar      5 PHE5        0.0000 
     72 CZ         96.0200   86.3700  104.5200 C.ar      5 PHE5        0.0000 
     73 CZ         96.3500   86.6200  103.0800 C.ar      5 PHE5        0.0000 
     74 CZ         98.8900   84.3500  101.7100 C.ar      5 PHE5        0.0000 
     75 CZ         99.9000   85.1100   97.4000 C.ar      5 PHE5        0.0000 
     76 CZ         98.5000   85.7800  101.8700 C.ar      5 PHE5        0.0000 
     77 CZ         99.5000   86.5400   97.5600 C.ar      5 PHE5        0.0000 
     78 CZ         97.7600   86.9700  103.4700 C.ar      5 PHE5        0.0000 
     79 CZ         98.1000   87.2200  102.0300 C.ar      5 PHE5        0.0000 
     80 CZ         97.0300   88.1500  105.0700 C.ar      5 PHE5        0.0000 
     81 CZ         97.3600   88.4000  103.6300 C.ar      5 PHE5        0.0000 
     82 CZ        100.3000   84.6900  102.1000 C.ar      5 PHE5        0.0000 
     83 CZ        100.9700   85.2000   99.2300 C.ar      5 PHE5        0.0000 
     84 CZ         99.9000   86.1300  102.2600 C.ar      5 PHE5        0.0000 
     85 CZ         99.5000   87.5700  102.4200 C.ar      5 PHE5        0.0000 
     86 CZ         98.7700   88.7500  104.0200 C.ar      5 PHE5        0.0000 
     87 CZ        101.3100   86.4800  102.6500 C.ar      5 PHE5        0.0000 
     88 CZ        100.9100   87.9100  102.8100 C.ar      5 PHE5        0.0000 
     89 CZ        100.1800   89.1000  104.4100 C.ar      5 PHE5        0.0000 
     90 CZ        102.7100   86.8200  103.0400 C.ar      5 PHE5        0.0000 
     91 CZ        101.9800   88.0100  104.6400 C.ar      5 PHE5        0.0000 
     92 CZ        102.3200   88.2600  103.2000 C.ar      5 PHE5        0.0000 
     93 CZ        101.5800   89.4400  104.8000 C.ar      5 PHE5        0.0000 
     94 CZ        101.9200   89.7000  103.3600 C.ar      5 PHE5        0.0000 
     95 CZ        101.5200   91.1300  103.5200 C.ar      5 PHE5        0.0000 
     96 CZ        103.0500   88.1000  106.4700 C.ar      5 PHE5        0.0000 
     97 CA         93.8800   86.1800  100.8700 C.3       6 GLY6        0.0000 
     98 CA         93.8200   87.8700   99.5900 C.3       6 GLY6        0.0000 
     99 CA         97.4300   84.6700   95.1800 C.3       6 GLY6        0.0000 
    100 CA         96.6900   85.8500   96.7800 C.3       6 GLY6        0.0000 
    101 CA         94.9500   86.2700  102.7000 C.3       6 GLY6        0.0000 
    102 CA         95.2800   86.5300  101.2600 C.3       6 GLY6        0.0000 
    103 CA         95.2200   88.2200   99.9800 C.3       6 GLY6        0.0000 
    104 CA         98.4300   86.4500   95.7300 C.3       6 GLY6        0.0000 
    105 CA         95.1600   91.9600  108.4300 C.3       6 GLY6        0.0000 
    106 CA         98.0300   89.9300  105.6200 C.3       6 GLY6        0.0000 
    107 CA         97.3000   91.1200  107.2200 C.3       6 GLY6        0.0000 
    108 CA         97.6400   91.3700  105.7800 C.3       6 GLY6        0.0000 
    109 CA         96.8400   94.2500  106.1000 C.3       6 GLY6        0.0000 
    110 CA         99.4400   90.2800  106.0100 C.3       6 GLY6        0.0000 
    111 DU         95.6800   85.0900  101.1000 H         7 CUB7        0.0000 
    112 DU         96.0200   85.3400   99.6600 H         7 CUB7        0.0000 
    113 DU         97.4900   84.0000  101.3300 H         7 CUB7        0.0000 
    114 DU         97.8200   84.2500   99.8900 H         7 CUB7        0.0000 
    115 DU         98.5000   84.7600   97.0100 H         7 CUB7        0.0000 
    116 DU         97.0900   85.4400  101.4900 H         7 CUB7        0.0000 
    117 DU         97.4300   85.6900  100.0500 H         7 CUB7        0.0000 
    118 DU         97.7600   85.9400   98.6100 H         7 CUB7        0.0000 
    119 DU         98.1000   86.2000   97.1700 H         7 CUB7        0.0000 
    120 DU         96.6900   86.8700  101.6500 H         7 CUB7        0.0000 
    121 DU         99.5700   84.8500   98.8400 H         7 CUB7        0.0000 
@<TRIPOS>BOND
@<TRIPOS>SUBSTRUCTURE
     1 SER1        1 GROUP   
     2 ALA2       12 GROUP   
     3 ASP3       39 GROUP   
     4 LYS4       52 GROUP   
     5 PHE5       68 GROUP   
     6 GLY6       97 GROUP   
     7 CUB7      111 GROUP   
@<TRIPOS>SET

