#    Name: 6hz8_2_GNP_CAVITY_N1_4
#    Modification time : Fri May 22 19:39:22 2020

@<TRIPOS>MOLECULE
6hz8_2_GNP_CAVITY_N1_4
   76     0     7     0     0
SMALL
NO_CHARGES


@<TRIPOS>ATOM
      1 OG         71.6600  115.5100   91.4600 O.3       1 SER1        0.0000 
      2 OG         72.0000  115.7600   90.0200 O.3       1 SER1        0.0000 
      3 OG         74.8700  113.7400   87.2100 O.3       1 SER1        0.0000 
      4 OG         74.1400  114.9300   88.8100 O.3       1 SER1        0.0000 
      5 OG         74.4800  115.1800   87.3700 O.3       1 SER1        0.0000 
      6 N          68.5100  113.5400   87.2500 N.am      2 ALA2        0.0000 
      7 N          68.8500  113.8000   85.8100 N.am      2 ALA2        0.0000 
      8 N          69.1900  114.0500   84.3700 N.am      2 ALA2        0.0000 
      9 N          68.1200  114.9800   87.4100 N.am      2 ALA2        0.0000 
     10 N          69.9200  113.8900   87.6400 N.am      2 ALA2        0.0000 
     11 N          70.5900  114.4000   84.7600 N.am      2 ALA2        0.0000 
     12 N          71.3300  114.2300   88.0300 N.am      2 ALA2        0.0000 
     13 N          71.6600  114.4900   86.5900 N.am      2 ALA2        0.0000 
     14 N          72.0000  114.7400   85.1500 N.am      2 ALA2        0.0000 
     15 N          70.5900  115.4200   89.6300 N.am      2 ALA2        0.0000 
     16 N          73.0700  114.8300   86.9800 N.am      2 ALA2        0.0000 
     17 O          73.4700  114.4200   91.6900 O.2       2 ALA2        0.0000 
     18 O          73.8000  114.6700   90.2500 O.2       2 ALA2        0.0000 
     19 O          74.9400  113.0800   93.3600 O.2       2 ALA2        0.0000 
     20 O          75.6100  114.6100   95.3500 O.2       2 ALA2        0.0000 
     21 OD1        71.0500  112.2900   90.7500 O.co2     3 ASP3        0.0000 
     22 OD1        70.6500  113.7300   90.9100 O.co2     3 ASP3        0.0000 
     23 OD1        72.0600  114.0700   91.3000 O.co2     3 ASP3        0.0000 
     24 OD1        73.5300  112.7300   92.9700 O.co2     3 ASP3        0.0000 
     25 OD1        73.1300  114.1700   93.1300 O.co2     3 ASP3        0.0000 
     26 OD1        74.6000  112.8200   94.8000 O.co2     3 ASP3        0.0000 
     27 OD1        74.2000  114.2600   94.9600 O.co2     3 ASP3        0.0000 
     28 OD1        76.0100  113.1700   95.1900 O.co2     3 ASP3        0.0000 
     29 OD1        75.2700  114.3500   96.7900 O.co2     3 ASP3        0.0000 
     30 NZ         68.5800  110.8300   83.6600 N.4       4 LYS4        0.0000 
     31 NZ         68.1800  112.2700   83.8200 N.4       4 LYS4        0.0000 
     32 NZ         66.7700  112.9400   88.3000 N.4       4 LYS4        0.0000 
     33 NZ         69.5900  112.6100   84.2100 N.4       4 LYS4        0.0000 
     34 NZ         68.1800  113.2900   88.6900 N.4       4 LYS4        0.0000 
     35 NZ         69.5200  114.3000   82.9300 N.4       4 LYS4        0.0000 
     36 NZ         67.7800  114.7300   88.8500 N.4       4 LYS4        0.0000 
     37 NZ         69.6500  111.9400   90.3600 N.4       4 LYS4        0.0000 
     38 NZ         69.5800  113.6300   89.0800 N.4       4 LYS4        0.0000 
     39 NZ         70.9300  114.6500   83.3200 N.4       4 LYS4        0.0000 
     40 NZ         69.1900  115.0700   89.2400 N.4       4 LYS4        0.0000 
     41 NZ         70.9900  113.9800   89.4700 N.4       4 LYS4        0.0000 
     42 NZ         70.2600  115.1700   91.0700 N.4       4 LYS4        0.0000 
     43 CZ         68.2400  110.5700   85.1000 C.ar      5 PHE5        0.0000 
     44 CZ         67.1700  111.5000   88.1400 C.ar      5 PHE5        0.0000 
     45 CZ         67.5100  111.7600   86.7000 C.ar      5 PHE5        0.0000 
     46 CZ         67.8400  112.0100   85.2600 C.ar      5 PHE5        0.0000 
     47 CZ         70.3800  109.7400   83.8900 C.ar      5 PHE5        0.0000 
     48 CZ         68.6400  110.1600   89.8100 C.ar      5 PHE5        0.0000 
     49 CZ         69.9800  111.1700   84.0500 C.ar      5 PHE5        0.0000 
     50 CZ         68.5800  111.8500   88.5300 C.ar      5 PHE5        0.0000 
     51 CZ         68.9100  112.1000   87.0900 C.ar      5 PHE5        0.0000 
     52 CZ         69.2500  112.3600   85.6500 C.ar      5 PHE5        0.0000 
     53 CZ         71.3900  111.5200   84.4400 C.ar      5 PHE5        0.0000 
     54 CZ         69.9800  112.2000   88.9200 C.ar      5 PHE5        0.0000 
     55 CZ         70.3200  112.4500   87.4800 C.ar      5 PHE5        0.0000 
     56 CZ         70.6600  112.7000   86.0400 C.ar      5 PHE5        0.0000 
     57 CZ         70.9900  112.9600   84.6000 C.ar      5 PHE5        0.0000 
     58 CZ         71.3900  112.5400   89.3100 C.ar      5 PHE5        0.0000 
     59 CZ         71.7300  112.8000   87.8700 C.ar      5 PHE5        0.0000 
     60 CZ         72.0600  113.0500   86.4300 C.ar      5 PHE5        0.0000 
     61 CZ         72.4000  113.3000   84.9900 C.ar      5 PHE5        0.0000 
     62 CZ         73.1300  113.1400   88.2600 C.ar      5 PHE5        0.0000 
     63 CZ         73.4700  113.4000   86.8200 C.ar      5 PHE5        0.0000 
     64 CZ         75.2700  112.3100   87.0500 C.ar      5 PHE5        0.0000 
     65 CA         66.7100  114.6300   87.0200 C.3       6 GLY6        0.0000 
     66 CA         72.4600  112.6400   91.1400 C.3       6 GLY6        0.0000 
     67 CA         72.8000  112.8900   89.7000 C.3       6 GLY6        0.0000 
     68 CA         72.3300  116.0200   88.5800 C.3       6 GLY6        0.0000 
     69 CA         73.8700  112.9800   91.5300 C.3       6 GLY6        0.0000 
     70 CA         74.5400  113.4900   88.6500 C.3       6 GLY6        0.0000 
     71 CA         73.7400  116.3600   88.9700 C.3       6 GLY6        0.0000 
     72 CA         74.5400  114.5100   93.5200 C.3       6 GLY6        0.0000 
     73 DU         67.4400  113.4500   85.4200 H         7 CUB7        0.0000 
     74 DU         67.7800  113.7000   83.9800 H         7 CUB7        0.0000 
     75 DU         72.4000  114.3300   89.8600 H         7 CUB7        0.0000 
     76 DU         72.7300  114.5800   88.4200 H         7 CUB7        0.0000 
@<TRIPOS>BOND
@<TRIPOS>SUBSTRUCTURE
     1 SER1        1 GROUP   
     2 ALA2        6 GROUP   
     3 ASP3       21 GROUP   
     4 LYS4       30 GROUP   
     5 PHE5       43 GROUP   
     6 GLY6       65 GROUP   
     7 CUB7       73 GROUP   
@<TRIPOS>SET

