#    Name: 6hz8_5_GDP
#    Modification time : Fri May 22 19:39:41 2020

@<TRIPOS>MOLECULE
6hz8_5_GDP
   40    42     1     0     1
SMALL
NO_CHARGES


@<TRIPOS>ATOM
      1 PB         90.5760  117.3730  158.1570 P.3       1 GDP1001     0.0000 
      2 O1B        91.0560  116.1160  157.5460 O.co2     1 GDP1001     0.0000 
      3 O2B        91.3170  118.5190  157.5880 O.co2     1 GDP1001     0.0000 
      4 O3B        89.1310  117.5340  157.8970 O.co2     1 GDP1001     0.0000 
      5 O3A        90.8240  117.3240  159.7340 O.3       1 GDP1001     0.0000 
      6 PA         90.5060  118.6370  160.5910 P.3       1 GDP1001     0.0000 
      7 O1A        91.2130  119.7900  159.9860 O.co2     1 GDP1001     0.0000 
      8 O2A        89.0460  118.8940  160.5860 O.co2     1 GDP1001     0.0000 
      9 O5'        91.0150  118.4260  162.1140 O.3       1 GDP1001     0.0000 
     10 C5'        90.2290  117.6880  163.0550 C.3       1 GDP1001     0.0000 
     11 C4'        91.1300  117.1800  164.2130 C.3       1 GDP1001     0.0000 
     12 O4'        91.8420  118.2880  164.8850 O.3       1 GDP1001     0.0000 
     13 C3'        90.3410  116.5320  165.3540 C.3       1 GDP1001     0.0000 
     14 O3'        91.2290  115.7130  166.1570 O.3       1 GDP1001     0.0000 
     15 C2'        89.9000  117.7630  166.1090 C.3       1 GDP1001     0.0000 
     16 O2'        89.3510  117.4380  167.4000 O.3       1 GDP1001     0.0000 
     17 C1'        91.2370  118.4600  166.2250 C.3       1 GDP1001     0.0000 
     18 N9         91.0840  119.8670  166.6340 N.pl3     1 GDP1001     0.0000 
     19 C8         91.1370  120.9340  165.8470 C.2       1 GDP1001     0.0000 
     20 N7         90.9460  122.0060  166.6060 N.2       1 GDP1001     0.0000 
     21 C5         90.7520  121.5960  167.8550 C.2       1 GDP1001     0.0000 
     22 C6         90.5080  122.2740  168.9690 C.2       1 GDP1001     0.0000 
     23 O6         90.4410  123.4990  168.9460 O.2       1 GDP1001     0.0000 
     24 N1         90.3440  121.5880  170.1720 N.am      1 GDP1001     0.0000 
     25 C2         90.4340  120.2000  170.1620 C.2       1 GDP1001     0.0000 
     26 N2         90.2760  119.5100  171.2830 N.pl3     1 GDP1001     0.0000 
     27 N3         90.6760  119.5690  169.0080 N.2       1 GDP1001     0.0000 
     28 C4         90.8360  120.2670  167.8730 C.2       1 GDP1001     0.0000 
     29 H5'        89.8050  116.8250  162.5420 H         1 GDP1001     0.0000 
     30 H5''       89.4190  118.3290  163.3680 H         1 GDP1001     0.0000 
     31 H4'        91.8020  116.4520  163.7610 H         1 GDP1001     0.0000 
     32 H3'        89.5100  115.9240  165.0020 H         1 GDP1001     0.0000 
     33 HO3'       92.1690  116.0580  166.1440 H         1 GDP1001     0.0000 
     34 H2'        89.2120  118.3640  165.5500 H         1 GDP1001     0.0000 
     35 HO2'       90.0070  116.8900  167.9180 H         1 GDP1001     0.0000 
     36 H1'        91.8430  117.9480  166.9600 H         1 GDP1001     0.0000 
     37 H8         91.3350  120.9270  164.7790 H         1 GDP1001     0.0000 
     38 HN1        90.1630  122.0800  171.0230 H         1 GDP1001     0.0000 
     39 HN21       90.0820  119.9890  172.1390 H         1 GDP1001     0.0000 
     40 HN22       90.3460  118.5130  171.2630 H         1 GDP1001     0.0000 
@<TRIPOS>BOND
     1    1    2 ar   
     2    1    3 ar   
     3    1    4 ar   
     4    1    5 1    
     5    5    6 1    
     6    6    7 ar   
     7    6    8 ar   
     8    6    9 1    
     9    9   10 1    
    10   10   11 1    
    11   10   29 1    
    12   10   30 1    
    13   11   12 1    
    14   11   13 1    
    15   11   31 1    
    16   12   17 1    
    17   13   14 1    
    18   13   15 1    
    19   13   32 1    
    20   14   33 1    
    21   15   16 1    
    22   15   17 1    
    23   15   34 1    
    24   16   35 1    
    25   17   18 1    
    26   17   36 1    
    27   18   19 1    
    28   18   28 1    
    29   19   20 2    
    30   19   37 1    
    31   20   21 1    
    32   21   22 1    
    33   21   28 2    
    34   22   23 2    
    35   22   24 am   
    36   24   25 1    
    37   24   38 1    
    38   25   26 1    
    39   25   27 2    
    40   26   39 1    
    41   26   40 1    
    42   27   28 1    
@<TRIPOS>SUBSTRUCTURE
     1 GDP1001     1 GROUP   
@<TRIPOS>SET
ATOM$ORANGE STATIC     ATOMS   COLORGROUP SYSTEM 
20 10 10 11 11 13 13 15 15 17 17 19 19 21 21 22 22 25 \
25 28 28 

