#    Name: 6hz8_8_GNP_CAVITY_N1_4
#    Modification time : Fri May 22 19:40:01 2020

@<TRIPOS>MOLECULE
6hz8_8_GNP_CAVITY_N1_4
   69     0     7     0     0
SMALL
NO_CHARGES


@<TRIPOS>ATOM
      1 OG        177.7600  137.5500   87.3200 O.3       1 SER1        0.0000 
      2 OG        180.3000  136.3000   90.8200 O.3       1 SER1        0.0000 
      3 OG        180.6400  136.5500   89.3800 O.3       1 SER1        0.0000 
      4 O         177.0900  137.0400   90.2000 O.2       2 ALA2        0.0000 
      5 O         177.4300  137.3000   88.7600 O.2       2 ALA2        0.0000 
      6 N         179.5700  136.4600   87.5500 N.am      2 ALA2        0.0000 
      7 N         180.2400  136.9700   84.6700 N.am      2 ALA2        0.0000 
      8 O         178.1600  137.1400   92.0300 O.2       2 ALA2        0.0000 
      9 O         178.5000  137.3900   90.5900 O.2       2 ALA2        0.0000 
     10 N         181.0400  135.1200   89.2200 N.am      2 ALA2        0.0000 
     11 N         180.9800  136.8100   87.9400 N.am      2 ALA2        0.0000 
     12 N         183.7900  136.4800   83.8500 N.am      2 ALA2        0.0000 
     13 N         182.3800  137.1500   88.3300 N.am      2 ALA2        0.0000 
     14 N         182.7200  137.4100   86.8900 N.am      2 ALA2        0.0000 
     15 N         183.0600  137.6600   85.4500 N.am      2 ALA2        0.0000 
     16 N         184.1900  136.0600   88.5600 N.am      2 ALA2        0.0000 
     17 N         184.5200  136.3200   87.1200 N.am      2 ALA2        0.0000 
     18 N         184.1300  137.7500   87.2800 N.am      2 ALA2        0.0000 
     19 OD1       179.5700  137.4800   92.4200 O.co2     3 ASP3        0.0000 
     20 OD1       179.9000  137.7400   90.9800 O.co2     3 ASP3        0.0000 
     21 OD1       179.1700  138.9200   92.5800 O.co2     3 ASP3        0.0000 
     22 OD1       181.3100  138.0800   91.3700 O.co2     3 ASP3        0.0000 
     23 NZ        180.1800  138.6600   83.3900 N.4       4 LYS4        0.0000 
     24 NZ        181.9900  137.5700   83.6200 N.4       4 LYS4        0.0000 
     25 NZ        181.5900  139.0100   83.7800 N.4       4 LYS4        0.0000 
     26 NZ        181.7100  136.6500   91.2100 N.4       4 LYS4        0.0000 
     27 NZ        182.0500  136.9000   89.7700 N.4       4 LYS4        0.0000 
     28 NZ        183.3900  137.9100   84.0100 N.4       4 LYS4        0.0000 
     29 NZ        183.7300  138.1700   82.5700 N.4       4 LYS4        0.0000 
     30 NZ        181.6500  138.3400   89.9300 N.4       4 LYS4        0.0000 
     31 NZ        182.9900  139.3500   84.1700 N.4       4 LYS4        0.0000 
     32 NZ        182.9300  141.0400   82.8900 N.4       4 LYS4        0.0000 
     33 NZ        183.7900  137.5000   88.7200 N.4       4 LYS4        0.0000 
     34 NZ        183.3900  138.9400   88.8800 N.4       4 LYS4        0.0000 
     35 CZ        176.3000  138.9000   85.6500 C.ar      5 PHE5        0.0000 
     36 CZ        178.1600  136.1100   87.1600 C.ar      5 PHE5        0.0000 
     37 CZ        178.5000  136.3700   85.7200 C.ar      5 PHE5        0.0000 
     38 CZ        178.1000  137.8100   85.8800 C.ar      5 PHE5        0.0000 
     39 CZ        178.4400  138.0600   84.4400 C.ar      5 PHE5        0.0000 
     40 CZ        177.3700  138.9900   87.4800 C.ar      5 PHE5        0.0000 
     41 CZ        177.7000  139.2400   86.0400 C.ar      5 PHE5        0.0000 
     42 CZ        178.0400  139.5000   84.6000 C.ar      5 PHE5        0.0000 
     43 CZ        179.1700  137.9000   87.7100 C.ar      5 PHE5        0.0000 
     44 CZ        179.5100  138.1500   86.2700 C.ar      5 PHE5        0.0000 
     45 CZ        179.8400  138.4100   84.8300 C.ar      5 PHE5        0.0000 
     46 CZ        180.5800  138.2400   88.1000 C.ar      5 PHE5        0.0000 
     47 CZ        180.9100  138.5000   86.6600 C.ar      5 PHE5        0.0000 
     48 CZ        181.2500  138.7500   85.2200 C.ar      5 PHE5        0.0000 
     49 CZ        179.8400  139.4300   89.7000 C.ar      5 PHE5        0.0000 
     50 CZ        181.1900  140.4400   83.9400 C.ar      5 PHE5        0.0000 
     51 CZ        181.9800  138.5900   88.4900 C.ar      5 PHE5        0.0000 
     52 CZ        182.3200  138.8400   87.0500 C.ar      5 PHE5        0.0000 
     53 CZ        182.6600  139.1000   85.6100 C.ar      5 PHE5        0.0000 
     54 CZ        181.2500  139.7800   90.0900 C.ar      5 PHE5        0.0000 
     55 CZ        182.6000  140.7900   84.3300 C.ar      5 PHE5        0.0000 
     56 CZ        183.7300  139.1900   87.4400 C.ar      5 PHE5        0.0000 
     57 CZ        184.0600  139.4400   86.0000 C.ar      5 PHE5        0.0000 
     58 CZ        182.9900  140.3700   89.0400 C.ar      5 PHE5        0.0000 
     59 CZ        183.6700  140.8800   86.1600 C.ar      5 PHE5        0.0000 
     60 CA        177.8300  135.8600   88.6000 C.3       6 GLY6        0.0000 
     61 CA        179.2300  136.2100   88.9900 C.3       6 GLY6        0.0000 
     62 CA        177.7600  138.5800   92.1900 C.3       6 GLY6        0.0000 
     63 CA        178.1000  138.8300   90.7500 C.3       6 GLY6        0.0000 
     64 CA        178.4400  139.0800   89.3100 C.3       6 GLY6        0.0000 
     65 CA        179.5100  139.1800   91.1400 C.3       6 GLY6        0.0000 
     66 DU        178.8300  137.6400   89.1500 H         7 CUB7        0.0000 
     67 DU        180.2400  137.9900   89.5400 H         7 CUB7        0.0000 
     68 DU        184.8000  138.2600   84.4000 H         7 CUB7        0.0000 
     69 DU        184.4000  139.7000   84.5600 H         7 CUB7        0.0000 
@<TRIPOS>BOND
@<TRIPOS>SUBSTRUCTURE
     1 SER1        1 GROUP   
     2 ALA2        4 GROUP   
     3 ASP3       19 GROUP   
     4 LYS4       23 GROUP   
     5 PHE5       35 GROUP   
     6 GLY6       60 GROUP   
     7 CUB7       66 GROUP   
@<TRIPOS>SET

