#    Name: 6hz8_11_GDP_CAVITY_N1_4
#    Modification time : Fri May 22 19:40:15 2020

@<TRIPOS>MOLECULE
6hz8_11_GDP_CAVITY_N1_4
   81     0     7     0     0
SMALL
NO_CHARGES


@<TRIPOS>ATOM
      1 OG        158.1500  134.9400  160.4200 O.3       1 SER1        0.0000 
      2 OG        159.9600  133.8400  160.6500 O.3       1 SER1        0.0000 
      3 OG        159.5600  135.2800  160.8100 O.3       1 SER1        0.0000 
      4 OG        158.8300  136.4700  162.4100 O.3       1 SER1        0.0000 
      5 OG        159.1000  138.4100  159.6900 O.3       1 SER1        0.0000 
      6 OG        161.0300  133.9400  162.4800 O.3       1 SER1        0.0000 
      7 OG        160.2900  135.1200  164.0800 O.3       1 SER1        0.0000 
      8 OG        160.6300  135.3700  162.6400 O.3       1 SER1        0.0000 
      9 OG        160.5100  138.7600  160.0800 O.3       1 SER1        0.0000 
     10 OG        164.2400  132.1700  158.2300 O.3       1 SER1        0.0000 
     11 OG        163.5100  133.3500  159.8300 O.3       1 SER1        0.0000 
     12 OG        163.8400  133.6100  158.3900 O.3       1 SER1        0.0000 
     13 OG        162.1000  134.0300  164.3100 O.3       1 SER1        0.0000 
     14 O         157.8200  133.6600  156.9900 O.2       2 ALA2        0.0000 
     15 N         157.7600  135.3500  155.7100 N.am      2 ALA2        0.0000 
     16 O         158.8900  133.7500  158.8200 O.2       2 ALA2        0.0000 
     17 O         159.2200  134.0100  157.3800 O.2       2 ALA2        0.0000 
     18 N         159.1600  135.7000  156.1000 N.am      2 ALA2        0.0000 
     19 N         158.7600  137.1300  156.2600 N.am      2 ALA2        0.0000 
     20 O         160.6900  132.6600  159.0500 O.2       2 ALA2        0.0000 
     21 O         160.2900  134.1000  159.2100 O.2       2 ALA2        0.0000 
     22 O         160.6300  134.3500  157.7700 O.2       2 ALA2        0.0000 
     23 O         162.5000  131.5700  159.2800 O.2       2 ALA2        0.0000 
     24 O         161.7600  132.7500  160.8800 O.2       2 ALA2        0.0000 
     25 N         159.9000  136.5600  164.2400 N.am      2 ALA2        0.0000 
     26 N         159.1600  137.7400  165.8400 N.am      2 ALA2        0.0000 
     27 N         159.5000  138.0000  164.4000 N.am      2 ALA2        0.0000 
     28 N         158.4300  138.9300  167.4400 N.am      2 ALA2        0.0000 
     29 N         158.7600  139.1800  166.0000 N.am      2 ALA2        0.0000 
     30 O         165.2500  134.9800  163.6500 O.2       2 ALA2        0.0000 
     31 OD1       158.0900  136.6300  159.1400 O.co2     3 ASP3        0.0000 
     32 OD1       158.0300  138.3200  157.8600 O.co2     3 ASP3        0.0000 
     33 OD1       161.0300  132.9100  157.6100 O.co2     3 ASP3        0.0000 
     34 OD1       161.3700  133.1700  156.1700 O.co2     3 ASP3        0.0000 
     35 OD1       160.9700  134.6100  156.3300 O.co2     3 ASP3        0.0000 
     36 OD1       163.1700  132.0800  156.4000 O.co2     3 ASP3        0.0000 
     37 OD1       162.1000  133.0100  159.4400 O.co2     3 ASP3        0.0000 
     38 OD1       162.4400  133.2600  158.0000 O.co2     3 ASP3        0.0000 
     39 OD1       162.0400  134.7000  158.1600 O.co2     3 ASP3        0.0000 
     40 OD1       161.3000  135.8800  159.7600 O.co2     3 ASP3        0.0000 
     41 OD1       162.7700  134.5400  161.4300 O.co2     3 ASP3        0.0000 
     42 OD1       163.1100  134.7900  159.9900 O.co2     3 ASP3        0.0000 
     43 OD1       163.4400  135.0400  158.5500 O.co2     3 ASP3        0.0000 
     44 OD1       162.3700  135.9700  161.5900 O.co2     3 ASP3        0.0000 
     45 OD1       163.7800  136.3200  161.9800 O.co2     3 ASP3        0.0000 
     46 NZ        158.4300  136.8800  157.7000 N.4       4 LYS4        0.0000 
     47 NZ        160.2300  135.7900  157.9300 N.4       4 LYS4        0.0000 
     48 NZ        160.5700  136.0400  156.4900 N.4       4 LYS4        0.0000 
     49 NZ        159.5000  136.9700  159.5300 N.4       4 LYS4        0.0000 
     50 NZ        159.8300  137.2300  158.0900 N.4       4 LYS4        0.0000 
     51 NZ        161.6400  136.1400  158.3200 N.4       4 LYS4        0.0000 
     52 NZ        160.2300  136.8100  162.8000 N.4       4 LYS4        0.0000 
     53 NZ        160.5700  137.0700  161.3600 N.4       4 LYS4        0.0000 
     54 NZ        160.9000  137.3200  159.9200 N.4       4 LYS4        0.0000 
     55 NZ        161.7000  135.4700  164.4700 N.4       4 LYS4        0.0000 
     56 NZ        162.0400  135.7200  163.0300 N.4       4 LYS4        0.0000 
     57 NZ        161.3000  136.9100  164.6300 N.4       4 LYS4        0.0000 
     58 NZ        161.9700  137.4100  161.7500 N.4       4 LYS4        0.0000 
     59 NZ        160.9000  138.3400  164.7900 N.4       4 LYS4        0.0000 
     60 NZ        163.1100  135.8100  164.8600 N.4       4 LYS4        0.0000 
     61 NZ        164.5100  136.1600  165.2500 N.4       4 LYS4        0.0000 
     62 CZ        157.0800  134.8400  158.5900 C.ar      5 PHE5        0.0000 
     63 CZ        159.8300  138.2500  162.9600 C.ar      5 PHE5        0.0000 
     64 CZ        159.1000  139.4300  164.5600 C.ar      5 PHE5        0.0000 
     65 CA        159.9600  132.8200  155.7800 C.3       6 GLY6        0.0000 
     66 CA        159.5600  134.2600  155.9400 C.3       6 GLY6        0.0000 
     67 CA        158.4900  135.1900  158.9800 C.3       6 GLY6        0.0000 
     68 CA        160.3600  132.4100  160.4900 C.3       6 GLY6        0.0000 
     69 CA        163.1700  133.1000  161.2700 C.3       6 GLY6        0.0000 
     70 CA        162.4300  134.2800  162.8700 C.3       6 GLY6        0.0000 
     71 CA        163.5000  134.3800  164.7000 C.3       6 GLY6        0.0000 
     72 CA        163.8400  134.6300  163.2600 C.3       6 GLY6        0.0000 
     73 CA        164.1800  134.8800  161.8200 C.3       6 GLY6        0.0000 
     74 DU        157.4200  135.1000  157.1500 H         7 CUB7        0.0000 
     75 DU        158.8300  135.4400  157.5400 H         7 CUB7        0.0000 
     76 DU        157.7600  136.3700  160.5800 H         7 CUB7        0.0000 
     77 DU        159.9000  135.5400  159.3700 H         7 CUB7        0.0000 
     78 DU        159.1600  136.7200  160.9700 H         7 CUB7        0.0000 
     79 DU        161.3600  134.1900  161.0400 H         7 CUB7        0.0000 
     80 DU        161.7000  134.4400  159.6000 H         7 CUB7        0.0000 
     81 DU        160.9700  135.6300  161.2000 H         7 CUB7        0.0000 
@<TRIPOS>BOND
@<TRIPOS>SUBSTRUCTURE
     1 SER1        1 GROUP   
     2 ALA2       14 GROUP   
     3 ASP3       31 GROUP   
     4 LYS4       46 GROUP   
     5 PHE5       62 GROUP   
     6 GLY6       65 GROUP   
     7 CUB7       74 GROUP   
@<TRIPOS>SET

