#    Name: 6hz8_4_GDP
#    Modification time : Fri May 22 19:39:34 2020

@<TRIPOS>MOLECULE
6hz8_4_GDP
   40    42     1     0     1
SMALL
NO_CHARGES


@<TRIPOS>ATOM
      1 PB         68.7720  141.4470  143.9830 P.3       1 GDP1001     0.0000 
      2 O1B        68.1370  142.5850  143.2880 O.co2     1 GDP1001     0.0000 
      3 O2B        70.2090  141.3920  143.6440 O.co2     1 GDP1001     0.0000 
      4 O3B        68.1370  140.1850  143.5500 O.co2     1 GDP1001     0.0000 
      5 O3A        68.6070  141.6310  145.5670 O.3       1 GDP1001     0.0000 
      6 PA         67.4270  140.8840  146.3590 P.3       1 GDP1001     0.0000 
      7 O1A        66.3230  140.5760  145.4310 O.co2     1 GDP1001     0.0000 
      8 O2A        67.9740  139.6260  146.9100 O.co2     1 GDP1001     0.0000 
      9 O5'        66.8670  141.8410  147.5460 O.3       1 GDP1001     0.0000 
     10 C5'        67.2920  141.5970  148.8890 C.3       1 GDP1001     0.0000 
     11 C4'        66.5350  142.3890  149.9820 C.3       1 GDP1001     0.0000 
     12 O4'        66.6950  143.8200  149.6580 O.3       1 GDP1001     0.0000 
     13 C3'        65.0240  142.1760  150.0280 C.3       1 GDP1001     0.0000 
     14 O3'        64.5650  142.3890  151.3780 O.3       1 GDP1001     0.0000 
     15 C2'        64.5680  143.2800  149.1350 C.3       1 GDP1001     0.0000 
     16 O2'        63.1720  143.5370  149.2740 O.3       1 GDP1001     0.0000 
     17 C1'        65.3750  144.4120  149.7210 C.3       1 GDP1001     0.0000 
     18 N9         65.2220  145.6080  148.8780 N.pl3     1 GDP1001     0.0000 
     19 C8         65.7650  145.6960  147.6760 C.2       1 GDP1001     0.0000 
     20 N7         65.4420  146.8650  147.1500 N.2       1 GDP1001     0.0000 
     21 C5         64.6870  147.5010  148.0300 C.2       1 GDP1001     0.0000 
     22 C6         64.1180  148.6910  147.9600 C.2       1 GDP1001     0.0000 
     23 O6         64.2670  149.4010  146.9690 O.2       1 GDP1001     0.0000 
     24 N1         63.3690  149.1550  149.0300 N.am      1 GDP1001     0.0000 
     25 C2         63.2270  148.3310  150.1430 C.2       1 GDP1001     0.0000 
     26 N2         62.5140  148.7400  151.1830 N.pl3     1 GDP1001     0.0000 
     27 N3         63.8180  147.1310  150.1550 N.2       1 GDP1001     0.0000 
     28 C4         64.5410  146.7250  149.1030 C.2       1 GDP1001     0.0000 
     29 H5'        68.3420  141.8680  148.9360 H         1 GDP1001     0.0000 
     30 H5''       67.1880  140.5380  149.1000 H         1 GDP1001     0.0000 
     31 H4'        66.9430  142.0770  150.9300 H         1 GDP1001     0.0000 
     32 H3'        64.7220  141.1890  149.6890 H         1 GDP1001     0.0000 
     33 HO3'       63.5710  142.3240  151.4190 H         1 GDP1001     0.0000 
     34 H2'        64.8690  143.0840  148.1190 H         1 GDP1001     0.0000 
     35 HO2'       62.9550  143.7250  150.2280 H         1 GDP1001     0.0000 
     36 H1'        65.1040  144.6140  150.7470 H         1 GDP1001     0.0000 
     37 H8         66.3760  144.9320  147.2040 H         1 GDP1001     0.0000 
     38 HN1        62.9370  150.0550  148.9920 H         1 GDP1001     0.0000 
     39 HN21       62.0970  149.6440  151.1520 H         1 GDP1001     0.0000 
     40 HN22       62.4040  148.1580  151.9870 H         1 GDP1001     0.0000 
@<TRIPOS>BOND
     1    1    2 ar   
     2    1    3 ar   
     3    1    4 ar   
     4    1    5 1    
     5    5    6 1    
     6    6    7 ar   
     7    6    8 ar   
     8    6    9 1    
     9    9   10 1    
    10   10   11 1    
    11   10   29 1    
    12   10   30 1    
    13   11   12 1    
    14   11   13 1    
    15   11   31 1    
    16   12   17 1    
    17   13   14 1    
    18   13   15 1    
    19   13   32 1    
    20   14   33 1    
    21   15   16 1    
    22   15   17 1    
    23   15   34 1    
    24   16   35 1    
    25   17   18 1    
    26   17   36 1    
    27   18   19 1    
    28   18   28 1    
    29   19   20 2    
    30   19   37 1    
    31   20   21 1    
    32   21   22 1    
    33   21   28 2    
    34   22   23 2    
    35   22   24 am   
    36   24   25 1    
    37   24   38 1    
    38   25   26 1    
    39   25   27 2    
    40   26   39 1    
    41   26   40 1    
    42   27   28 1    
@<TRIPOS>SUBSTRUCTURE
     1 GDP1001     1 GROUP   
@<TRIPOS>SET
ATOM$ORANGE STATIC     ATOMS   COLORGROUP SYSTEM 
20 10 10 11 11 13 13 15 15 17 17 19 19 21 21 22 22 25 \
25 28 28 

