#    Name: 6hz8_12_GDP
#    Modification time : Fri May 22 19:40:21 2020

@<TRIPOS>MOLECULE
6hz8_12_GDP
   40    42     1     0     1
SMALL
NO_CHARGES


@<TRIPOS>ATOM
      1 PB        148.2450  158.0840  140.5410 P.3       1 GDP1001     0.0000 
      2 O1B       147.7450  158.0990  139.1500 O.co2     1 GDP1001     0.0000 
      3 O2B       147.8150  156.8210  141.1770 O.co2     1 GDP1001     0.0000 
      4 O3B       149.7210  158.1530  140.5500 O.co2     1 GDP1001     0.0000 
      5 O3A       147.6570  159.3660  141.3170 O.3       1 GDP1001     0.0000 
      6 PA        147.2770  159.2810  142.8680 P.3       1 GDP1001     0.0000 
      7 O1A       146.5580  158.0180  143.1290 O.co2     1 GDP1001     0.0000 
      8 O2A       148.5100  159.3360  143.6760 O.co2     1 GDP1001     0.0000 
      9 O5'       146.3180  160.5160  143.2610 O.3       1 GDP1001     0.0000 
     10 C5'       145.8060  161.3690  142.2380 C.3       1 GDP1001     0.0000 
     11 C4'       144.9990  162.5730  142.7760 C.3       1 GDP1001     0.0000 
     12 O4'       143.7640  162.0190  143.3630 O.3       1 GDP1001     0.0000 
     13 C3'       145.6670  163.3350  143.9160 C.3       1 GDP1001     0.0000 
     14 O3'       145.2580  164.7050  143.8800 O.3       1 GDP1001     0.0000 
     15 C2'       145.0490  162.6500  145.0930 C.3       1 GDP1001     0.0000 
     16 O2'       145.2130  163.4200  146.2760 O.3       1 GDP1001     0.0000 
     17 C1'       143.6100  162.6490  144.6480 C.3       1 GDP1001     0.0000 
     18 N9        142.7590  161.8460  145.5590 N.pl3     1 GDP1001     0.0000 
     19 C8        142.7260  160.5210  145.4710 C.2       1 GDP1001     0.0000 
     20 N7        141.9000  160.0550  146.3980 N.2       1 GDP1001     0.0000 
     21 C5        141.4270  161.0940  147.0710 C.2       1 GDP1001     0.0000 
     22 C6        140.5780  161.1470  148.0860 C.2       1 GDP1001     0.0000 
     23 O6        140.0990  160.1160  148.5490 O.2       1 GDP1001     0.0000 
     24 N1        140.2320  162.3820  148.6250 N.am      1 GDP1001     0.0000 
     25 C2        140.8020  163.5260  148.0700 C.2       1 GDP1001     0.0000 
     26 N2        140.5080  164.7280  148.5420 N.pl3     1 GDP1001     0.0000 
     27 N3        141.6580  163.4060  147.0530 N.2       1 GDP1001     0.0000 
     28 C4        141.9560  162.2040  146.5520 C.2       1 GDP1001     0.0000 
     29 H5'       145.1520  160.7780  141.5990 H         1 GDP1001     0.0000 
     30 H5''      146.6490  161.7340  141.6580 H         1 GDP1001     0.0000 
     31 H4'       144.8380  163.2620  141.9520 H         1 GDP1001     0.0000 
     32 H3'       146.7500  163.2820  143.8980 H         1 GDP1001     0.0000 
     33 HO3'      145.6010  165.1250  143.0440 H         1 GDP1001     0.0000 
     34 H2'       145.4050  161.6370  145.1680 H         1 GDP1001     0.0000 
     35 HO2'      144.8510  164.3380  146.1130 H         1 GDP1001     0.0000 
     36 H1'       143.2290  163.6630  144.5350 H         1 GDP1001     0.0000 
     37 H8        143.2720  159.9130  144.7520 H         1 GDP1001     0.0000 
     38 HN1       139.5920  162.4410  149.3910 H         1 GDP1001     0.0000 
     39 HN21      139.8680  164.8230  149.3020 H         1 GDP1001     0.0000 
     40 HN22      140.9270  165.5350  148.1260 H         1 GDP1001     0.0000 
@<TRIPOS>BOND
     1    1    2 ar   
     2    1    3 ar   
     3    1    4 ar   
     4    1    5 1    
     5    5    6 1    
     6    6    7 ar   
     7    6    8 ar   
     8    6    9 1    
     9    9   10 1    
    10   10   11 1    
    11   10   29 1    
    12   10   30 1    
    13   11   12 1    
    14   11   13 1    
    15   11   31 1    
    16   12   17 1    
    17   13   14 1    
    18   13   15 1    
    19   13   32 1    
    20   14   33 1    
    21   15   16 1    
    22   15   17 1    
    23   15   34 1    
    24   16   35 1    
    25   17   18 1    
    26   17   36 1    
    27   18   19 1    
    28   18   28 1    
    29   19   20 2    
    30   19   37 1    
    31   20   21 1    
    32   21   22 1    
    33   21   28 2    
    34   22   23 2    
    35   22   24 am   
    36   24   25 1    
    37   24   38 1    
    38   25   26 1    
    39   25   27 2    
    40   26   39 1    
    41   26   40 1    
    42   27   28 1    
@<TRIPOS>SUBSTRUCTURE
     1 GDP1001     1 GROUP   
@<TRIPOS>SET
ATOM$ORANGE STATIC     ATOMS   COLORGROUP SYSTEM 
20 10 10 11 11 13 13 15 15 17 17 19 19 21 21 22 22 25 \
25 28 28 

