#    Name: 6hz8_3_GNP_CAVITY_N1_12
#    Modification time : Fri May 22 19:39:28 2020

@<TRIPOS>MOLECULE
6hz8_3_GNP_CAVITY_N1_12
   74     0     6     0     0
SMALL
NO_CHARGES


@<TRIPOS>ATOM
      1 OG         55.3800  141.8700  109.4900 O.3       1 SER1        0.0000 
      2 OG         55.7100  142.1200  108.0500 O.3       1 SER1        0.0000 
      3 OG         56.5100  140.2700  112.6000 O.3       1 SER1        0.0000 
      4 OG         57.5200  141.0300  108.2800 O.3       1 SER1        0.0000 
      5 OG         56.1100  141.7000  112.7600 O.3       1 SER1        0.0000 
      6 OG         56.4500  141.9600  111.3200 O.3       1 SER1        0.0000 
      7 OG         56.7800  142.2100  109.8800 O.3       1 SER1        0.0000 
      8 OG         58.3100  139.1800  112.8300 O.3       1 SER1        0.0000 
      9 OG         57.5800  140.3600  114.4300 O.3       1 SER1        0.0000 
     10 OG         58.2500  140.8700  111.5500 O.3       1 SER1        0.0000 
     11 OG         57.8500  142.3000  111.7100 O.3       1 SER1        0.0000 
     12 N          51.1600  141.8500  113.1900 N.am      2 ALA2        0.0000 
     13 N          51.0900  143.5400  111.9100 N.am      2 ALA2        0.0000 
     14 N          54.6400  142.0300  106.2200 N.am      2 ALA2        0.0000 
     15 N          52.5600  142.2000  113.5800 N.am      2 ALA2        0.0000 
     16 N          52.9000  142.4500  112.1400 N.am      2 ALA2        0.0000 
     17 N          53.2400  142.7000  110.7000 N.am      2 ALA2        0.0000 
     18 N          53.5700  142.9600  109.2600 N.am      2 ALA2        0.0000 
     19 N          53.9100  143.2100  107.8200 N.am      2 ALA2        0.0000 
     20 N          54.7000  141.3600  112.3700 N.am      2 ALA2        0.0000 
     21 N          55.0400  141.6100  110.9300 N.am      2 ALA2        0.0000 
     22 N          54.9800  143.3000  109.6500 N.am      2 ALA2        0.0000 
     23 O          59.0500  137.9900  111.2300 O.2       2 ALA2        0.0000 
     24 O          58.6500  139.4300  111.3900 O.2       2 ALA2        0.0000 
     25 O          60.4500  138.3400  111.6200 O.2       2 ALA2        0.0000 
     26 OD1        56.5700  138.5800  113.8800 O.co2     3 ASP3        0.0000 
     27 OD1        56.9100  138.8300  112.4400 O.co2     3 ASP3        0.0000 
     28 OD1        58.7100  137.7400  112.6700 O.co2     3 ASP3        0.0000 
     29 OD1        57.9800  138.9200  114.2700 O.co2     3 ASP3        0.0000 
     30 OD1        60.1200  138.0900  113.0600 O.co2     3 ASP3        0.0000 
     31 OD1        59.7200  139.5200  113.2200 O.co2     3 ASP3        0.0000 
     32 NZ         51.8300  142.3600  110.3100 N.4       4 LYS4        0.0000 
     33 NZ         52.1700  142.6100  108.8700 N.4       4 LYS4        0.0000 
     34 NZ         51.4300  143.7900  110.4700 N.4       4 LYS4        0.0000 
     35 NZ         53.3600  139.3200  113.2600 N.4       4 LYS4        0.0000 
     36 NZ         52.9600  140.7600  113.4200 N.4       4 LYS4        0.0000 
     37 NZ         54.7700  139.6700  113.6500 N.4       4 LYS4        0.0000 
     38 NZ         54.3700  141.1100  113.8100 N.4       4 LYS4        0.0000 
     39 NZ         56.1700  140.0100  114.0400 N.4       4 LYS4        0.0000 
     40 NZ         55.7700  141.4500  114.2000 N.4       4 LYS4        0.0000 
     41 CZ         50.2100  138.3700  113.9200 C.ar      5 PHE5        0.0000 
     42 CZ         50.5500  138.6300  112.4800 C.ar      5 PHE5        0.0000 
     43 CZ         50.1500  140.0700  112.6400 C.ar      5 PHE5        0.0000 
     44 CZ         50.4800  140.3200  111.2000 C.ar      5 PHE5        0.0000 
     45 CZ         52.0100  137.2800  114.1500 C.ar      5 PHE5        0.0000 
     46 CZ         51.9500  138.9700  112.8700 C.ar      5 PHE5        0.0000 
     47 CZ         51.5500  140.4100  113.0300 C.ar      5 PHE5        0.0000 
     48 CZ         51.8900  140.6700  111.5900 C.ar      5 PHE5        0.0000 
     49 CZ         51.4900  142.1000  111.7500 C.ar      5 PHE5        0.0000 
     50 CZ         53.7600  137.8800  113.1000 C.ar      5 PHE5        0.0000 
     51 CZ         53.3000  141.0100  111.9800 C.ar      5 PHE5        0.0000 
     52 CZ         53.6300  141.2700  110.5400 C.ar      5 PHE5        0.0000 
     53 CZ         53.9700  141.5200  109.1000 C.ar      5 PHE5        0.0000 
     54 CZ         54.3100  141.7700  107.6600 C.ar      5 PHE5        0.0000 
     55 CZ         53.1700  144.3900  109.4200 C.ar      5 PHE5        0.0000 
     56 CZ         55.1000  139.9200  112.2100 C.ar      5 PHE5        0.0000 
     57 CZ         55.4400  140.1700  110.7700 C.ar      5 PHE5        0.0000 
     58 CZ         55.7700  140.4300  109.3300 C.ar      5 PHE5        0.0000 
     59 CZ         56.1100  140.6800  107.8900 C.ar      5 PHE5        0.0000 
     60 CZ         56.0500  142.3700  106.6100 C.ar      5 PHE5        0.0000 
     61 CZ         55.3100  143.5600  108.2100 C.ar      5 PHE5        0.0000 
     62 CZ         56.3800  143.6500  110.0400 C.ar      5 PHE5        0.0000 
     63 CA         51.6200  138.7200  114.3100 C.3       6 GLY6        0.0000 
     64 CA         51.2200  140.1600  114.4700 C.3       6 GLY6        0.0000 
     65 CA         50.8200  141.6000  114.6300 C.3       6 GLY6        0.0000 
     66 CA         55.0400  140.5900  106.0600 C.3       6 GLY6        0.0000 
     67 CA         55.1600  138.2300  113.4900 C.3       6 GLY6        0.0000 
     68 CA         55.5000  138.4800  112.0500 C.3       6 GLY6        0.0000 
     69 CA         56.4500  140.9400  106.4500 C.3       6 GLY6        0.0000 
     70 CA         57.3000  137.3900  112.2800 C.3       6 GLY6        0.0000 
     71 CA         57.2400  139.0800  111.0000 C.3       6 GLY6        0.0000 
     72 CA         56.8400  140.5200  111.1600 C.3       6 GLY6        0.0000 
     73 CA         57.1800  140.7700  109.7200 C.3       6 GLY6        0.0000 
     74 CA         60.0600  139.7800  111.7800 C.3       6 GLY6        0.0000 
@<TRIPOS>BOND
@<TRIPOS>SUBSTRUCTURE
     1 SER1        1 GROUP   
     2 ALA2       12 GROUP   
     3 ASP3       26 GROUP   
     4 LYS4       32 GROUP   
     5 PHE5       41 GROUP   
     6 GLY6       63 GROUP   
@<TRIPOS>SET

