#    Name: 6u2g_2_ACP
#    Modification time : Fri May 22 19:32:12 2020

@<TRIPOS>MOLECULE
6u2g_2_ACP
   31    33     1     0     1
SMALL
NO_CHARGES


@<TRIPOS>ATOM
      1 PG         62.7600  -49.7490  -24.8060 P.3       1 ACP901      0.0000 
      2 O1G        63.4400  -49.3720  -23.5150 O.co2     1 ACP901      0.0000 
      3 O2G        63.8080  -50.1820  -25.8300 O.co2     1 ACP901      0.0000 
      4 O3G        61.6840  -50.7940  -24.6150 O.co2     1 ACP901      0.0000 
      5 PB         62.8490  -47.1050  -26.2910 P.3       1 ACP901      0.0000 
      6 O1B        61.8610  -46.2160  -26.8960 O.co2     1 ACP901      0.0000 
      7 O2B        63.6460  -47.9030  -27.2790 O.co2     1 ACP901      0.0000 
      8 C3B        61.8630  -48.2440  -25.2550 C.3       1 ACP901      0.0000 
      9 PA         65.4370  -46.5650  -25.1510 P.3       1 ACP901      0.0000 
     10 O1A        65.7090  -47.7630  -25.9740 O.co2     1 ACP901      0.0000 
     11 O2A        65.6630  -46.9130  -23.7500 O.co2     1 ACP901      0.0000 
     12 O3A        63.8780  -46.1670  -25.4010 O.3       1 ACP901      0.0000 
     13 O5'        66.4180  -45.3160  -25.5930 O.3       1 ACP901      0.0000 
     14 C5'        65.8370  -44.0450  -25.4830 C.3       1 ACP901      0.0000 
     15 C4'        66.2450  -43.1910  -26.6990 C.3       1 ACP901      0.0000 
     16 O4'        67.4350  -43.5380  -27.0640 O.3       1 ACP901      0.0000 
     17 C3'        65.2920  -43.5310  -27.8630 C.3       1 ACP901      0.0000 
     18 O3'        64.9670  -42.3930  -28.5370 O.3       1 ACP901      0.0000 
     19 C2'        66.1050  -44.4980  -28.7080 C.3       1 ACP901      0.0000 
     20 O2'        65.6820  -44.4720  -30.1620 O.3       1 ACP901      0.0000 
     21 C1'        67.3340  -44.0770  -28.5620 C.3       1 ACP901      0.0000 
     22 N9         68.2370  -45.1940  -28.7090 N.pl3     1 ACP901      0.0000 
     23 C8         68.2500  -46.3430  -28.0010 C.2       1 ACP901      0.0000 
     24 N7         69.2600  -47.1040  -28.4650 N.2       1 ACP901      0.0000 
     25 C5         69.8620  -46.4090  -29.4510 C.ar      1 ACP901      0.0000 
     26 C6         70.9200  -46.7170  -30.2640 C.ar      1 ACP901      0.0000 
     27 N6         71.8400  -47.9230  -30.3920 N.pl3     1 ACP901      0.0000 
     28 N1         71.3390  -45.8420  -31.1810 N.ar      1 ACP901      0.0000 
     29 C2         70.6970  -44.6400  -31.3220 C.ar      1 ACP901      0.0000 
     30 N3         69.6370  -44.3320  -30.5160 N.ar      1 ACP901      0.0000 
     31 C4         69.2310  -45.2250  -29.6020 C.ar      1 ACP901      0.0000 
@<TRIPOS>BOND
     1    1    2 ar   
     2    1    3 ar   
     3    1    4 ar   
     4    1    8 1    
     5    5    6 ar   
     6    5    7 ar   
     7    5    8 1    
     8    5   12 1    
     9    9   10 ar   
    10    9   11 ar   
    11    9   12 1    
    12    9   13 1    
    13   13   14 1    
    14   14   15 1    
    15   15   16 1    
    16   15   17 1    
    17   16   21 1    
    18   17   18 1    
    19   17   19 1    
    20   19   20 1    
    21   19   21 1    
    22   21   22 1    
    23   22   23 1    
    24   22   31 1    
    25   23   24 2    
    26   24   25 1    
    27   25   26 ar   
    28   25   31 ar   
    29   26   27 1    
    30   26   28 ar   
    31   28   29 ar   
    32   29   30 ar   
    33   30   31 ar   
@<TRIPOS>SUBSTRUCTURE
     1 ACP901      1 GROUP   
@<TRIPOS>SET
ATOM$ORANGE STATIC     ATOMS   COLORGROUP SYSTEM 
22 8 8 14 14 15 15 17 17 19 19 21 21 23 23 25 25 26 \
26 29 29 31 31 

