#    Name: 6u2g_1_ACP
#    Modification time : Fri May 22 19:32:06 2020

@<TRIPOS>MOLECULE
6u2g_1_ACP
   31    33     1     0     1
SMALL
NO_CHARGES


@<TRIPOS>ATOM
      1 PG         51.8130  -40.8000  -11.9610 P.3       1 ACP901      0.0000 
      2 O1G        51.5250  -42.2950  -12.1000 O.co2     1 ACP901      0.0000 
      3 O2G        52.8880  -40.2900  -12.9660 O.co2     1 ACP901      0.0000 
      4 O3G        50.5150  -40.0790  -12.2830 O.co2     1 ACP901      0.0000 
      5 PB         52.5270  -38.8370   -9.7150 P.3       1 ACP901      0.0000 
      6 O1B        53.2030  -38.8500   -8.3630 O.co2     1 ACP901      0.0000 
      7 O2B        51.2650  -38.0140   -9.8340 O.co2     1 ACP901      0.0000 
      8 C3B        52.4050  -40.5900  -10.2480 C.3       1 ACP901      0.0000 
      9 PA         53.5830  -36.4990  -10.9880 P.3       1 ACP901      0.0000 
     10 O1A        52.1960  -36.0140  -11.0960 O.co2     1 ACP901      0.0000 
     11 O2A        54.3710  -36.4150  -12.2350 O.co2     1 ACP901      0.0000 
     12 O3A        53.6160  -38.0960  -10.6840 O.3       1 ACP901      0.0000 
     13 O5'        54.3860  -35.6850   -9.7560 O.3       1 ACP901      0.0000 
     14 C5'        55.3320  -36.3680   -8.9670 C.3       1 ACP901      0.0000 
     15 C4'        55.4720  -35.5870   -7.6500 C.3       1 ACP901      0.0000 
     16 O4'        55.7010  -34.3500   -7.9320 O.3       1 ACP901      0.0000 
     17 C3'        54.1120  -35.5430   -6.8740 C.3       1 ACP901      0.0000 
     18 O3'        54.0020  -36.5740   -5.9800 O.3       1 ACP901      0.0000 
     19 C2'        54.2070  -34.2420   -6.1090 C.3       1 ACP901      0.0000 
     20 O2'        54.7920  -34.6090   -4.7760 O.3       1 ACP901      0.0000 
     21 C1'        55.0590  -33.4620   -6.7550 C.3       1 ACP901      0.0000 
     22 N9         54.3060  -32.3490   -7.2910 N.pl3     1 ACP901      0.0000 
     23 C8         53.5520  -32.3210   -8.4090 C.2       1 ACP901      0.0000 
     24 N7         52.9730  -31.1140   -8.5310 N.2       1 ACP901      0.0000 
     25 C5         53.3600  -30.3820   -7.4950 C.ar      1 ACP901      0.0000 
     26 C6         53.0500  -29.0880   -7.1250 C.ar      1 ACP901      0.0000 
     27 N6         52.2040  -27.9650   -7.7090 N.pl3     1 ACP901      0.0000 
     28 N1         53.5740  -28.5940   -5.9850 N.ar      1 ACP901      0.0000 
     29 C2         54.3910  -29.3540   -5.2060 C.ar      1 ACP901      0.0000 
     30 N3         54.6850  -30.6400   -5.5470 N.ar      1 ACP901      0.0000 
     31 C4         54.1790  -31.1510   -6.6990 C.ar      1 ACP901      0.0000 
@<TRIPOS>BOND
     1    1    2 ar   
     2    1    3 ar   
     3    1    4 ar   
     4    1    8 1    
     5    5    6 ar   
     6    5    7 ar   
     7    5    8 1    
     8    5   12 1    
     9    9   10 ar   
    10    9   11 ar   
    11    9   12 1    
    12    9   13 1    
    13   13   14 1    
    14   14   15 1    
    15   15   16 1    
    16   15   17 1    
    17   16   21 1    
    18   17   18 1    
    19   17   19 1    
    20   19   20 1    
    21   19   21 1    
    22   21   22 1    
    23   22   23 1    
    24   22   31 1    
    25   23   24 2    
    26   24   25 1    
    27   25   26 ar   
    28   25   31 ar   
    29   26   27 1    
    30   26   28 ar   
    31   28   29 ar   
    32   29   30 ar   
    33   30   31 ar   
@<TRIPOS>SUBSTRUCTURE
     1 ACP901      1 GROUP   
@<TRIPOS>SET
ATOM$ORANGE STATIC     ATOMS   COLORGROUP SYSTEM 
22 8 8 14 14 15 15 17 17 19 19 21 21 23 23 25 25 26 \
26 29 29 31 31 

