#    Name: 6r9v_1_FMN_CAVITY_N1_4
#    Modification time : Fri May 22 19:25:49 2020

@<TRIPOS>MOLECULE
6r9v_1_FMN_CAVITY_N1_4
   80     0     7     0     0
SMALL
NO_CHARGES


@<TRIPOS>ATOM
      1 OG          6.8600  104.0900   33.3300 O.3       1 SER1        0.0000 
      2 OG          6.1700  103.5700   34.5500 O.3       1 SER1        0.0000 
      3 OG          5.0200  104.4900   34.3000 O.3       1 SER1        0.0000 
      4 OG          5.4800  103.0400   35.7700 O.3       1 SER1        0.0000 
      5 OG          4.8000  102.5100   37.0000 O.3       1 SER1        0.0000 
      6 OG          7.3100  103.1600   36.8500 O.3       1 SER1        0.0000 
      7 OG          6.1600  104.0900   36.6000 O.3       1 SER1        0.0000 
      8 OG          5.0000  105.0200   36.3500 O.3       1 SER1        0.0000 
      9 OG          7.5100  105.6700   36.2100 O.3       1 SER1        0.0000 
     10 OG          6.3600  106.6000   35.9600 O.3       1 SER1        0.0000 
     11 OG          7.9800  104.2200   37.6800 O.3       1 SER1        0.0000 
     12 OG          8.1900  106.7300   37.0400 O.3       1 SER1        0.0000 
     13 OG          7.0300  107.6600   36.7900 O.3       1 SER1        0.0000 
     14 OG          8.1700  107.2600   39.0900 O.3       1 SER1        0.0000 
     15 O           7.5300  105.1400   34.1600 O.2       2 ALA2        0.0000 
     16 O           8.0000  103.6900   35.6300 O.2       2 ALA2        0.0000 
     17 O           8.6700  104.7400   36.4600 O.2       2 ALA2        0.0000 
     18 N           9.1300  103.2900   37.9300 N.am      2 ALA2        0.0000 
     19 N           7.9500  110.1600   32.8700 N.am      2 ALA2        0.0000 
     20 N           9.3400  105.8000   37.2900 N.am      2 ALA2        0.0000 
     21 N           8.6500  105.2700   38.5100 N.am      2 ALA2        0.0000 
     22 N           9.5500  108.3100   36.6500 N.am      2 ALA2        0.0000 
     23 N           8.8600  107.7800   37.8700 N.am      2 ALA2        0.0000 
     24 N          11.3700  108.4300   37.7300 N.am      2 ALA2        0.0000 
     25 N           7.9100  111.2200   36.9800 N.am      2 ALA2        0.0000 
     26 N          10.6800  107.9100   38.9500 N.am      2 ALA2        0.0000 
     27 N           9.5300  108.8400   38.7000 N.am      2 ALA2        0.0000 
     28 O           9.7300  111.3400   38.0600 O.2       2 ALA2        0.0000 
     29 O           9.0400  110.8200   39.2800 O.2       2 ALA2        0.0000 
     30 O          11.7800  113.4500   36.4400 O.2       2 ALA2        0.0000 
     31 O          11.0900  112.9200   37.6600 O.2       2 ALA2        0.0000 
     32 O          11.7600  113.9800   38.5000 O.2       2 ALA2        0.0000 
     33 OD1         7.0700  106.6000   32.6800 O.co2     3 ASP3        0.0000 
     34 OD1         6.3800  106.0700   33.9100 O.co2     3 ASP3        0.0000 
     35 OD1         5.6900  105.5500   35.1300 O.co2     3 ASP3        0.0000 
     36 OD1         4.5400  106.4800   34.8800 O.co2     3 ASP3        0.0000 
     37 OD1         8.4300  108.1800   32.2900 O.co2     3 ASP3        0.0000 
     38 OD1         7.7400  107.6500   33.5100 O.co2     3 ASP3        0.0000 
     39 OD1         7.0500  107.1300   34.7400 O.co2     3 ASP3        0.0000 
     40 OD1         8.4100  108.7100   34.3400 O.co2     3 ASP3        0.0000 
     41 OD1         7.7200  108.1800   35.5700 O.co2     3 ASP3        0.0000 
     42 OD1         8.6000  111.7400   35.7500 O.co2     3 ASP3        0.0000 
     43 OD1         8.8400  108.3100   39.9300 O.co2     3 ASP3        0.0000 
     44 OD1         9.2700  112.8000   36.5800 O.co2     3 ASP3        0.0000 
     45 OD1        10.6300  114.3800   36.1900 O.co2     3 ASP3        0.0000 
     46 OD1         9.9400  113.8500   37.4100 O.co2     3 ASP3        0.0000 
     47 NZ         10.2000  109.8900   39.5300 N.4       4 LYS4        0.0000 
     48 NZ         11.5600  111.4700   39.1400 N.4       4 LYS4        0.0000 
     49 CZ          6.6600  101.5800   33.9700 C.ar      5 PHE5        0.0000 
     50 CZ          6.6400  102.1100   36.0200 C.ar      5 PHE5        0.0000 
     51 CZ          8.4600  102.2400   37.1000 C.ar      5 PHE5        0.0000 
     52 CZ          7.7000  108.7100   37.6200 C.ar      5 PHE5        0.0000 
     53 CA          8.0200  103.1600   33.5700 C.3       6 GLY6        0.0000 
     54 CA          7.3300  102.6400   34.8000 C.3       6 GLY6        0.0000 
     55 CA          8.2200  105.6700   32.9300 C.3       6 GLY6        0.0000 
     56 CA          9.5800  107.2500   32.5400 C.3       6 GLY6        0.0000 
     57 CA          8.8900  106.7200   33.7600 C.3       6 GLY6        0.0000 
     58 CA          9.3600  105.2700   35.2400 C.3       6 GLY6        0.0000 
     59 CA          8.2000  106.2000   34.9900 C.3       6 GLY6        0.0000 
     60 CA          9.7900  109.7600   31.8900 C.3       6 GLY6        0.0000 
     61 CA         10.2500  108.3000   33.3700 C.3       6 GLY6        0.0000 
     62 CA          9.1000  109.2300   33.1200 C.3       6 GLY6        0.0000 
     63 CA          9.5600  107.7800   34.5900 C.3       6 GLY6        0.0000 
     64 CA          8.8700  107.2500   35.8200 C.3       6 GLY6        0.0000 
     65 CA          9.7700  110.2900   33.9500 C.3       6 GLY6        0.0000 
     66 CA          8.6200  111.2200   33.7000 C.3       6 GLY6        0.0000 
     67 CA         10.2300  108.8300   35.4200 C.3       6 GLY6        0.0000 
     68 CA          9.0800  109.7600   35.1700 C.3       6 GLY6        0.0000 
     69 CA          7.9300  110.6900   34.9200 C.3       6 GLY6        0.0000 
     70 CA          8.3900  109.2400   36.4000 C.3       6 GLY6        0.0000 
     71 CA         10.4400  111.3400   34.7800 C.3       6 GLY6        0.0000 
     72 CA          9.7500  110.8200   36.0000 C.3       6 GLY6        0.0000 
     73 CA          8.3700  109.7600   38.4500 C.3       6 GLY6        0.0000 
     74 CA         10.4200  111.8700   36.8300 C.3       6 GLY6        0.0000 
     75 CA         10.8900  110.4200   38.3100 C.3       6 GLY6        0.0000 
     76 CA         11.3500  108.9600   39.7800 C.3       6 GLY6        0.0000 
     77 CA         10.4000  112.4000   38.8900 C.3       6 GLY6        0.0000 
     78 DU          6.8400  104.6200   35.3800 H         7 CUB7        0.0000 
     79 DU         10.2200  109.3600   37.4800 H         7 CUB7        0.0000 
     80 DU          9.0600  110.2900   37.2300 H         7 CUB7        0.0000 
@<TRIPOS>BOND
@<TRIPOS>SUBSTRUCTURE
     1 SER1        1 GROUP   
     2 ALA2       15 GROUP   
     3 ASP3       33 GROUP   
     4 LYS4       47 GROUP   
     5 PHE5       49 GROUP   
     6 GLY6       53 GROUP   
     7 CUB7       78 GROUP   
@<TRIPOS>SET

