#    Name: 6r9v_1_FMN
#    Modification time : Fri May 22 19:25:47 2020

@<TRIPOS>MOLECULE
6r9v_1_FMN
   31    33     1     0     1
SMALL
NO_CHARGES


@<TRIPOS>ATOM
      1 N1          8.8730  105.5830   39.4920 N.2       1 FMN401      0.0000 
      2 C2          8.9820  104.3170   39.9590 C.2       1 FMN401      0.0000 
      3 O2          9.1580  104.0810   41.2230 O.2       1 FMN401      0.0000 
      4 N3          8.9210  103.2940   39.0840 N.am      1 FMN401      0.0000 
      5 C4          8.7870  103.4340   37.7540 C.2       1 FMN401      0.0000 
      6 O4          8.7500  102.4630   36.9810 O.2       1 FMN401      0.0000 
      7 C4A         8.6390  104.7590   37.1840 C.2       1 FMN401      0.0000 
      8 N5          8.4790  104.9370   35.8470 N.2       1 FMN401      0.0000 
      9 C5A         8.4760  106.1920   35.3350 C.ar      1 FMN401      0.0000 
     10 C6          8.3900  106.4020   33.9490 C.ar      1 FMN401      0.0000 
     11 C7          8.3370  107.7220   33.4830 C.ar      1 FMN401      0.0000 
     12 C7M         8.2090  108.0460   32.0270 C.3       1 FMN401      0.0000 
     13 C8          8.4760  108.8740   34.3960 C.ar      1 FMN401      0.0000 
     14 C8M         8.4480  110.2810   33.8330 C.3       1 FMN401      0.0000 
     15 C9          8.5910  108.6740   35.7550 C.ar      1 FMN401      0.0000 
     16 C9A         8.5850  107.3670   36.2690 C.ar      1 FMN401      0.0000 
     17 N10         8.6640  107.1490   37.6780 N.pl3     1 FMN401      0.0000 
     18 C10         8.7230  105.8420   38.1610 C.2       1 FMN401      0.0000 
     19 C1'         8.7920  108.2550   38.6420 C.3       1 FMN401      0.0000 
     20 C2'        10.2740  108.6420   38.8380 C.3       1 FMN401      0.0000 
     21 O2'        10.8900  107.6850   39.7050 O.3       1 FMN401      0.0000 
     22 C3'        10.3800  110.0060   39.4860 C.3       1 FMN401      0.0000 
     23 O3'         9.5710  110.0370   40.7280 O.3       1 FMN401      0.0000 
     24 C4'         9.9680  111.1570   38.5710 C.3       1 FMN401      0.0000 
     25 O4'        10.3410  111.0180   37.1720 O.3       1 FMN401      0.0000 
     26 C5'        10.5690  112.4110   39.2060 C.3       1 FMN401      0.0000 
     27 O5'        10.1320  113.6250   38.6060 O.3       1 FMN401      0.0000 
     28 P          10.9490  114.3760   37.4030 P.3       1 FMN401      0.0000 
     29 O1P        10.2780  115.7000   37.2930 O.co2     1 FMN401      0.0000 
     30 O2P        10.6850  113.5700   36.1560 O.co2     1 FMN401      0.0000 
     31 O3P        12.3910  114.4840   37.7690 O.co2     1 FMN401      0.0000 
@<TRIPOS>BOND
     1    1    2 1    
     2    1   18 2    
     3    2    3 2    
     4    2    4 am   
     5    4    5 am   
     6    5    6 2    
     7    5    7 1    
     8    7    8 2    
     9    7   18 1    
    10    8    9 1    
    11    9   10 ar   
    12    9   16 ar   
    13   10   11 ar   
    14   11   12 1    
    15   11   13 ar   
    16   13   14 1    
    17   13   15 ar   
    18   15   16 ar   
    19   16   17 1    
    20   17   18 1    
    21   17   19 1    
    22   19   20 1    
    23   20   21 1    
    24   20   22 1    
    25   22   23 1    
    26   22   24 1    
    27   24   25 1    
    28   24   26 1    
    29   26   27 1    
    30   27   28 1    
    31   28   29 ar   
    32   28   30 ar   
    33   28   31 ar   
@<TRIPOS>SUBSTRUCTURE
     1 FMN401      1 GROUP   
@<TRIPOS>SET
ATOM$ORANGE STATIC     ATOMS   COLORGROUP SYSTEM 
34 2 2 5 5 7 7 9 9 10 10 11 11 12 12 13 13 14 \
14 15 15 16 16 18 18 19 19 20 20 22 22 24 24 26 26 

