#    Name: 6r9v_1_FMN_CAVITY_N1_ALL
#    Modification time : Fri May 22 19:25:49 2020

@<TRIPOS>MOLECULE
6r9v_1_FMN_CAVITY_N1_ALL
  123     0     7     0     0
SMALL
NO_CHARGES


@<TRIPOS>ATOM
      1 OG          3.0100  101.3300   31.8100 O.3       1 SER1        0.0000 
      2 OG          1.8600  102.2600   31.5600 O.3       1 SER1        0.0000 
      3 OG          2.3200  100.8100   33.0300 O.3       1 SER1        0.0000 
      4 OG          1.1700  101.7300   32.7800 O.3       1 SER1        0.0000 
      5 OG          1.4100   98.3000   36.9500 O.3       1 SER1        0.0000 
      6 OG          0.2500   99.2300   36.7000 O.3       1 SER1        0.0000 
      7 OG          5.5200  101.9800   31.6600 O.3       1 SER1        0.0000 
      8 OG          4.8300  101.4600   32.8900 O.3       1 SER1        0.0000 
      9 OG          2.9900  101.8600   33.8600 O.3       1 SER1        0.0000 
     10 OG          1.8400  102.7900   33.6100 O.3       1 SER1        0.0000 
     11 OG          2.3000  101.3300   35.0900 O.3       1 SER1        0.0000 
     12 OG          2.0800   99.3500   37.7800 O.3       1 SER1        0.0000 
     13 OG          1.3900   98.8300   39.0100 O.3       1 SER1        0.0000 
     14 OG          6.1900  103.0400   32.4900 O.3       1 SER1        0.0000 
     15 OG          5.5000  102.5100   33.7200 O.3       1 SER1        0.0000 
     16 OG          3.6600  102.9100   34.6900 O.3       1 SER1        0.0000 
     17 OG          6.8600  104.0900   33.3300 O.3       1 SER1        0.0000 
     18 OG          6.1700  103.5700   34.5500 O.3       1 SER1        0.0000 
     19 OG          5.0200  104.4900   34.3000 O.3       1 SER1        0.0000 
     20 OG          5.4800  103.0400   35.7700 O.3       1 SER1        0.0000 
     21 OG          4.3300  103.9700   35.5200 O.3       1 SER1        0.0000 
     22 OG          4.8000  102.5100   37.0000 O.3       1 SER1        0.0000 
     23 OG          3.6400  103.4400   36.7500 O.3       1 SER1        0.0000 
     24 OG          2.9500  102.9200   37.9700 O.3       1 SER1        0.0000 
     25 OG          7.3100  103.1600   36.8500 O.3       1 SER1        0.0000 
     26 OG          6.1600  104.0900   36.6000 O.3       1 SER1        0.0000 
     27 OG          5.0000  105.0200   36.3500 O.3       1 SER1        0.0000 
     28 OG          4.3100  104.5000   37.5800 O.3       1 SER1        0.0000 
     29 OG          3.1600  105.4300   37.3300 O.3       1 SER1        0.0000 
     30 OG          7.5100  105.6700   36.2100 O.3       1 SER1        0.0000 
     31 OG          6.3600  106.6000   35.9600 O.3       1 SER1        0.0000 
     32 OG          7.9800  104.2200   37.6800 O.3       1 SER1        0.0000 
     33 OG          8.1900  106.7300   37.0400 O.3       1 SER1        0.0000 
     34 OG          7.0300  107.6600   36.7900 O.3       1 SER1        0.0000 
     35 OG          8.1700  107.2600   39.0900 O.3       1 SER1        0.0000 
     36 N           0.2300   99.7600   38.7600 N.am      2 ALA2        0.0000 
     37 N           1.5900  101.3400   38.3600 N.am      2 ALA2        0.0000 
     38 O           7.5300  105.1400   34.1600 O.2       2 ALA2        0.0000 
     39 O           8.0000  103.6900   35.6300 O.2       2 ALA2        0.0000 
     40 O           8.6700  104.7400   36.4600 O.2       2 ALA2        0.0000 
     41 N           9.1300  103.2900   37.9300 N.am      2 ALA2        0.0000 
     42 N           7.9500  110.1600   32.8700 N.am      2 ALA2        0.0000 
     43 N           9.3400  105.8000   37.2900 N.am      2 ALA2        0.0000 
     44 N           8.6500  105.2700   38.5100 N.am      2 ALA2        0.0000 
     45 N           9.5500  108.3100   36.6500 N.am      2 ALA2        0.0000 
     46 N           8.8600  107.7800   37.8700 N.am      2 ALA2        0.0000 
     47 N          11.3700  108.4300   37.7300 N.am      2 ALA2        0.0000 
     48 N           7.9100  111.2200   36.9800 N.am      2 ALA2        0.0000 
     49 N          10.6800  107.9100   38.9500 N.am      2 ALA2        0.0000 
     50 N           9.5300  108.8400   38.7000 N.am      2 ALA2        0.0000 
     51 O           9.7300  111.3400   38.0600 O.2       2 ALA2        0.0000 
     52 O           9.0400  110.8200   39.2800 O.2       2 ALA2        0.0000 
     53 O          11.7800  113.4500   36.4400 O.2       2 ALA2        0.0000 
     54 O          11.0900  112.9200   37.6600 O.2       2 ALA2        0.0000 
     55 O          11.7600  113.9800   38.5000 O.2       2 ALA2        0.0000 
     56 OD1         2.5100  103.8400   34.4400 O.co2     3 ASP3        0.0000 
     57 OD1         3.1800  104.9000   35.2700 O.co2     3 ASP3        0.0000 
     58 OD1         7.0700  106.6000   32.6800 O.co2     3 ASP3        0.0000 
     59 OD1         6.3800  106.0700   33.9100 O.co2     3 ASP3        0.0000 
     60 OD1         5.6900  105.5500   35.1300 O.co2     3 ASP3        0.0000 
     61 OD1         4.5400  106.4800   34.8800 O.co2     3 ASP3        0.0000 
     62 OD1         8.4300  108.1800   32.2900 O.co2     3 ASP3        0.0000 
     63 OD1         7.7400  107.6500   33.5100 O.co2     3 ASP3        0.0000 
     64 OD1         7.0500  107.1300   34.7400 O.co2     3 ASP3        0.0000 
     65 OD1         8.4100  108.7100   34.3400 O.co2     3 ASP3        0.0000 
     66 OD1         7.7200  108.1800   35.5700 O.co2     3 ASP3        0.0000 
     67 OD1         8.6000  111.7400   35.7500 O.co2     3 ASP3        0.0000 
     68 OD1         8.8400  108.3100   39.9300 O.co2     3 ASP3        0.0000 
     69 OD1         9.2700  112.8000   36.5800 O.co2     3 ASP3        0.0000 
     70 OD1        10.6300  114.3800   36.1900 O.co2     3 ASP3        0.0000 
     71 OD1         9.9400  113.8500   37.4100 O.co2     3 ASP3        0.0000 
     72 NZ          1.6100  100.8100   36.3100 N.4       4 LYS4        0.0000 
     73 NZ          0.9200  100.2800   37.5300 N.4       4 LYS4        0.0000 
     74 NZ          2.9700  102.3900   35.9200 N.4       4 LYS4        0.0000 
     75 NZ          2.2800  101.8600   37.1400 N.4       4 LYS4        0.0000 
     76 NZ          2.4900  104.3700   36.5000 N.4       4 LYS4        0.0000 
     77 NZ          1.8000  103.8500   37.7200 N.4       4 LYS4        0.0000 
     78 NZ         10.2000  109.8900   39.5300 N.4       4 LYS4        0.0000 
     79 NZ         11.5600  111.4700   39.1400 N.4       4 LYS4        0.0000 
     80 CZ          6.6700  101.0500   31.9100 C.ar      5 PHE5        0.0000 
     81 CZ          5.9900  100.5300   33.1400 C.ar      5 PHE5        0.0000 
     82 CZ          4.1400  100.9300   34.1100 C.ar      5 PHE5        0.0000 
     83 CZ          3.4500  100.4100   35.3400 C.ar      5 PHE5        0.0000 
     84 CZ          2.7600   99.8800   36.5600 C.ar      5 PHE5        0.0000 
     85 CZ          6.6600  101.5800   33.9700 C.ar      5 PHE5        0.0000 
     86 CZ          4.8100  101.9900   34.9400 C.ar      5 PHE5        0.0000 
     87 CZ          4.1200  101.4600   36.1700 C.ar      5 PHE5        0.0000 
     88 CZ          3.4400  100.9300   37.3900 C.ar      5 PHE5        0.0000 
     89 CZ          2.7500  100.4100   38.6100 C.ar      5 PHE5        0.0000 
     90 CZ          6.6400  102.1100   36.0200 C.ar      5 PHE5        0.0000 
     91 CZ          8.4600  102.2400   37.1000 C.ar      5 PHE5        0.0000 
     92 CZ          7.7000  108.7100   37.6200 C.ar      5 PHE5        0.0000 
     93 CA          4.1600  100.4000   32.0600 C.3       6 GLY6        0.0000 
     94 CA          7.3500  102.1100   32.7400 C.3       6 GLY6        0.0000 
     95 CA          8.0200  103.1600   33.5700 C.3       6 GLY6        0.0000 
     96 CA          7.3300  102.6400   34.8000 C.3       6 GLY6        0.0000 
     97 CA          8.2200  105.6700   32.9300 C.3       6 GLY6        0.0000 
     98 CA          9.5800  107.2500   32.5400 C.3       6 GLY6        0.0000 
     99 CA          8.8900  106.7200   33.7600 C.3       6 GLY6        0.0000 
    100 CA          9.3600  105.2700   35.2400 C.3       6 GLY6        0.0000 
    101 CA          8.2000  106.2000   34.9900 C.3       6 GLY6        0.0000 
    102 CA          9.7900  109.7600   31.8900 C.3       6 GLY6        0.0000 
    103 CA         10.2500  108.3000   33.3700 C.3       6 GLY6        0.0000 
    104 CA          9.1000  109.2300   33.1200 C.3       6 GLY6        0.0000 
    105 CA          9.5600  107.7800   34.5900 C.3       6 GLY6        0.0000 
    106 CA          8.8700  107.2500   35.8200 C.3       6 GLY6        0.0000 
    107 CA          9.7700  110.2900   33.9500 C.3       6 GLY6        0.0000 
    108 CA          8.6200  111.2200   33.7000 C.3       6 GLY6        0.0000 
    109 CA         10.2300  108.8300   35.4200 C.3       6 GLY6        0.0000 
    110 CA          9.0800  109.7600   35.1700 C.3       6 GLY6        0.0000 
    111 CA          7.9300  110.6900   34.9200 C.3       6 GLY6        0.0000 
    112 CA          8.3900  109.2400   36.4000 C.3       6 GLY6        0.0000 
    113 CA         10.4400  111.3400   34.7800 C.3       6 GLY6        0.0000 
    114 CA          9.7500  110.8200   36.0000 C.3       6 GLY6        0.0000 
    115 CA          8.3700  109.7600   38.4500 C.3       6 GLY6        0.0000 
    116 CA         10.4200  111.8700   36.8300 C.3       6 GLY6        0.0000 
    117 CA         10.8900  110.4200   38.3100 C.3       6 GLY6        0.0000 
    118 CA         11.3500  108.9600   39.7800 C.3       6 GLY6        0.0000 
    119 CA         10.4000  112.4000   38.8900 C.3       6 GLY6        0.0000 
    120 DU         -0.4400   98.7000   37.9300 H         7 CUB7        0.0000 
    121 DU          6.8400  104.6200   35.3800 H         7 CUB7        0.0000 
    122 DU         10.2200  109.3600   37.4800 H         7 CUB7        0.0000 
    123 DU          9.0600  110.2900   37.2300 H         7 CUB7        0.0000 
@<TRIPOS>BOND
@<TRIPOS>SUBSTRUCTURE
     1 SER1        1 GROUP   
     2 ALA2       36 GROUP   
     3 ASP3       56 GROUP   
     4 LYS4       72 GROUP   
     5 PHE5       80 GROUP   
     6 GLY6       93 GROUP   
     7 CUB7      120 GROUP   
@<TRIPOS>SET

