#    Name: 6dqu_1_GLY_ILE_ILE_ASN_THR_LEU_CAVITY_N1_4
#    Modification time : Fri May 22 19:33:15 2020

@<TRIPOS>MOLECULE
6dqu_1_GLY_ILE_ILE_ASN_THR_LEU_CAVITY_N1_4
  128     0     6     0     0
SMALL
NO_CHARGES


@<TRIPOS>ATOM
      1 OG        -17.3800  -25.9300   31.5100 O.3       1 SER1        0.0000 
      2 OG        -16.1800  -25.4700   30.7500 O.3       1 SER1        0.0000 
      3 OG        -16.9400  -24.2600   30.2900 O.3       1 SER1        0.0000 
      4 OG        -16.4900  -22.5800   29.0700 O.3       1 SER1        0.0000 
      5 OG        -15.2900  -22.1100   28.3100 O.3       1 SER1        0.0000 
      6 OG        -17.3600  -26.8600   33.9400 O.3       1 SER1        0.0000 
      7 OG        -16.1500  -26.3900   33.1800 O.3       1 SER1        0.0000 
      8 OG        -14.8200  -21.3600   29.5200 O.3       1 SER1        0.0000 
      9 OG        -15.6800  -25.6300   34.3900 O.3       1 SER1        0.0000 
     10 OG        -14.4800  -25.1700   33.6300 O.3       1 SER1        0.0000 
     11 OG        -19.0400  -17.9100   30.8700 O.3       1 SER1        0.0000 
     12 N         -20.3100  -25.7800   26.9700 N.am      2 ALA2        0.0000 
     13 N         -19.5300  -27.9100   29.8500 N.am      2 ALA2        0.0000 
     14 N         -18.3200  -27.4400   29.0900 N.am      2 ALA2        0.0000 
     15 N         -17.0900  -27.9000   30.7600 N.am      2 ALA2        0.0000 
     16 N         -15.8900  -27.4300   30.0000 N.am      2 ALA2        0.0000 
     17 O         -19.0600  -27.1600   31.0600 O.2       2 ALA2        0.0000 
     18 N         -17.8500  -26.6900   30.3000 N.am      2 ALA2        0.0000 
     19 O         -19.8200  -25.9500   30.6000 O.2       2 ALA2        0.0000 
     20 O         -20.5800  -24.7400   30.1400 O.2       2 ALA2        0.0000 
     21 O         -21.3400  -23.5300   29.6800 O.2       2 ALA2        0.0000 
     22 O         -19.2400  -19.7100   26.4800 O.2       2 ALA2        0.0000 
     23 O         -18.5900  -26.4000   32.2700 O.2       2 ALA2        0.0000 
     24 O         -20.1100  -23.9800   31.3500 O.2       2 ALA2        0.0000 
     25 N         -16.0500  -20.9000   27.8500 N.am      2 ALA2        0.0000 
     26 N         -16.8100  -19.6900   27.3900 N.am      2 ALA2        0.0000 
     27 N         -17.5700  -18.4800   26.9300 N.am      2 ALA2        0.0000 
     28 N         -16.3600  -18.0200   26.1700 N.am      2 ALA2        0.0000 
     29 O         -15.1600  -17.5500   25.4100 O.2       2 ALA2        0.0000 
     30 N         -18.3300  -17.2800   26.4700 N.am      2 ALA2        0.0000 
     31 N         -17.1200  -16.8100   25.7100 N.am      2 ALA2        0.0000 
     32 N         -15.9200  -16.3400   24.9500 N.am      2 ALA2        0.0000 
     33 O         -14.6300  -28.8100   34.1000 O.2       2 ALA2        0.0000 
     34 O         -13.4300  -28.3400   33.3400 O.2       2 ALA2        0.0000 
     35 N         -17.5400  -19.4100   29.3600 N.am      2 ALA2        0.0000 
     36 N         -18.3000  -18.2000   28.9000 N.am      2 ALA2        0.0000 
     37 N         -17.1000  -17.7300   28.1400 N.am      2 ALA2        0.0000 
     38 N         -15.8900  -17.2600   27.3800 N.am      2 ALA2        0.0000 
     39 N         -17.8600  -16.5200   27.6800 N.am      2 ALA2        0.0000 
     40 N         -18.6200  -15.3100   27.2200 N.am      2 ALA2        0.0000 
     41 O         -12.9600  -27.5800   34.5500 O.2       2 ALA2        0.0000 
     42 N         -17.8300  -17.4400   30.1100 N.am      2 ALA2        0.0000 
     43 N         -17.3900  -15.7700   28.8900 N.am      2 ALA2        0.0000 
     44 OD1       -18.9000  -23.5200   30.5900 O.co2     3 ASP3        0.0000 
     45 OD1       -17.7000  -23.0500   29.8300 O.co2     3 ASP3        0.0000 
     46 OD1       -18.4600  -21.8400   29.3700 O.co2     3 ASP3        0.0000 
     47 OD1       -16.0200  -21.8300   30.2800 O.co2     3 ASP3        0.0000 
     48 OD1       -16.7800  -20.6200   29.8200 O.co2     3 ASP3        0.0000 
     49 OD1       -18.7500  -19.8800   30.1200 O.co2     3 ASP3        0.0000 
     50 OD1       -19.8000  -16.7000   30.4100 O.co2     3 ASP3        0.0000 
     51 OD1       -18.5900  -16.2400   29.6500 O.co2     3 ASP3        0.0000 
     52 OD1       -19.3500  -15.0300   29.1900 O.co2     3 ASP3        0.0000 
     53 CZ        -13.4800  -26.4900   28.4800 C.ar      4 PHE5        0.0000 
     54 CZ        -15.4400  -25.7500   28.7800 C.ar      4 PHE5        0.0000 
     55 CZ        -14.2400  -25.2800   28.0200 C.ar      4 PHE5        0.0000 
     56 CZ        -13.0300  -24.8200   27.2600 C.ar      4 PHE5        0.0000 
     57 CZ        -20.1300  -23.0600   28.9200 C.ar      4 PHE5        0.0000 
     58 CZ        -18.9300  -22.5900   28.1600 C.ar      4 PHE5        0.0000 
     59 CZ        -19.6900  -21.3900   27.7000 C.ar      4 PHE5        0.0000 
     60 CZ        -13.4500  -27.4200   30.9100 C.ar      4 PHE5        0.0000 
     61 CZ        -15.4200  -26.6700   31.2100 C.ar      4 PHE5        0.0000 
     62 CZ        -14.9700  -25.0000   29.9900 C.ar      4 PHE5        0.0000 
     63 CZ        -12.5600  -24.0600   28.4700 C.ar      4 PHE5        0.0000 
     64 CZ        -19.3500  -25.1900   31.8100 C.ar      4 PHE5        0.0000 
     65 CZ        -18.1400  -24.7300   31.0500 C.ar      4 PHE5        0.0000 
     66 CZ        -14.5300  -23.3200   28.7700 C.ar      4 PHE5        0.0000 
     67 CZ        -13.3200  -22.8500   28.0100 C.ar      4 PHE5        0.0000 
     68 CZ        -19.6600  -22.3100   30.1300 C.ar      4 PHE5        0.0000 
     69 CZ        -19.2200  -20.6300   28.9100 C.ar      4 PHE5        0.0000 
     70 CZ        -18.0100  -20.1600   28.1500 C.ar      4 PHE5        0.0000 
     71 CZ        -18.7700  -18.9500   27.6900 C.ar      4 PHE5        0.0000 
     72 CZ        -14.1900  -27.1300   32.8800 C.ar      4 PHE5        0.0000 
     73 CZ        -14.9500  -25.9200   32.4200 C.ar      4 PHE5        0.0000 
     74 CZ        -12.8500  -22.1000   29.2200 C.ar      4 PHE5        0.0000 
     75 CZ        -19.5100  -18.6700   29.6600 C.ar      4 PHE5        0.0000 
     76 CZ        -20.2700  -17.4600   29.2000 C.ar      4 PHE5        0.0000 
     77 CZ        -19.0600  -16.9900   28.4400 C.ar      4 PHE5        0.0000 
     78 CZ        -16.6500  -16.0500   26.9200 C.ar      4 PHE5        0.0000 
     79 CZ        -17.4100  -14.8400   26.4600 C.ar      4 PHE5        0.0000 
     80 CZ        -14.9200  -26.8400   34.8500 C.ar      4 PHE5        0.0000 
     81 CZ        -13.7200  -26.3700   34.0900 C.ar      4 PHE5        0.0000 
     82 CZ        -18.1500  -14.5600   28.4300 C.ar      4 PHE5        0.0000 
     83 CZ        -12.4900  -26.8300   35.7500 C.ar      4 PHE5        0.0000 
     84 CZ        -14.4600  -26.0900   36.0500 C.ar      4 PHE5        0.0000 
     85 CZ        -13.2500  -25.6200   35.2900 C.ar      4 PHE5        0.0000 
     86 CA        -20.7600  -27.4600   28.1900 C.3       5 GLY6        0.0000 
     87 CA        -19.5500  -26.9900   27.4200 C.3       5 GLY6        0.0000 
     88 CA        -21.5200  -26.2500   27.7300 C.3       5 GLY6        0.0000 
     89 CA        -21.8100  -24.2900   28.4700 C.3       5 GLY6        0.0000 
     90 CA        -20.6000  -23.8200   27.7100 C.3       5 GLY6        0.0000 
     91 CA        -19.4000  -23.3500   26.9500 C.3       5 GLY6        0.0000 
     92 CA        -15.1300  -28.6400   30.4600 C.3       5 GLY6        0.0000 
     93 CA        -13.9200  -28.1700   29.7000 C.3       5 GLY6        0.0000 
     94 CA        -14.6800  -26.9600   29.2400 C.3       5 GLY6        0.0000 
     95 CA        -15.7600  -22.8700   27.1000 C.3       5 GLY6        0.0000 
     96 CA        -17.7200  -22.1300   27.4000 C.3       5 GLY6        0.0000 
     97 CA        -16.5200  -21.6600   26.6400 C.3       5 GLY6        0.0000 
     98 CA        -18.4800  -20.9200   26.9400 C.3       5 GLY6        0.0000 
     99 CA        -16.8300  -18.7700   24.9600 C.3       5 GLY6        0.0000 
    100 CA        -15.6300  -18.3000   24.2000 C.3       5 GLY6        0.0000 
    101 CA        -15.1000  -29.5600   32.8900 C.3       5 GLY6        0.0000 
    102 CA        -13.9000  -29.0900   32.1300 C.3       5 GLY6        0.0000 
    103 CA        -15.8600  -28.3500   32.4300 C.3       5 GLY6        0.0000 
    104 CA        -14.6600  -27.8800   31.6700 C.3       5 GLY6        0.0000 
    105 CA        -14.0800  -21.6400   27.5500 C.3       5 GLY6        0.0000 
    106 CA        -14.8400  -20.4300   27.0900 C.3       5 GLY6        0.0000 
    107 CA        -19.5300  -17.7400   27.2300 C.3       5 GLY6        0.0000 
    108 CA        -16.6000  -28.0700   34.4000 C.3       5 GLY6        0.0000 
    109 CA        -13.6100  -20.8900   28.7600 C.3       5 GLY6        0.0000 
    110 CA        -19.8200  -15.7800   27.9800 C.3       5 GLY6        0.0000 
    111 CA        -14.1600  -28.0500   35.3100 C.3       5 GLY6        0.0000 
    112 CA        -16.1300  -27.3100   35.6100 C.3       5 GLY6        0.0000 
    113 CA        -20.5600  -15.4900   29.9500 C.3       5 GLY6        0.0000 
    114 CA        -13.7000  -27.3000   36.5100 C.3       5 GLY6        0.0000 
    115 DU        -20.2900  -26.7000   29.3900 H         6 CUB7        0.0000 
    116 DU        -19.0800  -26.2300   28.6300 H         6 CUB7        0.0000 
    117 DU        -21.0500  -25.4900   28.9300 H         6 CUB7        0.0000 
    118 DU        -19.8400  -25.0300   28.1700 H         6 CUB7        0.0000 
    119 DU        -16.6500  -26.2200   29.5400 H         6 CUB7        0.0000 
    120 DU        -18.6100  -25.4800   29.8400 H         6 CUB7        0.0000 
    121 DU        -17.4100  -25.0100   29.0800 H         6 CUB7        0.0000 
    122 DU        -16.2000  -24.5400   28.3200 H         6 CUB7        0.0000 
    123 DU        -19.3700  -24.2700   29.3800 H         6 CUB7        0.0000 
    124 DU        -18.1700  -23.8000   28.6200 H         6 CUB7        0.0000 
    125 DU        -16.9600  -23.3300   27.8600 H         6 CUB7        0.0000 
    126 DU        -16.6200  -27.1400   31.9700 H         6 CUB7        0.0000 
    127 DU        -17.2500  -21.3700   28.6100 H         6 CUB7        0.0000 
    128 DU        -15.3900  -27.6000   33.6400 H         6 CUB7        0.0000 
@<TRIPOS>BOND
@<TRIPOS>SUBSTRUCTURE
     1 SER1        1 GROUP   
     2 ALA2       12 GROUP   
     3 ASP3       44 GROUP   
     4 PHE5       53 GROUP   
     5 GLY6       86 GROUP   
     6 CUB7      115 GROUP   
@<TRIPOS>SET

