#    Name: 6dqu_1_GLY_ILE_ILE_ASN_THR_LEU
#    Modification time : Fri May 22 19:33:13 2020

@<TRIPOS>MOLECULE
6dqu_1_GLY_ILE_ILE_ASN_THR_LEU
   44    43     6     0     0
SMALL
NO_CHARGES


@<TRIPOS>ATOM
      1 N         -14.1520  -16.0090   23.8570 N.4       1 GLY1        0.0000 
      2 CA        -15.5660  -16.4890   24.0240 C.3       1 GLY1        0.0000 
      3 C         -15.7570  -17.0540   25.4370 C.2       1 GLY1        0.0000 
      4 O         -14.8370  -17.6100   26.0300 O.2       1 GLY1        0.0000 
      5 N         -16.9840  -16.9790   25.9470 N.am      2 ILE2        0.0000 
      6 CA        -17.2780  -17.4960   27.2980 C.3       2 ILE2        0.0000 
      7 C         -17.4710  -19.0080   27.2500 C.2       2 ILE2        0.0000 
      8 O         -18.3320  -19.5030   26.5090 O.2       2 ILE2        0.0000 
      9 CB        -18.5370  -16.8420   27.9250 C.3       2 ILE2        0.0000 
     10 CG1       -18.3730  -15.3110   28.0190 C.3       2 ILE2        0.0000 
     11 CG2       -18.7560  -17.3930   29.3460 C.3       2 ILE2        0.0000 
     12 CD1       -19.6080  -14.5950   28.5460 C.3       2 ILE2        0.0000 
     13 N         -16.6820  -19.7550   28.0170 N.am      3 ILE3        0.0000 
     14 CA        -16.7350  -21.2300   28.1080 C.3       3 ILE3        0.0000 
     15 C         -17.8240  -21.6360   29.0600 C.2       3 ILE3        0.0000 
     16 O         -17.8480  -21.1480   30.2020 O.2       3 ILE3        0.0000 
     17 CB        -15.4010  -21.7890   28.6240 C.3       3 ILE3        0.0000 
     18 CG1       -14.2750  -21.3170   27.7100 C.3       3 ILE3        0.0000 
     19 CG2       -15.4460  -23.3290   28.7310 C.3       3 ILE3        0.0000 
     20 CD1       -12.8740  -21.5490   28.2750 C.3       3 ILE3        0.0000 
     21 N         -18.7600  -22.4760   28.6300 N.am      4 ASN4        0.0000 
     22 CA        -19.8530  -22.8760   29.5060 C.3       4 ASN4        0.0000 
     23 C         -19.4430  -24.0100   30.4430 C.2       4 ASN4        0.0000 
     24 O         -19.9400  -24.0940   31.5460 O.2       4 ASN4        0.0000 
     25 CB        -21.1270  -23.2520   28.7530 C.3       4 ASN4        0.0000 
     26 CG        -20.9100  -24.3930   27.7440 C.2       4 ASN4        0.0000 
     27 OD1       -20.0040  -24.3210   26.8990 O.2       4 ASN4        0.0000 
     28 ND2       -21.7880  -25.4170   27.7820 N.am      4 ASN4        0.0000 
     29 N         -18.5000  -24.8170   30.0210 N.am      5 THR5        0.0000 
     30 CA        -18.1230  -26.0640   30.7310 C.3       5 THR5        0.0000 
     31 C         -16.8730  -25.8900   31.5870 C.2       5 THR5        0.0000 
     32 O         -16.2390  -24.8160   31.6470 O.2       5 THR5        0.0000 
     33 CB        -17.8020  -27.1700   29.7180 C.3       5 THR5        0.0000 
     34 OG1       -16.8930  -26.6390   28.7640 O.3       5 THR5        0.0000 
     35 CG2       -19.0700  -27.6270   28.9660 C.3       5 THR5        0.0000 
     36 N         -16.5720  -26.9770   32.2960 N.am      6 LEU6        0.0000 
     37 CA        -15.3080  -27.1590   32.9920 C.3       6 LEU6        0.0000 
     38 C         -14.8630  -28.6230   32.8710 C.2       6 LEU6        0.0000 
     39 O         -13.8240  -28.9560   32.2650 O.2       6 LEU6        0.0000 
     40 CB        -15.4910  -26.8180   34.4720 C.3       6 LEU6        0.0000 
     41 CG        -14.3040  -27.1390   35.3630 C.3       6 LEU6        0.0000 
     42 CD1       -12.9650  -26.8070   34.7330 C.3       6 LEU6        0.0000 
     43 CD2       -14.4810  -26.4750   36.7390 C.3       6 LEU6        0.0000 
     44 OXT       -15.5810  -29.4810   33.4110 O.3       6 LEU6        0.0000 
@<TRIPOS>BOND
     1    1    2 1    
     2    2    3 1    
     3    3    4 2    
     4    3    5 am   
     5    5    6 1    
     6    6    7 1    
     7    6    9 1    
     8    7    8 2    
     9    7   13 am   
    10    9   10 1    
    11    9   11 1    
    12   10   12 1    
    13   13   14 1    
    14   14   15 1    
    15   14   17 1    
    16   15   16 2    
    17   15   21 am   
    18   17   18 1    
    19   17   19 1    
    20   18   20 1    
    21   21   22 1    
    22   22   23 1    
    23   22   25 1    
    24   23   24 2    
    25   23   29 am   
    26   25   26 1    
    27   26   27 2    
    28   26   28 am   
    29   29   30 1    
    30   30   31 1    
    31   30   33 1    
    32   31   32 2    
    33   31   36 am   
    34   33   34 1    
    35   33   35 1    
    36   36   37 1    
    37   37   38 1    
    38   37   40 1    
    39   38   39 2    
    40   38   44 1    
    41   40   41 1    
    42   41   42 1    
    43   41   43 1    
@<TRIPOS>SUBSTRUCTURE
     1 GLY1        1 RESIDUE 
     2 ILE2        5 RESIDUE 
     3 ILE3       13 RESIDUE 
     4 ASN4       21 RESIDUE 
     5 THR5       29 RESIDUE 
     6 LEU6       36 RESIDUE 
@<TRIPOS>SET

