#    Name: 6g9v_1_UD1
#    Modification time : Fri May 22 19:26:06 2020

@<TRIPOS>MOLECULE
6g9v_1_UD1
   39    41     1     0     0
SMALL
NO_CHARGES


@<TRIPOS>ATOM
      1 C1'        22.8470   62.1910   -4.2300 C.3       1 UD1601      0.0000 
      2 C2'        22.7980   61.7970   -5.7130 C.3       1 UD1601      0.0000 
      3 C3'        21.3950   61.2930   -6.0700 C.3       1 UD1601      0.0000 
      4 C4'        21.1300   60.0310   -5.2100 C.3       1 UD1601      0.0000 
      5 C5'        21.2270   60.3770   -3.7140 C.3       1 UD1601      0.0000 
      6 C6'        21.1790   59.1260   -2.8330 C.3       1 UD1601      0.0000 
      7 C7'        24.4920   63.0260   -6.9540 C.2       1 UD1601      0.0000 
      8 C8'        24.8190   64.2490   -7.8070 C.3       1 UD1601      0.0000 
      9 N2'        23.2210   62.9340   -6.5590 N.am      1 UD1601      0.0000 
     10 O1'        21.9060   63.2880   -4.0040 O.3       1 UD1601      0.0000 
     11 O3'        21.3390   60.9900   -7.4660 O.3       1 UD1601      0.0000 
     12 O4'        19.8520   59.4520   -5.5440 O.3       1 UD1601      0.0000 
     13 O5'        22.5150   61.0490   -3.4070 O.3       1 UD1601      0.0000 
     14 O6'        21.1460   59.5120   -1.4500 O.3       1 UD1601      0.0000 
     15 O7'        25.3710   62.2140   -6.6480 O.2       1 UD1601      0.0000 
     16 N1         29.8370   65.6770   -2.6020 N.am      1 UD1601      0.0000 
     17 C2         31.1760   66.0430   -2.7970 C.2       1 UD1601      0.0000 
     18 N3         31.4490   67.2890   -3.3660 N.am      1 UD1601      0.0000 
     19 C4         30.4120   68.1640   -3.7360 C.2       1 UD1601      0.0000 
     20 C5         29.0770   67.8050   -3.5400 C.2       1 UD1601      0.0000 
     21 C6         28.7940   66.5600   -2.9820 C.2       1 UD1601      0.0000 
     22 O2         32.1000   65.2900   -2.4780 O.2       1 UD1601      0.0000 
     23 O4         30.6980   69.2540   -4.2310 O.2       1 UD1601      0.0000 
     24 C1B        29.5390   64.3460   -2.0210 C.3       1 UD1601      0.0000 
     25 C2B        28.8160   64.3670   -0.6870 C.3       1 UD1601      0.0000 
     26 O2'        29.7620   64.4610    0.3850 O.3       1 UD1601      0.0000 
     27 C3B        28.1250   62.9940   -0.7120 C.3       1 UD1601      0.0000 
     28 C4B        27.7740   62.7890   -2.1980 C.3       1 UD1601      0.0000 
     29 O4B        28.6040   63.7230   -2.9440 O.3       1 UD1601      0.0000 
     30 O3B        29.0390   61.9610   -0.3450 O.3       1 UD1601      0.0000 
     31 C5B        26.3010   63.1430   -2.4830 C.3       1 UD1601      0.0000 
     32 O5B        26.0330   64.4570   -2.0440 O.3       1 UD1601      0.0000 
     33 PA         24.6030   64.8840   -1.5040 P.3       1 UD1601      0.0000 
     34 O1A        24.2540   64.0350   -0.3470 O.co2     1 UD1601      0.0000 
     35 O2A        24.6350   66.3560   -1.3390 O.co2     1 UD1601      0.0000 
     36 O3A        23.7430   64.5120   -2.8370 O.3       1 UD1601      0.0000 
     37 PB         22.1400   64.4140   -2.9290 P.3       1 UD1601      0.0000 
     38 O1B        21.5810   64.0020   -1.6290 O.co2     1 UD1601      0.0000 
     39 O2B        21.6740   65.6940   -3.5350 O.co2     1 UD1601      0.0000 
@<TRIPOS>BOND
     1    1    2 1    
     2    1   10 1    
     3    1   13 1    
     4    2    3 1    
     5    2    9 1    
     6    3    4 1    
     7    3   11 1    
     8    4    5 1    
     9    4   12 1    
    10    5    6 1    
    11    5   13 1    
    12    6   14 1    
    13    7    8 1    
    14    7    9 am   
    15    7   15 2    
    16   10   37 1    
    17   16   17 1    
    18   16   21 1    
    19   16   24 1    
    20   17   18 1    
    21   17   22 2    
    22   18   19 1    
    23   19   20 1    
    24   19   23 2    
    25   20   21 2    
    26   24   25 1    
    27   24   29 1    
    28   25   26 1    
    29   25   27 1    
    30   27   28 1    
    31   27   30 1    
    32   28   29 1    
    33   28   31 1    
    34   31   32 1    
    35   32   33 1    
    36   33   34 ar   
    37   33   35 ar   
    38   33   36 1    
    39   36   37 1    
    40   37   38 ar   
    41   37   39 ar   
@<TRIPOS>SUBSTRUCTURE
     1 UD1601      1 GROUP   
@<TRIPOS>SET

