#    Name: 6g9v_1_UD1_CAVITY_N1_8
#    Modification time : Fri May 22 19:26:09 2020

@<TRIPOS>MOLECULE
6g9v_1_UD1_CAVITY_N1_8
   75     0     7     0     0
SMALL
NO_CHARGES


@<TRIPOS>ATOM
      1 OG         21.4000   64.3700   -3.2500 O.3       1 SER1        0.0000 
      2 O          21.0000   60.2600   -5.5800 O.2       2 ALA2        0.0000 
      3 N          20.5900   59.5700   -4.3000 N.am      2 ALA2        0.0000 
      4 N          21.9200   58.8700   -4.2600 N.am      2 ALA2        0.0000 
      5 O          24.8600   64.3300   -5.7100 O.2       2 ALA2        0.0000 
      6 O          24.4500   63.6500   -4.4300 O.2       2 ALA2        0.0000 
      7 O          25.7800   62.9400   -4.3900 O.2       2 ALA2        0.0000 
      8 O          25.4300   65.4600   -4.9200 O.2       2 ALA2        0.0000 
      9 O          25.0300   64.7800   -3.6400 O.2       2 ALA2        0.0000 
     10 O          26.3500   64.0800   -3.6000 O.2       2 ALA2        0.0000 
     11 N          25.9500   63.4000   -2.3200 N.am      2 ALA2        0.0000 
     12 N          25.5400   62.7200   -1.0500 N.am      2 ALA2        0.0000 
     13 N          27.2700   62.7000   -2.2800 N.am      2 ALA2        0.0000 
     14 O          27.3300   65.9000   -4.0800 O.2       2 ALA2        0.0000 
     15 O          26.9300   65.2200   -2.8100 O.2       2 ALA2        0.0000 
     16 O          28.2500   64.5200   -2.7600 O.2       2 ALA2        0.0000 
     17 N          27.4400   63.1500   -0.2100 N.am      2 ALA2        0.0000 
     18 N          29.1700   63.1300   -1.4400 N.am      2 ALA2        0.0000 
     19 O          28.8300   65.6500   -1.9700 O.2       2 ALA2        0.0000 
     20 O          30.1500   64.9500   -1.9200 O.2       2 ALA2        0.0000 
     21 N          29.7500   64.2700   -0.6500 N.am      2 ALA2        0.0000 
     22 O          25.9400   66.8300    1.2800 O.2       2 ALA2        0.0000 
     23 O          30.2100   68.1500   -3.7300 O.2       2 ALA2        0.0000 
     24 O          29.8100   67.4700   -2.4500 O.2       2 ALA2        0.0000 
     25 O          31.1300   66.7700   -2.4100 O.2       2 ALA2        0.0000 
     26 OD1        21.1700   60.7100   -3.5100 O.co2     3 ASP3        0.0000 
     27 OD1        21.7400   61.8500   -2.7200 O.co2     3 ASP3        0.0000 
     28 OD1        23.0700   61.1500   -2.6800 O.co2     3 ASP3        0.0000 
     29 OD1        22.7200   63.6700   -3.2000 O.co2     3 ASP3        0.0000 
     30 OD1        24.0500   62.9700   -3.1600 O.co2     3 ASP3        0.0000 
     31 OD1        21.9700   65.5100   -2.4600 O.co2     3 ASP3        0.0000 
     32 OD1        23.7000   65.4900   -3.6900 O.co2     3 ASP3        0.0000 
     33 OD1        23.3000   64.8000   -2.4100 O.co2     3 ASP3        0.0000 
     34 OD1        22.8900   64.1200   -1.1400 O.co2     3 ASP3        0.0000 
     35 OD1        24.6200   64.1000   -2.3700 O.co2     3 ASP3        0.0000 
     36 OD1        24.2200   63.4200   -1.0900 O.co2     3 ASP3        0.0000 
     37 OD1        23.8700   65.9400   -1.6200 O.co2     3 ASP3        0.0000 
     38 OD1        23.4700   65.2600   -0.3500 O.co2     3 ASP3        0.0000 
     39 OD1        25.6000   65.9200   -2.8500 O.co2     3 ASP3        0.0000 
     40 OD1        25.2000   65.2400   -1.5800 O.co2     3 ASP3        0.0000 
     41 OD1        24.7900   64.5600   -0.3000 O.co2     3 ASP3        0.0000 
     42 OD1        24.0400   66.4000    0.4400 O.co2     3 ASP3        0.0000 
     43 OD1        23.6400   65.7200    1.7200 O.co2     3 ASP3        0.0000 
     44 OD1        25.7700   66.3800   -0.7900 O.co2     3 ASP3        0.0000 
     45 OD1        25.3700   65.7000    0.4900 O.co2     3 ASP3        0.0000 
     46 OD1        27.5000   66.3600   -2.0200 O.co2     3 ASP3        0.0000 
     47 OD1        24.6200   67.5400    1.2300 O.co2     3 ASP3        0.0000 
     48 OD1        26.3500   67.5100    0.0000 O.co2     3 ASP3        0.0000 
     49 NZ         21.9800   62.0700   -6.0600 N.4       4 LYS4        0.0000 
     50 NZ         22.5500   63.2100   -5.2700 N.4       4 LYS4        0.0000 
     51 NZ         24.2800   63.1900   -6.5000 N.4       4 LYS4        0.0000 
     52 NZ         23.1300   64.3500   -4.4800 N.4       4 LYS4        0.0000 
     53 CZ         20.2500   62.1000   -4.8300 C.ar      5 PHE5        0.0000 
     54 CZ         23.7100   62.0500   -7.2900 C.ar      5 PHE5        0.0000 
     55 CZ         20.8200   63.2300   -4.0400 C.ar      5 PHE5        0.0000 
     56 CA         22.3200   59.5500   -5.5300 C.3       6 GLY6        0.0000 
     57 CA         21.5700   61.3900   -4.7900 C.3       6 GLY6        0.0000 
     58 CA         23.3000   61.3700   -6.0100 C.3       6 GLY6        0.0000 
     59 CA         22.9000   60.6900   -4.7400 C.3       6 GLY6        0.0000 
     60 CA         22.4900   60.0100   -3.4700 C.3       6 GLY6        0.0000 
     61 CA         23.8800   62.5100   -5.2200 C.3       6 GLY6        0.0000 
     62 CA         23.4700   61.8300   -3.9500 C.3       6 GLY6        0.0000 
     63 CA         25.2000   61.8100   -5.1800 C.3       6 GLY6        0.0000 
     64 CA         25.3700   62.2600   -3.1100 C.3       6 GLY6        0.0000 
     65 CA         29.5800   63.8100   -2.7100 C.3       6 GLY6        0.0000 
     66 CA         27.1000   65.6700   -0.7400 C.3       6 GLY6        0.0000 
     67 CA         29.2300   66.3300   -3.2400 C.3       6 GLY6        0.0000 
     68 CA         28.4200   64.9700   -0.7000 C.3       6 GLY6        0.0000 
     69 CA         30.5600   65.6300   -3.2000 C.3       6 GLY6        0.0000 
     70 CA         28.4800   68.1700   -2.5000 C.3       6 GLY6        0.0000 
     71 CA         28.0800   67.4900   -1.2200 C.3       6 GLY6        0.0000 
     72 DU         22.1500   62.5300   -4.0000 H         7 CUB7        0.0000 
     73 DU         26.5200   64.5400   -1.5300 H         7 CUB7        0.0000 
     74 DU         27.8500   63.8400   -1.4900 H         7 CUB7        0.0000 
     75 DU         27.9100   67.0400   -3.2900 H         7 CUB7        0.0000 
@<TRIPOS>BOND
@<TRIPOS>SUBSTRUCTURE
     1 SER1        1 GROUP   
     2 ALA2        2 GROUP   
     3 ASP3       26 GROUP   
     4 LYS4       49 GROUP   
     5 PHE5       53 GROUP   
     6 GLY6       56 GROUP   
     7 CUB7       72 GROUP   
@<TRIPOS>SET

