#    Name: 6hgz_1_AR6
#    Modification time : Fri May 22 19:38:13 2020

@<TRIPOS>MOLECULE
6hgz_1_AR6
   36    39     1     0     0
SMALL
NO_CHARGES


@<TRIPOS>ATOM
      1 N1        -11.8870   -8.2290   -1.6240 N.ar      1 AR6403      0.0000 
      2 C2        -10.5460   -8.4400   -1.6640 C.ar      1 AR6403      0.0000 
      3 N3         -9.7320   -7.6720   -2.4060 N.ar      1 AR6403      0.0000 
      4 C4        -10.2170   -6.6350   -3.1320 C.ar      1 AR6403      0.0000 
      5 C5        -11.6330   -6.3450   -3.1070 C.ar      1 AR6403      0.0000 
      6 C6        -12.4820   -7.2310   -2.3100 C.ar      1 AR6403      0.0000 
      7 N6        -13.8090   -7.0070   -2.2810 N.pl3     1 AR6403      0.0000 
      8 N7        -11.8430   -5.2820   -3.8690 N.2       1 AR6403      0.0000 
      9 C8        -10.6380   -4.9230   -4.3700 C.2       1 AR6403      0.0000 
     10 N9         -9.6850   -5.7390   -3.9180 N.pl3     1 AR6403      0.0000 
     11 PA         -9.6440   -3.8330   -8.8310 P.3       1 AR6403      0.0000 
     12 PB         -9.3100   -1.0050   -9.6320 P.3       1 AR6403      0.0000 
     13 C1'        -8.2490   -5.6440   -4.1810 C.3       1 AR6403      0.0000 
     14 O1A        -8.9570   -4.9140   -9.6150 O.co2     1 AR6403      0.0000 
     15 O1B       -10.1050   -0.6110   -8.4320 O.co2     1 AR6403      0.0000 
     16 C1D        -4.3670    0.2480  -10.4700 C.3       1 AR6403      0.0000 
     17 O1D        -3.0980    0.7440  -10.0240 O.3       1 AR6403      0.0000 
     18 C2'        -7.8260   -6.8000   -5.0410 C.3       1 AR6403      0.0000 
     19 O2'        -6.5460   -7.1450   -4.4990 O.3       1 AR6403      0.0000 
     20 O2A       -11.1460   -3.6590   -8.8390 O.co2     1 AR6403      0.0000 
     21 O2B        -9.7670   -0.6760  -11.0490 O.co2     1 AR6403      0.0000 
     22 C2D        -5.1780    1.4320  -10.9570 C.3       1 AR6403      0.0000 
     23 O2D        -4.3690    2.5160  -11.4620 O.3       1 AR6403      0.0000 
     24 C3'        -7.6880   -6.2350   -6.4480 C.3       1 AR6403      0.0000 
     25 O3'        -6.7540   -6.9420   -7.3340 O.3       1 AR6403      0.0000 
     26 O3A        -8.8370   -2.5190   -9.3900 O.3       1 AR6403      0.0000 
     27 C3D        -5.9050    1.8660   -9.6840 C.3       1 AR6403      0.0000 
     28 O3D        -5.0310    2.8300   -9.1640 O.3       1 AR6403      0.0000 
     29 C4'        -7.2780   -4.8310   -6.1150 C.3       1 AR6403      0.0000 
     30 O4'        -7.8930   -4.4570   -4.8920 O.3       1 AR6403      0.0000 
     31 C4D        -5.9020    0.7180   -8.7010 C.3       1 AR6403      0.0000 
     32 O4D        -5.0020   -0.2680   -9.2910 O.3       1 AR6403      0.0000 
     33 C5'        -7.6890   -3.8990   -7.1810 C.3       1 AR6403      0.0000 
     34 O5'        -9.0940   -3.8210   -7.3330 O.3       1 AR6403      0.0000 
     35 C5D        -7.2450    0.0800   -8.3880 C.3       1 AR6403      0.0000 
     36 O5D        -7.9190   -0.1680   -9.6120 O.3       1 AR6403      0.0000 
@<TRIPOS>BOND
     1    1    2 ar   
     2    1    6 ar   
     3    2    3 ar   
     4    3    4 ar   
     5    4    5 ar   
     6    4   10 1    
     7    5    6 ar   
     8    5    8 1    
     9    6    7 1    
    10    8    9 2    
    11    9   10 1    
    12   10   13 1    
    13   11   14 ar   
    14   11   20 ar   
    15   11   26 1    
    16   11   34 1    
    17   12   15 ar   
    18   12   21 ar   
    19   12   26 1    
    20   12   36 1    
    21   13   18 1    
    22   13   30 1    
    23   16   17 1    
    24   16   22 1    
    25   16   32 1    
    26   18   19 1    
    27   18   24 1    
    28   22   23 1    
    29   22   27 1    
    30   24   25 1    
    31   24   29 1    
    32   27   28 1    
    33   27   31 1    
    34   29   30 1    
    35   29   33 1    
    36   31   32 1    
    37   31   35 1    
    38   33   34 1    
    39   35   36 1    
@<TRIPOS>SUBSTRUCTURE
     1 AR6403      1 GROUP   
@<TRIPOS>SET

