#    Name: 6hgz_2_AR6
#    Modification time : Fri May 22 19:38:18 2020

@<TRIPOS>MOLECULE
6hgz_2_AR6
   36    39     1     0     0
SMALL
NO_CHARGES


@<TRIPOS>ATOM
      1 N1         17.3800    8.3510   -3.4380 N.ar      1 AR6403      0.0000 
      2 C2         16.0480    8.5460   -3.5420 C.ar      1 AR6403      0.0000 
      3 N3         15.2230    7.7240   -4.2020 N.ar      1 AR6403      0.0000 
      4 C4         15.7200    6.6440   -4.8150 C.ar      1 AR6403      0.0000 
      5 C5         17.1590    6.3540   -4.7590 C.ar      1 AR6403      0.0000 
      6 C6         18.0050    7.2930   -4.0070 C.ar      1 AR6403      0.0000 
      7 N6         19.3380    7.0680   -3.9190 N.pl3     1 AR6403      0.0000 
      8 N7         17.3800    5.2270   -5.4360 N.2       1 AR6403      0.0000 
      9 C8         16.1890    4.8330   -5.9220 C.2       1 AR6403      0.0000 
     10 N9         15.2080    5.6900   -5.5400 N.pl3     1 AR6403      0.0000 
     11 PA         15.3790    3.3890  -10.5950 P.3       1 AR6403      0.0000 
     12 PB         15.1510    0.4980  -10.9980 P.3       1 AR6403      0.0000 
     13 C1'        13.7950    5.5730   -5.8540 C.3       1 AR6403      0.0000 
     14 O1A        14.6070    4.4630  -11.3180 O.co2     1 AR6403      0.0000 
     15 O1B        15.9590    0.3670   -9.7230 O.co2     1 AR6403      0.0000 
     16 C1D        10.2200   -0.7970  -11.7420 C.3       1 AR6403      0.0000 
     17 O1D         9.0120   -1.2620  -11.1250 O.3       1 AR6403      0.0000 
     18 C2'        13.4370    6.5690   -6.9420 C.3       1 AR6403      0.0000 
     19 O2'        12.0850    6.9880   -6.8340 O.3       1 AR6403      0.0000 
     20 O2A        16.8800    3.3320  -10.7690 O.co2     1 AR6403      0.0000 
     21 O2B        15.4730    0.1870  -12.4560 O.co2     1 AR6403      0.0000 
     22 C2D        11.0450   -1.9870  -12.1630 C.3       1 AR6403      0.0000 
     23 O2D        10.2510   -3.1110  -12.5960 O.3       1 AR6403      0.0000 
     24 C3'        13.5210    5.7910   -8.2170 C.3       1 AR6403      0.0000 
     25 O3'        12.6500    6.3080   -9.2610 O.3       1 AR6403      0.0000 
     26 O3A        14.6310    2.0030  -10.9970 O.3       1 AR6403      0.0000 
     27 C3D        11.7070   -2.3060  -10.8350 C.3       1 AR6403      0.0000 
     28 O3D        10.8580   -3.1670  -10.1380 O.3       1 AR6403      0.0000 
     29 C4'        13.1530    4.4090   -7.7140 C.3       1 AR6403      0.0000 
     30 O4'        13.5980    4.2760   -6.3740 O.3       1 AR6403      0.0000 
     31 C4D        11.7170   -1.0980   -9.9520 C.3       1 AR6403      0.0000 
     32 O4D        10.9300   -0.1530  -10.6770 O.3       1 AR6403      0.0000 
     33 C5'        13.7500    3.3050   -8.5500 C.3       1 AR6403      0.0000 
     34 O5'        15.0530    3.5910   -9.0290 O.3       1 AR6403      0.0000 
     35 C5D        13.1060   -0.5750   -9.6870 C.3       1 AR6403      0.0000 
     36 O5D        13.7680   -0.3640  -10.9270 O.3       1 AR6403      0.0000 
@<TRIPOS>BOND
     1    1    2 ar   
     2    1    6 ar   
     3    2    3 ar   
     4    3    4 ar   
     5    4    5 ar   
     6    4   10 1    
     7    5    6 ar   
     8    5    8 1    
     9    6    7 1    
    10    8    9 2    
    11    9   10 1    
    12   10   13 1    
    13   11   14 ar   
    14   11   20 ar   
    15   11   26 1    
    16   11   34 1    
    17   12   15 ar   
    18   12   21 ar   
    19   12   26 1    
    20   12   36 1    
    21   13   18 1    
    22   13   30 1    
    23   16   17 1    
    24   16   22 1    
    25   16   32 1    
    26   18   19 1    
    27   18   24 1    
    28   22   23 1    
    29   22   27 1    
    30   24   25 1    
    31   24   29 1    
    32   27   28 1    
    33   27   31 1    
    34   29   30 1    
    35   29   33 1    
    36   31   32 1    
    37   31   35 1    
    38   33   34 1    
    39   35   36 1    
@<TRIPOS>SUBSTRUCTURE
     1 AR6403      1 GROUP   
@<TRIPOS>SET

