#    Name: 5zu3_3_FAY
#    Modification time : Fri May 22 19:24:55 2020

@<TRIPOS>MOLECULE
5zu3_3_FAY
   54    59     1     0     0
SMALL
NO_CHARGES


@<TRIPOS>ATOM
      1 P         -19.6830  -60.4760   16.4440 P.3       1 FAY601      0.0000 
      2 N1        -27.2970  -58.3380   11.4110 N.2       1 FAY601      0.0000 
      3 C2        -27.7820  -58.6200   10.1510 C.2       1 FAY601      0.0000 
      4 O2        -27.1480  -58.2470    9.1680 O.2       1 FAY601      0.0000 
      5 N3        -29.0800  -59.0990   10.0060 N.am      1 FAY601      0.0000 
      6 C4        -29.9990  -58.9770   11.0320 C.2       1 FAY601      0.0000 
      7 O4        -31.2010  -58.9810   10.7360 O.2       1 FAY601      0.0000 
      8 N5        -30.4640  -58.1690   13.2480 N.2       1 FAY601      0.0000 
      9 C6        -30.8880  -58.6610   15.5400 C.ar      1 FAY601      0.0000 
     10 C7        -30.4180  -58.7210   16.8490 C.ar      1 FAY601      0.0000 
     11 C8        -29.0470  -58.8360   17.0930 C.ar      1 FAY601      0.0000 
     12 O8        -27.5170  -59.2080   18.7990 O.2       1 FAY601      0.0000 
     13 C9        -28.1330  -58.6380   16.0650 C.ar      1 FAY601      0.0000 
     14 PA        -20.9380  -61.9110   18.5600 P.3       1 FAY601      0.0000 
     15 C1'       -26.2930  -57.8500   13.9050 C.3       1 FAY601      0.0000 
     16 C10       -28.1990  -58.2130   12.4440 C.2       1 FAY601      0.0000 
     17 N10       -27.7050  -58.2900   13.7230 N.pl3     1 FAY601      0.0000 
     18 N1A       -16.3630  -64.6660   28.0730 N.ar      1 FAY601      0.0000 
     19 O1A       -21.8850  -61.4560   19.6430 O.co2     1 FAY601      0.0000 
     20 C1B       -18.7900  -64.3740   23.4290 C.3       1 FAY601      0.0000 
     21 O1P       -18.7230  -61.5870   16.1660 O.co2     1 FAY601      0.0000 
     22 C2'       -25.3580  -59.0480   13.8620 C.3       1 FAY601      0.0000 
     23 O2'       -26.0030  -60.1600   14.4220 O.3       1 FAY601      0.0000 
     24 C2A       -16.5510  -65.6780   27.1490 C.ar      1 FAY601      0.0000 
     25 O2A       -21.6100  -62.7300   17.4790 O.co2     1 FAY601      0.0000 
     26 C2B       -20.2810  -64.2020   23.2120 C.3       1 FAY601      0.0000 
     27 O2B       -21.0310  -65.1230   23.9590 O.3       1 FAY601      0.0000 
     28 O2P       -19.0600  -59.1090   16.2750 O.co2     1 FAY601      0.0000 
     29 C3'       -24.1240  -58.7310   14.6910 C.3       1 FAY601      0.0000 
     30 O3'       -23.6360  -57.5070   14.2060 O.3       1 FAY601      0.0000 
     31 N3A       -17.2140  -65.4330   25.9620 N.ar      1 FAY601      0.0000 
     32 C3B       -20.4080  -64.4040   21.7160 C.3       1 FAY601      0.0000 
     33 O3B       -20.5800  -65.7680   21.3770 O.3       1 FAY601      0.0000 
     34 O3P       -20.2180  -60.6110   17.9490 O.3       1 FAY601      0.0000 
     35 C4'       -23.0410  -59.8020   14.5680 C.3       1 FAY601      0.0000 
     36 O4'       -23.5290  -61.0690   14.9490 O.3       1 FAY601      0.0000 
     37 C4A       -17.6910  -64.1940   25.6990 C.ar      1 FAY601      0.0000 
     38 C4B       -19.0670  -63.9030   21.1820 C.3       1 FAY601      0.0000 
     39 O4B       -18.1870  -63.7880   22.2910 O.3       1 FAY601      0.0000 
     40 C4X       -29.5780  -58.3210   12.1930 C.2       1 FAY601      0.0000 
     41 C5'       -21.8420  -59.4520   15.4330 C.3       1 FAY601      0.0000 
     42 O5'       -20.9730  -60.5600   15.4970 O.3       1 FAY601      0.0000 
     43 C5A       -17.5090  -63.1630   26.6120 C.ar      1 FAY601      0.0000 
     44 C5B       -19.2340  -62.5630   20.4870 C.3       1 FAY601      0.0000 
     45 O5B       -19.7970  -62.8160   19.2300 O.3       1 FAY601      0.0000 
     46 C5X       -29.9820  -58.4250   14.5200 C.ar      1 FAY601      0.0000 
     47 C6A       -16.8380  -63.3870   27.8060 C.ar      1 FAY601      0.0000 
     48 N6A       -16.3560  -62.3340   28.4750 N.pl3     1 FAY601      0.0000 
     49 N7A       -18.0740  -62.0520   26.1010 N.2       1 FAY601      0.0000 
     50 C7M       -31.3880  -58.7660   18.0010 C.3       1 FAY601      0.0000 
     51 C8A       -18.6020  -62.3400   24.8910 C.2       1 FAY601      0.0000 
     52 C8M       -28.5930  -58.7620   18.4840 C.2       1 FAY601      0.0000 
     53 C9A       -28.5990  -58.3770   14.7820 C.ar      1 FAY601      0.0000 
     54 N9A       -18.3720  -63.6670   24.6370 N.pl3     1 FAY601      0.0000 
@<TRIPOS>BOND
     1    1   21 ar   
     2    1   28 ar   
     3    1   34 1    
     4    1   42 1    
     5    2    3 1    
     6    2   16 2    
     7    3    4 2    
     8    3    5 am   
     9    5    6 am   
    10    6    7 2    
    11    6   40 1    
    12    8   40 2    
    13    8   46 1    
    14    9   10 ar   
    15    9   46 ar   
    16   10   11 ar   
    17   10   50 1    
    18   11   13 ar   
    19   11   52 1    
    20   12   52 2    
    21   13   53 ar   
    22   14   19 ar   
    23   14   25 ar   
    24   14   34 1    
    25   14   45 1    
    26   15   17 1    
    27   15   22 1    
    28   16   17 1    
    29   16   40 1    
    30   17   53 1    
    31   18   24 ar   
    32   18   47 ar   
    33   20   26 1    
    34   20   39 1    
    35   20   54 1    
    36   22   23 1    
    37   22   29 1    
    38   24   31 ar   
    39   26   27 1    
    40   26   32 1    
    41   29   30 1    
    42   29   35 1    
    43   31   37 ar   
    44   32   33 1    
    45   32   38 1    
    46   35   36 1    
    47   35   41 1    
    48   37   43 ar   
    49   37   54 1    
    50   38   39 1    
    51   38   44 1    
    52   41   42 1    
    53   43   47 ar   
    54   43   49 1    
    55   44   45 1    
    56   46   53 ar   
    57   47   48 1    
    58   49   51 2    
    59   51   54 1    
@<TRIPOS>SUBSTRUCTURE
     1 FAY601      1 GROUP   
@<TRIPOS>SET

