#    Name: 5zpt_1_HY1_CAVITY_N1_4
#    Modification time : Fri May 22 19:25:18 2020

@<TRIPOS>MOLECULE
5zpt_1_HY1_CAVITY_N1_4
   27     0     4     0     0
SMALL
NO_CHARGES


@<TRIPOS>ATOM
      1 OG          5.8500   16.2500   28.9700 O.3       1 SER1        0.0000 
      2 N           5.9400   16.8700   26.4500 N.am      2 ALA2        0.0000 
      3 N           8.3300   16.2800   27.2900 N.am      2 ALA2        0.0000 
      4 N           6.5800   16.9700   30.0700 N.am      2 ALA2        0.0000 
      5 CZ          6.1700   18.2900   29.4800 C.ar      3 PHE5        0.0000 
      6 CZ          6.5000   20.3200   29.9900 C.ar      3 PHE5        0.0000 
      7 CZ          7.2300   21.0400   31.0900 C.ar      3 PHE5        0.0000 
      8 CZ         10.1200   19.7400   29.9800 C.ar      3 PHE5        0.0000 
      9 CZ         11.7800   18.4400   29.7200 C.ar      3 PHE5        0.0000 
     10 CA          7.9100   17.6000   26.7000 C.3       4 GLY6        0.0000 
     11 CA          6.6700   17.5800   27.5500 C.3       4 GLY6        0.0000 
     12 CA          5.4300   17.5700   28.3900 C.3       4 GLY6        0.0000 
     13 CA          7.0900   16.2700   28.1300 C.3       4 GLY6        0.0000 
     14 CA          8.6500   18.3100   27.8000 C.3       4 GLY6        0.0000 
     15 CA          7.4100   18.3000   28.6400 C.3       4 GLY6        0.0000 
     16 CA          9.0600   16.9900   28.3800 C.3       4 GLY6        0.0000 
     17 CA          7.8200   16.9800   29.2200 C.3       4 GLY6        0.0000 
     18 CA          7.7400   20.3300   29.1500 C.3       4 GLY6        0.0000 
     19 CA          9.3900   19.0300   28.8900 C.3       4 GLY6        0.0000 
     20 CA          8.1500   19.0100   29.7300 C.3       4 GLY6        0.0000 
     21 CA          6.9100   19.0000   30.5800 C.3       4 GLY6        0.0000 
     22 CA          9.8000   17.7100   29.4700 C.3       4 GLY6        0.0000 
     23 CA          9.7100   21.0600   29.4000 C.3       4 GLY6        0.0000 
     24 CA          8.4700   21.0500   30.2400 C.3       4 GLY6        0.0000 
     25 CA          8.8800   19.7300   30.8300 C.3       4 GLY6        0.0000 
     26 CA          7.6400   19.7200   31.6700 C.3       4 GLY6        0.0000 
     27 CA         10.5400   18.4200   30.5700 C.3       4 GLY6        0.0000 
@<TRIPOS>BOND
@<TRIPOS>SUBSTRUCTURE
     1 SER1        1 GROUP   
     2 ALA2        2 GROUP   
     3 PHE5        5 GROUP   
     4 GLY6       10 GROUP   
@<TRIPOS>SET

