#    Name: 5zpt_1_HY1_CAVITY_N1_6
#    Modification time : Fri May 22 19:25:18 2020

@<TRIPOS>MOLECULE
5zpt_1_HY1_CAVITY_N1_6
   46     0     5     0     0
SMALL
NO_CHARGES


@<TRIPOS>ATOM
      1 OG          5.8500   16.2500   28.9700 O.3       1 SER1        0.0000 
      2 N           5.9400   16.8700   26.4500 N.am      2 ALA2        0.0000 
      3 N           8.3300   16.2800   27.2900 N.am      2 ALA2        0.0000 
      4 N           6.5800   16.9700   30.0700 N.am      2 ALA2        0.0000 
      5 N          10.3600   21.1600   33.0100 N.am      2 ALA2        0.0000 
      6 N          12.0100   19.8500   32.7600 N.am      2 ALA2        0.0000 
      7 CZ          6.1700   18.2900   29.4800 C.ar      3 PHE5        0.0000 
      8 CZ          6.5000   20.3200   29.9900 C.ar      3 PHE5        0.0000 
      9 CZ         10.5400   22.3900   27.9700 C.ar      3 PHE5        0.0000 
     10 CZ          6.8200   22.3500   30.5000 C.ar      3 PHE5        0.0000 
     11 CZ         10.9500   21.0700   28.5500 C.ar      3 PHE5        0.0000 
     12 CZ          7.2300   21.0400   31.0900 C.ar      3 PHE5        0.0000 
     13 CZ         10.1200   19.7400   29.9800 C.ar      3 PHE5        0.0000 
     14 CZ         11.7800   18.4400   29.7200 C.ar      3 PHE5        0.0000 
     15 CZ         12.9300   21.8000   28.8000 C.ar      3 PHE5        0.0000 
     16 CZ         11.6900   21.7900   29.6500 C.ar      3 PHE5        0.0000 
     17 CZ          7.9700   21.7500   32.1800 C.ar      3 PHE5        0.0000 
     18 CZ         13.3400   20.4800   29.3900 C.ar      3 PHE5        0.0000 
     19 CZ         12.1000   20.4700   30.2300 C.ar      3 PHE5        0.0000 
     20 CZ         13.7500   19.1700   29.9700 C.ar      3 PHE5        0.0000 
     21 CA          7.9100   17.6000   26.7000 C.3       4 GLY6        0.0000 
     22 CA          6.6700   17.5800   27.5500 C.3       4 GLY6        0.0000 
     23 CA          5.4300   17.5700   28.3900 C.3       4 GLY6        0.0000 
     24 CA          7.0900   16.2700   28.1300 C.3       4 GLY6        0.0000 
     25 CA          8.6500   18.3100   27.8000 C.3       4 GLY6        0.0000 
     26 CA          7.4100   18.3000   28.6400 C.3       4 GLY6        0.0000 
     27 CA          9.0600   16.9900   28.3800 C.3       4 GLY6        0.0000 
     28 CA          7.8200   16.9800   29.2200 C.3       4 GLY6        0.0000 
     29 CA          7.7400   20.3300   29.1500 C.3       4 GLY6        0.0000 
     30 CA          9.3900   19.0300   28.8900 C.3       4 GLY6        0.0000 
     31 CA          8.1500   19.0100   29.7300 C.3       4 GLY6        0.0000 
     32 CA          6.9100   19.0000   30.5800 C.3       4 GLY6        0.0000 
     33 CA          9.8000   17.7100   29.4700 C.3       4 GLY6        0.0000 
     34 CA          9.7100   21.0600   29.4000 C.3       4 GLY6        0.0000 
     35 CA          8.4700   21.0500   30.2400 C.3       4 GLY6        0.0000 
     36 CA          8.8800   19.7300   30.8300 C.3       4 GLY6        0.0000 
     37 CA          7.6400   19.7200   31.6700 C.3       4 GLY6        0.0000 
     38 CA         10.5400   18.4200   30.5700 C.3       4 GLY6        0.0000 
     39 CA          9.6200   20.4400   31.9200 C.3       4 GLY6        0.0000 
     40 CA          8.3800   20.4300   32.7600 C.3       4 GLY6        0.0000 
     41 CA         12.5100   19.1500   30.8200 C.3       4 GLY6        0.0000 
     42 CA         11.2700   19.1400   31.6600 C.3       4 GLY6        0.0000 
     43 DU         10.4500   21.7800   30.4900 H         5 CUB7        0.0000 
     44 DU          9.2100   21.7600   31.3400 H         5 CUB7        0.0000 
     45 DU         10.8600   20.4600   31.0800 H         5 CUB7        0.0000 
     46 DU         11.6000   21.1700   32.1700 H         5 CUB7        0.0000 
@<TRIPOS>BOND
@<TRIPOS>SUBSTRUCTURE
     1 SER1        1 GROUP   
     2 ALA2        2 GROUP   
     3 PHE5        7 GROUP   
     4 GLY6       21 GROUP   
     5 CUB7       43 GROUP   
@<TRIPOS>SET

