#    Name: 5zpt_2_HY1_CAVITY_N1_6
#    Modification time : Fri May 22 19:25:26 2020

@<TRIPOS>MOLECULE
5zpt_2_HY1_CAVITY_N1_6
   54     0     5     0     0
SMALL
NO_CHARGES


@<TRIPOS>ATOM
      1 OG        -40.8300  -16.2000   42.5400 O.3       1 SER1        0.0000 
      2 OG        -40.4100  -17.5200   43.1300 O.3       1 SER1        0.0000 
      3 N         -47.5800  -11.7800   38.0300 N.am      2 ALA2        0.0000 
      4 O         -48.4000  -13.1100   39.4500 O.2       2 ALA2        0.0000 
      5 N         -41.9700  -15.6000   40.8700 N.am      2 ALA2        0.0000 
      6 N         -43.7200  -14.9100   43.6500 N.am      2 ALA2        0.0000 
      7 N         -43.3100  -16.2300   44.2300 N.am      2 ALA2        0.0000 
      8 N         -41.3300  -15.5000   44.4800 N.am      2 ALA2        0.0000 
      9 CZ        -48.0800  -11.0800   39.9600 C.ar      3 PHE5        0.0000 
     10 CZ        -47.6700  -12.4000   40.5500 C.ar      3 PHE5        0.0000 
     11 CZ        -48.9100  -12.4100   41.3900 C.ar      3 PHE5        0.0000 
     12 CZ        -43.6200  -10.3200   38.5300 C.ar      3 PHE5        0.0000 
     13 CZ        -47.3400  -10.3600   41.0600 C.ar      3 PHE5        0.0000 
     14 CZ        -45.6900  -11.6700   40.8000 C.ar      3 PHE5        0.0000 
     15 CZ        -41.5600  -12.9500   38.8500 C.ar      3 PHE5        0.0000 
     16 CZ        -45.2800  -12.9900   41.3800 C.ar      3 PHE5        0.0000 
     17 CZ        -44.8700  -14.3000   41.9700 C.ar      3 PHE5        0.0000 
     18 CZ        -42.8900   -9.6100   39.6200 C.ar      3 PHE5        0.0000 
     19 CZ        -45.3700   -9.6300   41.3100 C.ar      3 PHE5        0.0000 
     20 CZ        -46.6100   -9.6500   42.1500 C.ar      3 PHE5        0.0000 
     21 CZ        -42.4700  -10.9300   40.2000 C.ar      3 PHE5        0.0000 
     22 CZ        -40.4100  -13.5500   40.5300 C.ar      3 PHE5        0.0000 
     23 CZ        -40.0000  -14.8700   41.1100 C.ar      3 PHE5        0.0000 
     24 CZ        -41.6500  -17.5300   43.9700 C.ar      3 PHE5        0.0000 
     25 CZ        -45.8700   -8.9300   43.2400 C.ar      3 PHE5        0.0000 
     26 CA        -47.1600  -13.1000   38.6100 C.3       4 GLY6        0.0000 
     27 CA        -45.1900  -12.3700   38.8600 C.3       4 GLY6        0.0000 
     28 CA        -46.4300  -12.3800   39.7000 C.3       4 GLY6        0.0000 
     29 CA        -46.0100  -13.7000   40.2900 C.3       4 GLY6        0.0000 
     30 CA        -43.2100  -11.6400   39.1100 C.3       4 GLY6        0.0000 
     31 CA        -44.4500  -11.6500   39.9500 C.3       4 GLY6        0.0000 
     32 CA        -42.8000  -12.9600   39.7000 C.3       4 GLY6        0.0000 
     33 CA        -44.0400  -12.9700   40.5400 C.3       4 GLY6        0.0000 
     34 CA        -42.3900  -14.2800   40.2800 C.3       4 GLY6        0.0000 
     35 CA        -43.6300  -14.2900   41.1200 C.3       4 GLY6        0.0000 
     36 CA        -43.2100  -15.6100   41.7100 C.3       4 GLY6        0.0000 
     37 CA        -44.4500  -15.6200   42.5500 C.3       4 GLY6        0.0000 
     38 CA        -41.5600  -16.9100   41.4500 C.3       4 GLY6        0.0000 
     39 CA        -43.7100  -10.9400   41.0500 C.3       4 GLY6        0.0000 
     40 CA        -44.9500  -10.9500   41.8900 C.3       4 GLY6        0.0000 
     41 CA        -42.0600  -12.2400   40.7900 C.3       4 GLY6        0.0000 
     42 CA        -43.3000  -12.2600   41.6300 C.3       4 GLY6        0.0000 
     43 CA        -41.6500  -13.5600   41.3700 C.3       4 GLY6        0.0000 
     44 CA        -42.8900  -13.5800   42.2200 C.3       4 GLY6        0.0000 
     45 CA        -42.4800  -14.8900   42.8000 C.3       4 GLY6        0.0000 
     46 CA        -42.0700  -16.2100   43.3900 C.3       4 GLY6        0.0000 
     47 CA        -40.5000  -14.1700   43.0500 C.3       4 GLY6        0.0000 
     48 CA        -40.0900  -15.4800   43.6400 C.3       4 GLY6        0.0000 
     49 DU        -45.6000  -11.0500   38.2800 H         5 CUB7        0.0000 
     50 DU        -46.8400  -11.0600   39.1200 H         5 CUB7        0.0000 
     51 DU        -44.8600  -10.3400   39.3700 H         5 CUB7        0.0000 
     52 DU        -46.1000  -10.3500   40.2100 H         5 CUB7        0.0000 
     53 DU        -44.1300   -9.6200   40.4600 H         5 CUB7        0.0000 
     54 DU        -41.2400  -14.8800   41.9600 H         5 CUB7        0.0000 
@<TRIPOS>BOND
@<TRIPOS>SUBSTRUCTURE
     1 SER1        1 GROUP   
     2 ALA2        3 GROUP   
     3 PHE5        9 GROUP   
     4 GLY6       26 GROUP   
     5 CUB7       49 GROUP   
@<TRIPOS>SET

