#    Name: 5zpt_2_HY1_CAVITY_N1_4
#    Modification time : Fri May 22 19:25:26 2020

@<TRIPOS>MOLECULE
5zpt_2_HY1_CAVITY_N1_4
   37     0     5     0     0
SMALL
NO_CHARGES


@<TRIPOS>ATOM
      1 OG        -40.8300  -16.2000   42.5400 O.3       1 SER1        0.0000 
      2 OG        -40.4100  -17.5200   43.1300 O.3       1 SER1        0.0000 
      3 N         -41.9700  -15.6000   40.8700 N.am      2 ALA2        0.0000 
      4 N         -43.7200  -14.9100   43.6500 N.am      2 ALA2        0.0000 
      5 N         -43.3100  -16.2300   44.2300 N.am      2 ALA2        0.0000 
      6 N         -41.3300  -15.5000   44.4800 N.am      2 ALA2        0.0000 
      7 CZ        -45.6900  -11.6700   40.8000 C.ar      3 PHE5        0.0000 
      8 CZ        -41.5600  -12.9500   38.8500 C.ar      3 PHE5        0.0000 
      9 CZ        -45.2800  -12.9900   41.3800 C.ar      3 PHE5        0.0000 
     10 CZ        -44.8700  -14.3000   41.9700 C.ar      3 PHE5        0.0000 
     11 CZ        -42.4700  -10.9300   40.2000 C.ar      3 PHE5        0.0000 
     12 CZ        -40.4100  -13.5500   40.5300 C.ar      3 PHE5        0.0000 
     13 CZ        -40.0000  -14.8700   41.1100 C.ar      3 PHE5        0.0000 
     14 CZ        -41.6500  -17.5300   43.9700 C.ar      3 PHE5        0.0000 
     15 CA        -45.1900  -12.3700   38.8600 C.3       4 GLY6        0.0000 
     16 CA        -46.4300  -12.3800   39.7000 C.3       4 GLY6        0.0000 
     17 CA        -46.0100  -13.7000   40.2900 C.3       4 GLY6        0.0000 
     18 CA        -43.2100  -11.6400   39.1100 C.3       4 GLY6        0.0000 
     19 CA        -44.4500  -11.6500   39.9500 C.3       4 GLY6        0.0000 
     20 CA        -42.8000  -12.9600   39.7000 C.3       4 GLY6        0.0000 
     21 CA        -44.0400  -12.9700   40.5400 C.3       4 GLY6        0.0000 
     22 CA        -42.3900  -14.2800   40.2800 C.3       4 GLY6        0.0000 
     23 CA        -43.6300  -14.2900   41.1200 C.3       4 GLY6        0.0000 
     24 CA        -43.2100  -15.6100   41.7100 C.3       4 GLY6        0.0000 
     25 CA        -44.4500  -15.6200   42.5500 C.3       4 GLY6        0.0000 
     26 CA        -41.5600  -16.9100   41.4500 C.3       4 GLY6        0.0000 
     27 CA        -43.7100  -10.9400   41.0500 C.3       4 GLY6        0.0000 
     28 CA        -44.9500  -10.9500   41.8900 C.3       4 GLY6        0.0000 
     29 CA        -42.0600  -12.2400   40.7900 C.3       4 GLY6        0.0000 
     30 CA        -43.3000  -12.2600   41.6300 C.3       4 GLY6        0.0000 
     31 CA        -41.6500  -13.5600   41.3700 C.3       4 GLY6        0.0000 
     32 CA        -42.8900  -13.5800   42.2200 C.3       4 GLY6        0.0000 
     33 CA        -42.4800  -14.8900   42.8000 C.3       4 GLY6        0.0000 
     34 CA        -42.0700  -16.2100   43.3900 C.3       4 GLY6        0.0000 
     35 CA        -40.5000  -14.1700   43.0500 C.3       4 GLY6        0.0000 
     36 CA        -40.0900  -15.4800   43.6400 C.3       4 GLY6        0.0000 
     37 DU        -41.2400  -14.8800   41.9600 H         5 CUB7        0.0000 
@<TRIPOS>BOND
@<TRIPOS>SUBSTRUCTURE
     1 SER1        1 GROUP   
     2 ALA2        3 GROUP   
     3 PHE5        7 GROUP   
     4 GLY6       15 GROUP   
     5 CUB7       37 GROUP   
@<TRIPOS>SET

