#    Name: 5zpt_1_HY1
#    Modification time : Fri May 22 19:25:17 2020

@<TRIPOS>MOLECULE
5zpt_1_HY1
    9     9     1     0     0
SMALL
NO_CHARGES


@<TRIPOS>ATOM
      1 C1'         6.6400   16.0820   27.7530 C.ar      1 HY1702      0.0000 
      2 C2'         7.9780   16.1610   27.3770 C.ar      1 HY1702      0.0000 
      3 C3'         8.7930   17.1370   27.9300 C.ar      1 HY1702      0.0000 
      4 C4'         8.2780   18.0250   28.8700 C.ar      1 HY1702      0.0000 
      5 C5'         6.9380   17.9490   29.2390 C.ar      1 HY1702      0.0000 
      6 C6'         6.1200   16.9770   28.6780 C.ar      1 HY1702      0.0000 
      7 CA          5.7370   15.0030   27.1380 C.3       1 HY1702      0.0000 
      8 C           4.4100   15.5980   26.6530 C.2       1 HY1702      0.0000 
      9 O           4.5470   16.0310   25.3280 O.2       1 HY1702      0.0000 
@<TRIPOS>BOND
     1    1    2 ar   
     2    1    6 ar   
     3    1    7 1    
     4    2    3 ar   
     5    3    4 ar   
     6    4    5 ar   
     7    5    6 ar   
     8    7    8 1    
     9    8    9 2    
@<TRIPOS>SUBSTRUCTURE
     1 HY1702      1 GROUP   
@<TRIPOS>SET

