#    Name: 5zpt_2_HY1
#    Modification time : Fri May 22 19:25:25 2020

@<TRIPOS>MOLECULE
5zpt_2_HY1
    9     9     1     0     0
SMALL
NO_CHARGES


@<TRIPOS>ATOM
      1 C1'       -41.8870  -15.9670   42.9940 C.ar      1 HY1703      0.0000 
      2 C2'       -43.2210  -15.9490   43.4000 C.ar      1 HY1703      0.0000 
      3 C3'       -44.1300  -15.0900   42.7900 C.ar      1 HY1703      0.0000 
      4 C4'       -43.6980  -14.2470   41.7710 C.ar      1 HY1703      0.0000 
      5 C5'       -42.3650  -14.2600   41.3680 C.ar      1 HY1703      0.0000 
      6 C6'       -41.4610  -15.1240   41.9740 C.ar      1 HY1703      0.0000 
      7 CA        -40.8970  -16.9330   43.6660 C.3       1 HY1703      0.0000 
      8 C         -39.6050  -16.2240   44.0740 C.2       1 HY1703      0.0000 
      9 O         -39.7450  -15.6900   45.3680 O.2       1 HY1703      0.0000 
@<TRIPOS>BOND
     1    1    2 ar   
     2    1    6 ar   
     3    1    7 1    
     4    2    3 ar   
     5    3    4 ar   
     6    4    5 ar   
     7    5    6 ar   
     8    7    8 1    
     9    8    9 2    
@<TRIPOS>SUBSTRUCTURE
     1 HY1703      1 GROUP   
@<TRIPOS>SET

