#    Name: 6s02_2_ADP_CAVITY_N1_8
#    Modification time : Fri May 22 19:24:51 2020

@<TRIPOS>MOLECULE
6s02_2_ADP_CAVITY_N1_8
   27     0     6     0     0
SMALL
NO_CHARGES


@<TRIPOS>ATOM
      1 OG         56.2200   74.8000   20.9800 O.3       1 SER1        0.0000 
      2 OG         56.5400   76.7600   20.2400 O.3       1 SER1        0.0000 
      3 OG         55.9800   76.4700   22.2700 O.3       1 SER1        0.0000 
      4 N          59.3700   78.5700   20.1700 N.am      2 ALA2        0.0000 
      5 OD1        55.9600   76.2400   15.5700 O.co2     3 ASP3        0.0000 
      6 OD1        57.8900   75.6700   14.9100 O.co2     3 ASP3        0.0000 
      7 OD1        56.5300   76.6400   16.8900 O.co2     3 ASP3        0.0000 
      8 OD1        57.6500   77.3400   16.1900 O.co2     3 ASP3        0.0000 
      9 OD1        57.1000   77.0500   18.2200 O.co2     3 ASP3        0.0000 
     10 OD1        58.2200   77.7500   17.5200 O.co2     3 ASP3        0.0000 
     11 OD1        57.3500   75.5000   20.2800 O.co2     3 ASP3        0.0000 
     12 OD1        58.4800   76.2000   19.5800 O.co2     3 ASP3        0.0000 
     13 NZ         55.3900   75.8300   14.2400 N.4       4 LYS4        0.0000 
     14 NZ         57.0800   76.9400   14.8700 N.4       4 LYS4        0.0000 
     15 NZ         56.8400   78.6100   16.1500 N.4       4 LYS4        0.0000 
     16 NZ         57.6700   77.4600   19.5400 N.4       4 LYS4        0.0000 
     17 NZ         57.1100   77.1700   21.5700 N.4       4 LYS4        0.0000 
     18 NZ         58.2400   77.8700   20.8700 N.4       4 LYS4        0.0000 
     19 NZ         55.7500   78.1400   23.5600 N.4       4 LYS4        0.0000 
     20 NZ         57.6800   77.5800   22.9000 N.4       4 LYS4        0.0000 
     21 NZ         58.8100   78.2800   22.2000 N.4       4 LYS4        0.0000 
     22 CA         58.2100   77.6400   14.1700 C.3       5 GLY6        0.0000 
     23 CA         58.7800   78.0400   15.4900 C.3       5 GLY6        0.0000 
     24 CA         59.3500   78.4500   16.8200 C.3       5 GLY6        0.0000 
     25 CA         58.7900   78.1600   18.8400 C.3       5 GLY6        0.0000 
     26 DU         55.4300   76.1800   24.3000 H         6 CUB7        0.0000 
     27 DU         56.5600   76.8800   23.6000 H         6 CUB7        0.0000 
@<TRIPOS>BOND
@<TRIPOS>SUBSTRUCTURE
     1 SER1        1 GROUP   
     2 ALA2        4 GROUP   
     3 ASP3        5 GROUP   
     4 LYS4       13 GROUP   
     5 GLY6       22 GROUP   
     6 CUB7       26 GROUP   
@<TRIPOS>SET

