#    Name: 6s02_2_ADP_CAVITY_N1_6
#    Modification time : Fri May 22 19:24:51 2020

@<TRIPOS>MOLECULE
6s02_2_ADP_CAVITY_N1_6
    1     0     1     0     0
SMALL
NO_CHARGES


@<TRIPOS>ATOM
      1 NZ         56.8400   78.6100   16.1500 N.4       1 LYS4        0.0000 
@<TRIPOS>BOND
@<TRIPOS>SUBSTRUCTURE
     1 LYS4        1 GROUP   
@<TRIPOS>SET

