#    Name: 6jcl_4_SAH
#    Modification time : Fri May 22 19:30:39 2020

@<TRIPOS>MOLECULE
6jcl_4_SAH
   26    28     1     0     0
SMALL
NO_CHARGES


@<TRIPOS>ATOM
      1 N          -1.8980   27.2880  -30.5030 N.4       1 SAH301      0.0000 
      2 CA         -0.5480   27.6930  -30.1260 C.3       1 SAH301      0.0000 
      3 CB          0.0080   26.7380  -29.0810 C.3       1 SAH301      0.0000 
      4 CG         -0.8830   26.5120  -27.8550 C.3       1 SAH301      0.0000 
      5 SD          0.0620   25.6010  -26.6120 S.3       1 SAH301      0.0000 
      6 C           0.3870   27.7410  -31.3280 C.2       1 SAH301      0.0000 
      7 O           0.3070   26.8630  -32.1780 O.co2     1 SAH301      0.0000 
      8 OXT         1.2350   28.6330  -31.4670 O.co2     1 SAH301      0.0000 
      9 C5'        -1.3600   25.3600  -25.5080 C.3       1 SAH301      0.0000 
     10 C4'        -1.7480   26.6270  -24.7470 C.3       1 SAH301      0.0000 
     11 O4'        -2.9690   26.3870  -24.0800 O.3       1 SAH301      0.0000 
     12 C3'        -0.7400   27.0140  -23.6690 C.3       1 SAH301      0.0000 
     13 O3'        -0.3400   28.3520  -23.8410 O.3       1 SAH301      0.0000 
     14 C2'        -1.5110   26.8830  -22.3650 C.3       1 SAH301      0.0000 
     15 O2'        -1.1640   27.8920  -21.4370 O.3       1 SAH301      0.0000 
     16 C1'        -2.9400   27.0530  -22.8420 C.3       1 SAH301      0.0000 
     17 N9         -3.9400   26.4770  -21.9280 N.pl3     1 SAH301      0.0000 
     18 C8         -3.8590   25.3470  -21.1630 C.2       1 SAH301      0.0000 
     19 N7         -5.0270   25.2180  -20.4930 N.2       1 SAH301      0.0000 
     20 C5         -5.8460   26.2430  -20.8250 C.ar      1 SAH301      0.0000 
     21 C6         -7.1350   26.5990  -20.4450 C.ar      1 SAH301      0.0000 
     22 N6         -7.8180   25.8610  -19.5730 N.pl3     1 SAH301      0.0000 
     23 N1         -7.7160   27.7270  -20.9830 N.ar      1 SAH301      0.0000 
     24 C2         -7.0240   28.5030  -21.8860 C.ar      1 SAH301      0.0000 
     25 N3         -5.7460   28.1460  -22.2560 N.ar      1 SAH301      0.0000 
     26 C4         -5.1700   27.0390  -21.7300 C.ar      1 SAH301      0.0000 
@<TRIPOS>BOND
     1    1    2 1    
     2    2    3 1    
     3    2    6 1    
     4    3    4 1    
     5    4    5 1    
     6    5    9 1    
     7    6    7 ar   
     8    6    8 ar   
     9    9   10 1    
    10   10   11 1    
    11   10   12 1    
    12   11   16 1    
    13   12   13 1    
    14   12   14 1    
    15   14   15 1    
    16   14   16 1    
    17   16   17 1    
    18   17   18 1    
    19   17   26 1    
    20   18   19 2    
    21   19   20 1    
    22   20   21 ar   
    23   20   26 ar   
    24   21   22 1    
    25   21   23 ar   
    26   23   24 ar   
    27   24   25 ar   
    28   25   26 ar   
@<TRIPOS>SUBSTRUCTURE
     1 SAH301      1 GROUP   
@<TRIPOS>SET

