#    Name: 6jcl_5_SAH_CAVITY_N1_4
#    Modification time : Fri May 22 19:30:47 2020

@<TRIPOS>MOLECULE
6jcl_5_SAH_CAVITY_N1_4
   61     0     6     0     0
SMALL
NO_CHARGES


@<TRIPOS>ATOM
      1 OG         47.7000  -17.4700  -60.9700 O.3       1 SER1        0.0000 
      2 O          46.1300  -17.4300  -63.9300 O.2       2 ALA2        0.0000 
      3 O          45.3200  -21.2800  -61.2800 O.2       2 ALA2        0.0000 
      4 N          44.1000  -19.6300  -57.5700 N.am      2 ALA2        0.0000 
      5 N          43.9300  -18.2900  -58.2200 N.am      2 ALA2        0.0000 
      6 N          46.1100  -19.1500  -57.1100 N.am      2 ALA2        0.0000 
      7 N          44.8000  -18.9800  -56.4100 N.am      2 ALA2        0.0000 
      8 O          47.9600  -17.3400  -57.3100 O.2       2 ALA2        0.0000 
      9 N          46.8200  -18.5000  -55.9600 N.am      2 ALA2        0.0000 
     10 N          45.5000  -18.3300  -55.2600 N.am      2 ALA2        0.0000 
     11 NZ         48.4800  -19.6400  -62.1800 N.4       3 LYS4        0.0000 
     12 NZ         47.1700  -19.4600  -61.4800 N.4       3 LYS4        0.0000 
     13 NZ         48.0400  -20.1500  -59.6700 N.4       3 LYS4        0.0000 
     14 NZ         47.8700  -18.8100  -60.3200 N.4       3 LYS4        0.0000 
     15 NZ         47.2600  -17.9900  -58.4700 N.4       3 LYS4        0.0000 
     16 NZ         46.2100  -17.6800  -54.1000 N.4       3 LYS4        0.0000 
     17 NZ         46.9100  -17.0300  -52.9500 N.4       3 LYS4        0.0000 
     18 CZ         45.7600  -20.7600  -63.7900 C.ar      4 PHE5        0.0000 
     19 CZ         45.5900  -19.4200  -64.4400 C.ar      4 PHE5        0.0000 
     20 CZ         47.6100  -18.9500  -63.9800 C.ar      4 PHE5        0.0000 
     21 CZ         46.3000  -18.7700  -63.2800 C.ar      4 PHE5        0.0000 
     22 CZ         46.6600  -15.4400  -63.4300 C.ar      4 PHE5        0.0000 
     23 CZ         46.3900  -17.3000  -60.2700 C.ar      4 PHE5        0.0000 
     24 CZ         46.2200  -15.9600  -60.9200 C.ar      4 PHE5        0.0000 
     25 CA         46.6400  -21.4500  -61.9800 C.3       5 GLY6        0.0000 
     26 CA         46.4700  -20.1100  -62.6300 C.3       5 GLY6        0.0000 
     27 CA         47.3400  -20.8000  -60.8300 C.3       5 GLY6        0.0000 
     28 CA         47.0000  -18.1200  -62.1300 C.3       5 GLY6        0.0000 
     29 CA         46.8300  -16.7800  -62.7800 C.3       5 GLY6        0.0000 
     30 CA         46.0200  -20.6300  -60.1200 C.3       5 GLY6        0.0000 
     31 CA         43.0600  -17.6000  -60.0200 C.3       5 GLY6        0.0000 
     32 CA         46.9000  -21.3200  -58.3200 C.3       5 GLY6        0.0000 
     33 CA         46.7300  -19.9800  -58.9700 C.3       5 GLY6        0.0000 
     34 CA         45.4100  -19.8000  -58.2700 C.3       5 GLY6        0.0000 
     35 CA         43.7600  -16.9500  -58.8700 C.3       5 GLY6        0.0000 
     36 CA         47.4300  -19.3300  -57.8100 C.3       5 GLY6        0.0000 
     37 CA         47.0900  -16.6500  -59.1200 C.3       5 GLY6        0.0000 
     38 CA         45.7800  -16.4700  -58.4100 C.3       5 GLY6        0.0000 
     39 CA         45.6100  -15.1300  -59.0700 C.3       5 GLY6        0.0000 
     40 CA         44.6300  -17.6400  -57.0600 C.3       5 GLY6        0.0000 
     41 CA         44.4600  -16.3000  -57.7100 C.3       5 GLY6        0.0000 
     42 CA         46.6500  -17.1600  -56.6100 C.3       5 GLY6        0.0000 
     43 CA         45.3300  -16.9900  -55.9100 C.3       5 GLY6        0.0000 
     44 CA         47.5200  -17.8600  -54.8000 C.3       5 GLY6        0.0000 
     45 CA         46.0400  -16.3400  -54.7500 C.3       5 GLY6        0.0000 
     46 CA         48.2200  -17.2100  -53.6500 C.3       5 GLY6        0.0000 
     47 DU         44.2800  -19.2500  -63.7400 H         6 CUB7        0.0000 
     48 DU         45.1500  -19.9400  -61.9300 H         6 CUB7        0.0000 
     49 DU         44.8100  -17.2600  -63.2300 H         6 CUB7        0.0000 
     50 DU         43.6700  -18.4200  -61.8800 H         6 CUB7        0.0000 
     51 DU         45.8500  -19.2900  -60.7800 H         6 CUB7        0.0000 
     52 DU         45.6900  -17.9500  -61.4300 H         6 CUB7        0.0000 
     53 DU         45.5200  -16.6100  -62.0800 H         6 CUB7        0.0000 
     54 DU         44.5400  -19.1100  -60.0700 H         6 CUB7        0.0000 
     55 DU         44.3700  -17.7700  -60.7300 H         6 CUB7        0.0000 
     56 DU         44.2000  -16.4300  -61.3800 H         6 CUB7        0.0000 
     57 DU         46.5600  -18.6400  -59.6200 H         6 CUB7        0.0000 
     58 DU         45.2400  -18.4600  -58.9200 H         6 CUB7        0.0000 
     59 DU         45.0700  -17.1200  -59.5700 H         6 CUB7        0.0000 
     60 DU         44.9000  -15.7800  -60.2200 H         6 CUB7        0.0000 
     61 DU         45.9500  -17.8100  -57.7600 H         6 CUB7        0.0000 
@<TRIPOS>BOND
@<TRIPOS>SUBSTRUCTURE
     1 SER1        1 GROUP   
     2 ALA2        2 GROUP   
     3 LYS4       11 GROUP   
     4 PHE5       18 GROUP   
     5 GLY6       25 GROUP   
     6 CUB7       47 GROUP   
@<TRIPOS>SET

