#    Name: 6jcl_5_SAH
#    Modification time : Fri May 22 19:30:45 2020

@<TRIPOS>MOLECULE
6jcl_5_SAH
   26    28     1     0     0
SMALL
NO_CHARGES


@<TRIPOS>ATOM
      1 N          47.4530  -19.0980  -52.0020 N.4       1 SAH301      0.0000 
      2 CA         47.7470  -17.7240  -52.4170 C.3       1 SAH301      0.0000 
      3 CB         46.7410  -17.2310  -53.4460 C.3       1 SAH301      0.0000 
      4 CG         46.5710  -18.1270  -54.6870 C.3       1 SAH301      0.0000 
      5 SD         45.6230  -17.2350  -55.9410 S.3       1 SAH301      0.0000 
      6 C          47.7470  -16.7680  -51.2330 C.2       1 SAH301      0.0000 
      7 O          48.6230  -15.9130  -51.1120 O.co2     1 SAH301      0.0000 
      8 OXT        46.8390  -16.8350  -50.4090 O.co2     1 SAH301      0.0000 
      9 C5'        45.4560  -18.6380  -57.0830 C.3       1 SAH301      0.0000 
     10 C4'        46.7460  -18.9640  -57.8290 C.3       1 SAH301      0.0000 
     11 O4'        46.5500  -20.1840  -58.5040 O.3       1 SAH301      0.0000 
     12 C3'        47.1380  -17.9410  -58.8930 C.3       1 SAH301      0.0000 
     13 O3'        48.4940  -17.5670  -58.6880 O.3       1 SAH301      0.0000 
     14 C2'        47.0070  -18.6890  -60.2210 C.3       1 SAH301      0.0000 
     15 O2'        47.9630  -18.3440  -61.2060 O.3       1 SAH301      0.0000 
     16 C1'        47.2000  -20.1210  -59.7420 C.3       1 SAH301      0.0000 
     17 N9         46.6680  -21.1600  -60.6410 N.pl3     1 SAH301      0.0000 
     18 C8         45.5010  -21.1530  -61.3610 C.2       1 SAH301      0.0000 
     19 N7         45.4270  -22.3250  -62.0360 N.2       1 SAH301      0.0000 
     20 C5         46.5280  -23.0760  -61.7530 C.ar      1 SAH301      0.0000 
     21 C6         46.9540  -24.3310  -62.1500 C.ar      1 SAH301      0.0000 
     22 N6         46.2420  -25.0670  -63.0120 N.pl3     1 SAH301      0.0000 
     23 N1         48.1490  -24.8100  -61.6590 N.ar      1 SAH301      0.0000 
     24 C2         48.9160  -24.0720  -60.7820 C.ar      1 SAH301      0.0000 
     25 N3         48.4820  -22.8200  -60.3840 N.ar      1 SAH301      0.0000 
     26 C4         47.3090  -22.3510  -60.8660 C.ar      1 SAH301      0.0000 
@<TRIPOS>BOND
     1    1    2 1    
     2    2    3 1    
     3    2    6 1    
     4    3    4 1    
     5    4    5 1    
     6    5    9 1    
     7    6    7 ar   
     8    6    8 ar   
     9    9   10 1    
    10   10   11 1    
    11   10   12 1    
    12   11   16 1    
    13   12   13 1    
    14   12   14 1    
    15   14   15 1    
    16   14   16 1    
    17   16   17 1    
    18   17   18 1    
    19   17   26 1    
    20   18   19 2    
    21   19   20 1    
    22   20   21 ar   
    23   20   26 ar   
    24   21   22 1    
    25   21   23 ar   
    26   23   24 ar   
    27   24   25 ar   
    28   25   26 ar   
@<TRIPOS>SUBSTRUCTURE
     1 SAH301      1 GROUP   
@<TRIPOS>SET

