#    Name: 6jcl_8_SAH
#    Modification time : Fri May 22 19:30:59 2020

@<TRIPOS>MOLECULE
6jcl_8_SAH
   26    28     1     0     0
SMALL
NO_CHARGES


@<TRIPOS>ATOM
      1 N          -0.8280    5.6940  -10.3260 N.4       1 SAH301      0.0000 
      2 CA         -1.7870    4.9650  -11.1540 C.3       1 SAH301      0.0000 
      3 CB         -2.0870    5.7050  -12.4560 C.3       1 SAH301      0.0000 
      4 CG         -2.4550    7.1760  -12.2920 C.3       1 SAH301      0.0000 
      5 SD         -3.1820    7.7430  -13.8480 S.3       1 SAH301      0.0000 
      6 C          -1.3040    3.5600  -11.4970 C.2       1 SAH301      0.0000 
      7 O          -0.1730    3.3760  -11.9530 O.co2     1 SAH301      0.0000 
      8 OXT        -2.0430    2.5820  -11.3310 O.co2     1 SAH301      0.0000 
      9 C5'        -3.2100    9.4810  -13.3660 C.3       1 SAH301      0.0000 
     10 C4'        -4.3250    9.7390  -12.3650 C.3       1 SAH301      0.0000 
     11 O4'        -4.2050   11.0550  -11.8760 O.3       1 SAH301      0.0000 
     12 C3'        -5.7090    9.6290  -12.9930 C.3       1 SAH301      0.0000 
     13 O3'        -6.5110    8.7760  -12.2210 O.3       1 SAH301      0.0000 
     14 C2'        -6.2960   11.0160  -12.9040 C.3       1 SAH301      0.0000 
     15 O2'        -7.6740   11.0100  -12.6190 O.3       1 SAH301      0.0000 
     16 C1'        -5.5090   11.5610  -11.7430 C.3       1 SAH301      0.0000 
     17 N9         -5.5280   13.0150  -11.6910 N.pl3     1 SAH301      0.0000 
     18 C8         -5.4210   13.8810  -12.7470 C.2       1 SAH301      0.0000 
     19 N7         -5.4830   15.1380  -12.2450 N.2       1 SAH301      0.0000 
     20 C5         -5.6310   15.0680  -10.8960 C.ar      1 SAH301      0.0000 
     21 C6         -5.7470   16.0210   -9.8950 C.ar      1 SAH301      0.0000 
     22 N6         -5.7310   17.3220  -10.1720 N.pl3     1 SAH301      0.0000 
     23 N1         -5.8860   15.6160   -8.5880 N.ar      1 SAH301      0.0000 
     24 C2         -5.9100   14.2780   -8.2510 C.ar      1 SAH301      0.0000 
     25 N3         -5.7950   13.3430   -9.2490 N.ar      1 SAH301      0.0000 
     26 C4         -5.6520   13.7340  -10.5390 C.ar      1 SAH301      0.0000 
@<TRIPOS>BOND
     1    1    2 1    
     2    2    3 1    
     3    2    6 1    
     4    3    4 1    
     5    4    5 1    
     6    5    9 1    
     7    6    7 ar   
     8    6    8 ar   
     9    9   10 1    
    10   10   11 1    
    11   10   12 1    
    12   11   16 1    
    13   12   13 1    
    14   12   14 1    
    15   14   15 1    
    16   14   16 1    
    17   16   17 1    
    18   17   18 1    
    19   17   26 1    
    20   18   19 2    
    21   19   20 1    
    22   20   21 ar   
    23   20   26 ar   
    24   21   22 1    
    25   21   23 ar   
    26   23   24 ar   
    27   24   25 ar   
    28   25   26 ar   
@<TRIPOS>SUBSTRUCTURE
     1 SAH301      1 GROUP   
@<TRIPOS>SET

