#    Name: 6jcl_7_SAH
#    Modification time : Fri May 22 19:30:53 2020

@<TRIPOS>MOLECULE
6jcl_7_SAH
   26    28     1     0     0
SMALL
NO_CHARGES


@<TRIPOS>ATOM
      1 N          30.9090   -1.9660  -10.1390 N.4       1 SAH301      0.0000 
      2 CA         31.8570   -1.2660  -10.9970 C.3       1 SAH301      0.0000 
      3 CB         32.1970   -2.0910  -12.2360 C.3       1 SAH301      0.0000 
      4 CG         32.5010   -3.5700  -12.0090 C.3       1 SAH301      0.0000 
      5 SD         33.2590   -4.2740  -13.5060 S.3       1 SAH301      0.0000 
      6 C          31.3100    0.0870  -11.4250 C.2       1 SAH301      0.0000 
      7 O          32.0180    1.0890  -11.3870 O.co2     1 SAH301      0.0000 
      8 OXT        30.1540    0.1990  -11.8240 O.co2     1 SAH301      0.0000 
      9 C5'        33.3380   -5.9880  -12.9250 C.3       1 SAH301      0.0000 
     10 C4'        34.4500   -6.1740  -11.8860 C.3       1 SAH301      0.0000 
     11 O4'        34.3260   -7.4580  -11.2750 O.3       1 SAH301      0.0000 
     12 C3'        35.8340   -6.1310  -12.5240 C.3       1 SAH301      0.0000 
     13 O3'        36.6570   -5.2150  -11.8440 O.3       1 SAH301      0.0000 
     14 C2'        36.3580   -7.5470  -12.3480 C.3       1 SAH301      0.0000 
     15 O2'        37.7540   -7.5660  -12.1780 O.3       1 SAH301      0.0000 
     16 C1'        35.6180   -7.9870  -11.0950 C.3       1 SAH301      0.0000 
     17 N9         35.5520   -9.4480  -10.9250 N.pl3     1 SAH301      0.0000 
     18 C8         35.4440  -10.3890  -11.9190 C.2       1 SAH301      0.0000 
     19 N7         35.4100  -11.6110  -11.3310 N.2       1 SAH301      0.0000 
     20 C5         35.4920  -11.4610   -9.9900 C.ar      1 SAH301      0.0000 
     21 C6         35.5010  -12.3670   -8.9310 C.ar      1 SAH301      0.0000 
     22 N6         35.4180  -13.6790   -9.1400 N.pl3     1 SAH301      0.0000 
     23 N1         35.5900  -11.8990   -7.6410 N.ar      1 SAH301      0.0000 
     24 C2         35.6770  -10.5420   -7.3860 C.ar      1 SAH301      0.0000 
     25 N3         35.6680   -9.6460   -8.4360 N.ar      1 SAH301      0.0000 
     26 C4         35.5720  -10.0980   -9.7180 C.ar      1 SAH301      0.0000 
@<TRIPOS>BOND
     1    1    2 1    
     2    2    3 1    
     3    2    6 1    
     4    3    4 1    
     5    4    5 1    
     6    5    9 1    
     7    6    7 ar   
     8    6    8 ar   
     9    9   10 1    
    10   10   11 1    
    11   10   12 1    
    12   11   16 1    
    13   12   13 1    
    14   12   14 1    
    15   14   15 1    
    16   14   16 1    
    17   16   17 1    
    18   17   18 1    
    19   17   26 1    
    20   18   19 2    
    21   19   20 1    
    22   20   21 ar   
    23   20   26 ar   
    24   21   22 1    
    25   21   23 ar   
    26   23   24 ar   
    27   24   25 ar   
    28   25   26 ar   
@<TRIPOS>SUBSTRUCTURE
     1 SAH301      1 GROUP   
@<TRIPOS>SET

