#    Name: 6jcl_2_SAH
#    Modification time : Fri May 22 19:30:32 2020

@<TRIPOS>MOLECULE
6jcl_2_SAH
   26    28     1     0     0
SMALL
NO_CHARGES


@<TRIPOS>ATOM
      1 N          25.8390  -19.5530  -72.0400 N.4       1 SAH301      0.0000 
      2 CA         25.1650  -20.5670  -71.2090 C.3       1 SAH301      0.0000 
      3 CB         25.9350  -20.8030  -69.9070 C.3       1 SAH301      0.0000 
      4 CG         27.4290  -21.1210  -70.1020 C.3       1 SAH301      0.0000 
      5 SD         28.1340  -21.7100  -68.5380 S.3       1 SAH301      0.0000 
      6 C          23.7350  -20.1830  -70.8780 C.2       1 SAH301      0.0000 
      7 O          23.4830  -19.0720  -70.4210 O.co2     1 SAH301      0.0000 
      8 OXT        22.8020  -20.9730  -71.0530 O.co2     1 SAH301      0.0000 
      9 C5'        29.8520  -21.7130  -69.1200 C.3       1 SAH301      0.0000 
     10 C4'        30.1520  -22.8680  -70.0540 C.3       1 SAH301      0.0000 
     11 O4'        31.4510  -22.6110  -70.5610 O.3       1 SAH301      0.0000 
     12 C3'        30.2170  -24.2400  -69.3590 C.3       1 SAH301      0.0000 
     13 O3'        29.4000  -25.1650  -70.0550 O.3       1 SAH301      0.0000 
     14 C2'        31.6760  -24.6370  -69.4700 C.3       1 SAH301      0.0000 
     15 O2'        31.9240  -26.0190  -69.6630 O.3       1 SAH301      0.0000 
     16 C1'        32.1110  -23.8450  -70.6760 C.3       1 SAH301      0.0000 
     17 N9         33.5620  -23.6530  -70.7390 N.pl3     1 SAH301      0.0000 
     18 C8         34.4310  -23.4160  -69.7030 C.2       1 SAH301      0.0000 
     19 N7         35.6770  -23.2930  -70.2360 N.2       1 SAH301      0.0000 
     20 C5         35.5940  -23.4400  -71.5920 C.ar      1 SAH301      0.0000 
     21 C6         36.5360  -23.4120  -72.6200 C.ar      1 SAH301      0.0000 
     22 N6         37.8430  -23.2160  -72.4100 N.pl3     1 SAH301      0.0000 
     23 N1         36.1010  -23.5920  -73.9130 N.ar      1 SAH301      0.0000 
     24 C2         34.7680  -23.8170  -74.1860 C.ar      1 SAH301      0.0000 
     25 N3         33.8310  -23.8520  -73.1780 N.ar      1 SAH301      0.0000 
     26 C4         34.2610  -23.6710  -71.9020 C.ar      1 SAH301      0.0000 
@<TRIPOS>BOND
     1    1    2 1    
     2    2    3 1    
     3    2    6 1    
     4    3    4 1    
     5    4    5 1    
     6    5    9 1    
     7    6    7 ar   
     8    6    8 ar   
     9    9   10 1    
    10   10   11 1    
    11   10   12 1    
    12   11   16 1    
    13   12   13 1    
    14   12   14 1    
    15   14   15 1    
    16   14   16 1    
    17   16   17 1    
    18   17   18 1    
    19   17   26 1    
    20   18   19 2    
    21   19   20 1    
    22   20   21 ar   
    23   20   26 ar   
    24   21   22 1    
    25   21   23 ar   
    26   23   24 ar   
    27   24   25 ar   
    28   25   26 ar   
@<TRIPOS>SUBSTRUCTURE
     1 SAH301      1 GROUP   
@<TRIPOS>SET

