#    Name: 6jcl_7_SAH_CAVITY_N1_4
#    Modification time : Fri May 22 19:30:54 2020

@<TRIPOS>MOLECULE
6jcl_7_SAH_CAVITY_N1_4
   63     0     5     0     0
SMALL
NO_CHARGES


@<TRIPOS>ATOM
      1 O          35.1600  -10.5800  -12.4100 O.2       1 ALA2        0.0000 
      2 N          33.3300   -6.3900  -13.6700 N.am      1 ALA2        0.0000 
      3 N          34.0400   -5.7400  -12.5100 N.am      1 ALA2        0.0000 
      4 N          32.5500   -4.2200  -12.4600 N.am      1 ALA2        0.0000 
      5 O          35.5800  -11.7900   -8.1000 O.2       1 ALA2        0.0000 
      6 O          34.7400   -5.0900  -11.3600 O.2       1 ALA2        0.0000 
      7 N          33.2500   -3.5700  -11.3100 N.am      1 ALA2        0.0000 
      8 NZ         35.4900  -13.2600  -11.1100 N.4       2 LYS4        0.0000 
      9 NZ         37.0000   -8.7700  -12.6100 N.4       2 LYS4        0.0000 
     10 NZ         34.8800  -12.4400   -9.2600 N.4       2 LYS4        0.0000 
     11 NZ         34.7100  -11.1000   -9.9100 N.4       2 LYS4        0.0000 
     12 NZ         37.5400   -6.7800  -12.1100 N.4       2 LYS4        0.0000 
     13 NZ         36.3900   -7.9400  -10.7600 N.4       2 LYS4        0.0000 
     14 NZ         36.2200   -6.6000  -11.4100 N.4       2 LYS4        0.0000 
     15 NZ         36.0500   -5.2600  -12.0600 N.4       2 LYS4        0.0000 
     16 NZ         34.9100   -6.4300  -10.7100 N.4       2 LYS4        0.0000 
     17 NZ         31.7700   -2.0600  -11.2600 N.4       2 LYS4        0.0000 
     18 NZ         31.6000   -0.7200  -11.9100 N.4       2 LYS4        0.0000 
     19 CZ         37.2800   -6.9100  -15.7700 C.ar      3 PHE5        0.0000 
     20 CZ         36.6400  -12.1000  -12.4700 C.ar      3 PHE5        0.0000 
     21 CZ         36.4700  -10.7600  -13.1200 C.ar      3 PHE5        0.0000 
     22 CZ         37.1700  -10.1100  -11.9600 C.ar      3 PHE5        0.0000 
     23 CZ         36.8300   -7.4300  -13.2600 C.ar      3 PHE5        0.0000 
     24 CZ         36.6600   -6.0900  -13.9100 C.ar      3 PHE5        0.0000 
     25 CZ         36.2000  -12.6100   -9.9600 C.ar      3 PHE5        0.0000 
     26 CA         35.9400  -12.7500  -13.6200 C.3       4 GLY6        0.0000 
     27 CA         35.7700  -11.4100  -14.2700 C.3       4 GLY6        0.0000 
     28 CA         35.6000  -10.0700  -14.9200 C.3       4 GLY6        0.0000 
     29 CA         35.4300   -8.7300  -15.5700 C.3       4 GLY6        0.0000 
     30 CA         34.4500  -11.2300  -13.5700 C.3       4 GLY6        0.0000 
     31 CA         33.9400   -7.2100  -15.5200 C.3       4 GLY6        0.0000 
     32 CA         35.7900   -5.3900  -15.7200 C.3       4 GLY6        0.0000 
     33 CA         35.3200  -11.9200  -11.7600 C.3       4 GLY6        0.0000 
     34 CA         34.4800   -5.2200  -15.0200 C.3       4 GLY6        0.0000 
     35 CA         33.6700   -9.0700  -12.3600 C.3       4 GLY6        0.0000 
     36 CA         33.5000   -7.7300  -13.0200 C.3       4 GLY6        0.0000 
     37 CA         33.1600   -5.0500  -14.3200 C.3       4 GLY6        0.0000 
     38 CA         36.0300  -11.2700  -10.6100 C.3       4 GLY6        0.0000 
     39 CA         35.8600   -9.9300  -11.2600 C.3       4 GLY6        0.0000 
     40 CA         35.1800   -4.5700  -13.8600 C.3       4 GLY6        0.0000 
     41 CA         34.5400   -9.7600  -10.5600 C.3       4 GLY6        0.0000 
     42 CA         34.3700   -8.4200  -11.2100 C.3       4 GLY6        0.0000 
     43 CA         34.2000   -7.0800  -11.8600 C.3       4 GLY6        0.0000 
     44 CA         33.8700   -4.4000  -13.1600 C.3       4 GLY6        0.0000 
     45 CA         33.7000   -3.0500  -13.8100 C.3       4 GLY6        0.0000 
     46 CA         32.3800   -2.8800  -13.1100 C.3       4 GLY6        0.0000 
     47 CA         36.5600   -9.2800  -10.1000 C.3       4 GLY6        0.0000 
     48 CA         35.4200  -10.4500   -8.7500 C.3       4 GLY6        0.0000 
     49 CA         35.2500   -9.1100   -9.4000 C.3       4 GLY6        0.0000 
     50 CA         35.0800   -7.7700  -10.0500 C.3       4 GLY6        0.0000 
     51 CA         34.1000  -10.2700   -8.0500 C.3       4 GLY6        0.0000 
     52 CA         33.0800   -2.2300  -11.9600 C.3       4 GLY6        0.0000 
     53 CA         32.9200   -0.8900  -12.6100 C.3       4 GLY6        0.0000 
     54 DU         35.2600   -7.3800  -16.2200 H         5 CUB7        0.0000 
     55 DU         36.3000   -9.4200  -13.7700 H         5 CUB7        0.0000 
     56 DU         36.1300   -8.0800  -14.4200 H         5 CUB7        0.0000 
     57 DU         35.9600   -6.7300  -15.0700 H         5 CUB7        0.0000 
     58 DU         34.9900   -9.2400  -13.0700 H         5 CUB7        0.0000 
     59 DU         34.8200   -7.9000  -13.7200 H         5 CUB7        0.0000 
     60 DU         34.6500   -6.5600  -14.3700 H         5 CUB7        0.0000 
     61 DU         35.6900   -8.5900  -11.9100 H         5 CUB7        0.0000 
     62 DU         35.5200   -7.2500  -12.5600 H         5 CUB7        0.0000 
     63 DU         35.3500   -5.9100  -13.2100 H         5 CUB7        0.0000 
@<TRIPOS>BOND
@<TRIPOS>SUBSTRUCTURE
     1 ALA2        1 GROUP   
     2 LYS4        8 GROUP   
     3 PHE5       19 GROUP   
     4 GLY6       26 GROUP   
     5 CUB7       54 GROUP   
@<TRIPOS>SET

