#    Name: 6jcl_4_SAH_CAVITY_N1_4
#    Modification time : Fri May 22 19:30:40 2020

@<TRIPOS>MOLECULE
6jcl_4_SAH_CAVITY_N1_4
   67     0     6     0     0
SMALL
NO_CHARGES


@<TRIPOS>ATOM
      1 OG         -8.5100   25.6100  -19.8400 O.3       1 SER1        0.0000 
      2 N          -1.3300   23.9100  -25.2100 N.am      2 ALA2        0.0000 
      3 N          -1.4900   25.2500  -25.8600 N.am      2 ALA2        0.0000 
      4 N          -1.6600   26.5900  -26.5100 N.am      2 ALA2        0.0000 
      5 N          -2.8100   25.4300  -25.1600 N.am      2 ALA2        0.0000 
      6 O          -0.9600   27.2400  -25.3500 O.2       2 ALA2        0.0000 
      7 O          -4.5700   25.0800  -21.9500 O.2       2 ALA2        0.0000 
      8 O          -7.5300   28.1200  -21.8500 O.2       2 ALA2        0.0000 
      9 O          -4.2000   28.4200  -22.0900 O.2       2 ALA2        0.0000 
     10 NZ         -2.2800   27.4200  -24.6500 N.4       3 LYS4        0.0000 
     11 NZ         -7.3600   26.7700  -21.1900 N.4       3 LYS4        0.0000 
     12 NZ         -1.4000   26.7300  -22.8500 N.4       3 LYS4        0.0000 
     13 NZ         -1.5700   28.0700  -23.5000 N.4       3 LYS4        0.0000 
     14 NZ         -2.7200   26.9000  -22.1400 N.4       3 LYS4        0.0000 
     15 NZ         -2.8900   28.2400  -22.7900 N.4       3 LYS4        0.0000 
     16 NZ         -6.3200   24.7400  -18.7400 N.4       3 LYS4        0.0000 
     17 NZ         -6.4900   26.0800  -19.3900 N.4       3 LYS4        0.0000 
     18 NZ         -7.6400   24.9200  -18.0400 N.4       3 LYS4        0.0000 
     19 NZ         -0.7000   27.3800  -21.6900 N.4       3 LYS4        0.0000 
     20 NZ         -2.0200   27.5500  -20.9900 N.4       3 LYS4        0.0000 
     21 CZ          2.1000   25.6900  -22.4400 C.ar      4 PHE5        0.0000 
     22 CZ          0.7800   25.8600  -21.7400 C.ar      4 PHE5        0.0000 
     23 CZ          0.6100   27.2000  -22.3900 C.ar      4 PHE5        0.0000 
     24 CZ         -2.9900   25.0400  -18.9900 C.ar      4 PHE5        0.0000 
     25 CZ         -4.3100   25.2200  -18.2800 C.ar      4 PHE5        0.0000 
     26 CZ         -5.7900   26.7300  -18.2300 C.ar      4 PHE5        0.0000 
     27 CZ         -7.1000   26.9100  -17.5300 C.ar      4 PHE5        0.0000 
     28 CZ         -2.2900   25.6900  -17.8300 C.ar      4 PHE5        0.0000 
     29 CA         -0.1800   25.0800  -26.5600 C.3       5 GLY6        0.0000 
     30 CA         -2.6400   24.0900  -24.5000 C.3       5 GLY6        0.0000 
     31 CA         -6.9200   27.2900  -23.7000 C.3       5 GLY6        0.0000 
     32 CA          0.6900   24.3900  -24.7500 C.3       5 GLY6        0.0000 
     33 CA          0.5200   25.7300  -25.4000 C.3       5 GLY6        0.0000 
     34 CA          0.3500   27.0700  -26.0500 C.3       5 GLY6        0.0000 
     35 CA         -1.9400   24.7400  -23.3500 C.3       5 GLY6        0.0000 
     36 CA         -3.2500   24.9100  -22.6500 C.3       5 GLY6        0.0000 
     37 CA         -3.4200   26.2500  -23.3000 C.3       5 GLY6        0.0000 
     38 CA         -3.5900   27.5900  -23.9500 C.3       5 GLY6        0.0000 
     39 CA         -4.7400   26.4300  -22.6000 C.3       5 GLY6        0.0000 
     40 CA         -4.9000   27.7700  -23.2500 C.3       5 GLY6        0.0000 
     41 CA         -6.0500   26.6000  -21.9000 C.3       5 GLY6        0.0000 
     42 CA         -6.2200   27.9400  -22.5500 C.3       5 GLY6        0.0000 
     43 CA          1.3900   25.0400  -23.6000 C.3       5 GLY6        0.0000 
     44 CA          1.2300   26.3800  -24.2500 C.3       5 GLY6        0.0000 
     45 CA         -0.0900   26.5500  -23.5500 C.3       5 GLY6        0.0000 
     46 CA         -0.2600   27.8900  -24.2000 C.3       5 GLY6        0.0000 
     47 CA         -3.5200   23.0500  -19.4900 C.3       5 GLY6        0.0000 
     48 CA         -3.6900   24.3900  -20.1400 C.3       5 GLY6        0.0000 
     49 CA         -4.0300   27.0700  -21.4400 C.3       5 GLY6        0.0000 
     50 CA         -5.0100   24.5700  -19.4400 C.3       5 GLY6        0.0000 
     51 CA         -5.1800   25.9100  -20.0900 C.3       5 GLY6        0.0000 
     52 CA         -5.3500   27.2500  -20.7400 C.3       5 GLY6        0.0000 
     53 CA         -6.6600   27.4200  -20.0400 C.3       5 GLY6        0.0000 
     54 CA         -7.8100   26.2600  -18.6900 C.3       5 GLY6        0.0000 
     55 CA         -3.1600   26.3800  -19.6400 C.3       5 GLY6        0.0000 
     56 CA         -4.4700   26.5600  -18.9300 C.3       5 GLY6        0.0000 
     57 CA         -8.2500   25.7400  -16.1800 C.3       5 GLY6        0.0000 
     58 DU         -0.6200   24.5600  -24.0500 H         6 CUB7        0.0000 
     59 DU         -0.7900   25.9000  -24.7000 H         6 CUB7        0.0000 
     60 DU         -2.1100   26.0800  -24.0000 H         6 CUB7        0.0000 
     61 DU          0.0800   25.2100  -22.9000 H         6 CUB7        0.0000 
     62 DU         -2.5500   25.5600  -21.4900 H         6 CUB7        0.0000 
     63 DU         -3.8600   25.7300  -20.7900 H         6 CUB7        0.0000 
     64 DU          0.9500   24.5200  -21.0900 H         6 CUB7        0.0000 
     65 DU         -1.5100   23.5300  -19.0400 H         6 CUB7        0.0000 
     66 DU         -2.8200   23.7000  -18.3300 H         6 CUB7        0.0000 
     67 DU         -6.9300   25.5700  -16.8800 H         6 CUB7        0.0000 
@<TRIPOS>BOND
@<TRIPOS>SUBSTRUCTURE
     1 SER1        1 GROUP   
     2 ALA2        2 GROUP   
     3 LYS4       10 GROUP   
     4 PHE5       21 GROUP   
     5 GLY6       29 GROUP   
     6 CUB7       58 GROUP   
@<TRIPOS>SET

