#    Name: 6giq_1_UQ6
#    Modification time : Fri May 22 19:31:54 2020

@<TRIPOS>MOLECULE
6giq_1_UQ6
   43    43     1     0     0
SMALL
NO_CHARGES


@<TRIPOS>ATOM
      1 C1        187.7140  197.9100  209.4160 C.ar      1 UQ6406      0.0000 
      2 C1M       188.5460  198.2530  210.6190 C.3       1 UQ6406      0.0000 
      3 C2        186.9320  196.7680  209.4580 C.ar      1 UQ6406      0.0000 
      4 O2        186.9470  195.9990  210.5820 O.3       1 UQ6406      0.0000 
      5 C3        186.1300  196.4240  208.3730 C.ar      1 UQ6406      0.0000 
      6 C4        186.1550  197.2140  207.2330 C.ar      1 UQ6406      0.0000 
      7 C5        186.9480  198.3580  207.2170 C.ar      1 UQ6406      0.0000 
      8 O5        186.9690  199.1510  206.1260 O.3       1 UQ6406      0.0000 
      9 C6        187.7150  198.7250  208.2990 C.ar      1 UQ6406      0.0000 
     10 O3        185.3840  195.2800  208.3890 O.3       1 UQ6406      0.0000 
     11 C3M       184.1240  195.4410  209.0140 C.3       1 UQ6406      0.0000 
     12 O4        185.3890  196.8950  206.1480 O.3       1 UQ6406      0.0000 
     13 C4M       186.1550  196.0670  205.2660 C.3       1 UQ6406      0.0000 
     14 C7        188.5760  199.9670  208.1850 C.3       1 UQ6406      0.0000 
     15 C8        188.0740  201.2810  208.7450 C.2       1 UQ6406      0.0000 
     16 C9        188.7510  202.3950  208.5190 C.2       1 UQ6406      0.0000 
     17 C10       190.0180  202.3930  207.7020 C.3       1 UQ6406      0.0000 
     18 C11       188.2950  203.7230  209.0740 C.3       1 UQ6406      0.0000 
     19 C12       189.4230  204.2860  209.9500 C.3       1 UQ6406      0.0000 
     20 C13       189.3860  205.7960  210.0440 C.2       1 UQ6406      0.0000 
     21 C14       190.0090  206.4600  210.9990 C.2       1 UQ6406      0.0000 
     22 C15       190.7960  205.7500  212.0700 C.3       1 UQ6406      0.0000 
     23 C16       189.9340  207.9650  211.0330 C.3       1 UQ6406      0.0000 
     24 C17       191.3100  208.5800  211.3170 C.3       1 UQ6406      0.0000 
     25 C18       191.5480  209.6840  210.3160 C.2       1 UQ6406      0.0000 
     26 C19       192.5950  210.4800  210.3180 C.2       1 UQ6406      0.0000 
     27 C20       192.6870  211.5310  209.2440 C.3       1 UQ6406      0.0000 
     28 C21       193.6960  210.3660  211.3440 C.3       1 UQ6406      0.0000 
     29 C22       194.2080  211.7530  211.7550 C.3       1 UQ6406      0.0000 
     30 C23       195.6060  212.0140  211.2310 C.2       1 UQ6406      0.0000 
     31 C24       196.0240  213.2240  210.9220 C.2       1 UQ6406      0.0000 
     32 C25       195.1240  214.4190  211.0880 C.3       1 UQ6406      0.0000 
     33 C26       197.4270  213.4300  210.4030 C.3       1 UQ6406      0.0000 
     34 C27       197.4420  214.4830  209.2930 C.3       1 UQ6406      0.0000 
     35 C28       198.5740  215.4500  209.5340 C.2       1 UQ6406      0.0000 
     36 C29       199.1720  216.1170  208.5720 C.2       1 UQ6406      0.0000 
     37 C30       198.7420  215.9440  207.1350 C.3       1 UQ6406      0.0000 
     38 C31       200.2950  217.0570  208.9470 C.3       1 UQ6406      0.0000 
     39 C32       200.8720  217.8180  207.7510 C.3       1 UQ6406      0.0000 
     40 C33       201.9240  218.7940  208.2210 C.2       1 UQ6406      0.0000 
     41 C34       203.1890  218.6840  207.8860 C.2       1 UQ6406      0.0000 
     42 C35       203.6820  217.5630  207.0080 C.3       1 UQ6406      0.0000 
     43 C36       204.1840  219.6940  208.3870 C.3       1 UQ6406      0.0000 
@<TRIPOS>BOND
     1    1    2 1    
     2    1    3 ar   
     3    1    9 ar   
     4    3    4 1    
     5    3    5 ar   
     6    5    6 ar   
     7    5   10 1    
     8    6    7 ar   
     9    6   12 1    
    10    7    8 1    
    11    7    9 ar   
    12    9   14 1    
    13   10   11 1    
    14   12   13 1    
    15   14   15 1    
    16   15   16 2    
    17   16   17 1    
    18   16   18 1    
    19   18   19 1    
    20   19   20 1    
    21   20   21 2    
    22   21   22 1    
    23   21   23 1    
    24   23   24 1    
    25   24   25 1    
    26   25   26 2    
    27   26   27 1    
    28   26   28 1    
    29   28   29 1    
    30   29   30 1    
    31   30   31 2    
    32   31   32 1    
    33   31   33 1    
    34   33   34 1    
    35   34   35 1    
    36   35   36 2    
    37   36   37 1    
    38   36   38 1    
    39   38   39 1    
    40   39   40 1    
    41   40   41 2    
    42   41   42 1    
    43   41   43 1    
@<TRIPOS>SUBSTRUCTURE
     1 UQ6406      1 GROUP   
@<TRIPOS>SET

