#    Name: 6jws_4_ATP_CAVITY_N1_4
#    Modification time : Fri May 22 19:34:12 2020

@<TRIPOS>MOLECULE
6jws_4_ATP_CAVITY_N1_4
   72     0     7     0     0
SMALL
NO_CHARGES


@<TRIPOS>ATOM
      1 OG         44.7300   61.1600   60.1200 O.3       1 SER1        0.0000 
      2 OG         45.5900   60.3200   59.2200 O.3       1 SER1        0.0000 
      3 OG         46.4500   59.4800   58.3200 O.3       1 SER1        0.0000 
      4 O          45.7300   56.3700   55.5300 O.2       2 ALA2        0.0000 
      5 O          46.3900   55.9000   59.1100 O.2       2 ALA2        0.0000 
      6 N          47.4600   57.6300   58.5200 N.am      2 ALA2        0.0000 
      7 N          47.6100   56.6100   59.6100 N.am      2 ALA2        0.0000 
      8 N          48.6800   58.3500   59.0100 N.am      2 ALA2        0.0000 
      9 N          49.5400   57.5100   58.1100 N.am      2 ALA2        0.0000 
     10 O          46.3100   63.4400   62.0100 O.2       2 ALA2        0.0000 
     11 O          46.4600   62.4200   63.1000 O.2       2 ALA2        0.0000 
     12 N          49.9000   59.0600   59.5100 N.am      2 ALA2        0.0000 
     13 N          50.6100   59.2400   57.5200 N.am      2 ALA2        0.0000 
     14 N          50.7600   58.2200   58.6100 N.am      2 ALA2        0.0000 
     15 N          50.8200   61.8100   57.8200 N.am      2 ALA2        0.0000 
     16 N          50.9700   60.8000   58.9100 N.am      2 ALA2        0.0000 
     17 O          51.1200   59.7800   60.0100 O.2       2 ALA2        0.0000 
     18 O          51.9800   58.9400   59.1100 O.2       2 ALA2        0.0000 
     19 N          52.1900   61.5100   59.4100 N.am      2 ALA2        0.0000 
     20 OD1        45.4400   61.3400   58.1200 O.co2     3 ASP3        0.0000 
     21 OD1        46.3000   60.5000   57.2300 O.co2     3 ASP3        0.0000 
     22 OD1        48.0200   58.8200   55.4300 O.co2     3 ASP3        0.0000 
     23 OD1        46.6600   62.0600   58.6200 O.co2     3 ASP3        0.0000 
     24 OD1        47.5200   61.2200   57.7200 O.co2     3 ASP3        0.0000 
     25 OD1        48.2300   61.3900   55.7300 O.co2     3 ASP3        0.0000 
     26 OD1        48.3800   60.3800   56.8300 O.co2     3 ASP3        0.0000 
     27 OD1        49.3900   58.5200   57.0200 O.co2     3 ASP3        0.0000 
     28 OD1        49.6000   61.0900   57.3200 O.co2     3 ASP3        0.0000 
     29 NZ         47.1600   59.6600   56.3300 N.4       4 LYS4        0.0000 
     30 NZ         51.4800   61.3400   61.4000 N.4       4 LYS4        0.0000 
     31 CZ         44.8700   57.2100   56.4300 C.ar      5 PHE5        0.0000 
     32 CZ         45.0200   56.2000   57.5200 C.ar      5 PHE5        0.0000 
     33 CZ         45.2300   58.7700   57.8200 C.ar      5 PHE5        0.0000 
     34 CZ         46.0900   57.9300   56.9200 C.ar      5 PHE5        0.0000 
     35 CZ         46.2400   56.9100   58.0200 C.ar      5 PHE5        0.0000 
     36 CZ         45.0900   62.7200   61.5100 C.ar      5 PHE5        0.0000 
     37 CZ         46.1000   60.8700   61.7100 C.ar      5 PHE5        0.0000 
     38 CZ         46.9600   60.0300   60.8100 C.ar      5 PHE5        0.0000 
     39 CZ         47.8200   59.1900   59.9100 C.ar      5 PHE5        0.0000 
     40 CZ         47.3200   61.5800   62.2000 C.ar      5 PHE5        0.0000 
     41 CZ         48.1800   60.7400   61.3100 C.ar      5 PHE5        0.0000 
     42 CZ         49.0400   59.9000   60.4100 C.ar      5 PHE5        0.0000 
     43 CZ         50.0500   58.0500   60.6000 C.ar      5 PHE5        0.0000 
     44 CZ         48.5400   62.3000   62.7000 C.ar      5 PHE5        0.0000 
     45 CZ         49.4000   61.4600   61.8000 C.ar      5 PHE5        0.0000 
     46 CZ         50.2600   60.6200   60.9100 C.ar      5 PHE5        0.0000 
     47 CZ         51.2700   58.7600   61.1000 C.ar      5 PHE5        0.0000 
     48 CA         45.8800   55.3600   56.6200 C.3       6 GLY6        0.0000 
     49 CA         46.8000   58.1000   54.9300 C.3       6 GLY6        0.0000 
     50 CA         46.9500   57.0900   56.0300 C.3       6 GLY6        0.0000 
     51 CA         47.1000   56.0700   57.1200 C.3       6 GLY6        0.0000 
     52 CA         48.1700   57.8100   56.5200 C.3       6 GLY6        0.0000 
     53 CA         48.3200   56.7900   57.6200 C.3       6 GLY6        0.0000 
     54 CA         51.6300   60.3200   62.5000 C.3       6 GLY6        0.0000 
     55 CA         52.3400   60.5000   60.5100 C.3       6 GLY6        0.0000 
     56 DU         46.6000   58.4700   59.4100 H         7 CUB7        0.0000 
     57 DU         47.3100   58.6500   57.4200 H         7 CUB7        0.0000 
     58 DU         45.9500   61.8800   60.6100 H         7 CUB7        0.0000 
     59 DU         46.8100   61.0400   59.7200 H         7 CUB7        0.0000 
     60 DU         47.6700   60.2000   58.8200 H         7 CUB7        0.0000 
     61 DU         48.5300   59.3600   57.9200 H         7 CUB7        0.0000 
     62 DU         47.1700   62.6000   61.1100 H         7 CUB7        0.0000 
     63 DU         47.8800   62.7700   59.1200 H         7 CUB7        0.0000 
     64 DU         48.0300   61.7600   60.2100 H         7 CUB7        0.0000 
     65 DU         48.7400   61.9300   58.2200 H         7 CUB7        0.0000 
     66 DU         48.8900   60.9200   59.3200 H         7 CUB7        0.0000 
     67 DU         49.7500   60.0800   58.4200 H         7 CUB7        0.0000 
     68 DU         48.3900   63.3100   61.6100 H         7 CUB7        0.0000 
     69 DU         49.2500   62.4700   60.7100 H         7 CUB7        0.0000 
     70 DU         49.9600   62.6500   58.7200 H         7 CUB7        0.0000 
     71 DU         50.1100   61.6400   59.8100 H         7 CUB7        0.0000 
     72 DU         51.3300   62.3500   60.3100 H         7 CUB7        0.0000 
@<TRIPOS>BOND
@<TRIPOS>SUBSTRUCTURE
     1 SER1        1 GROUP   
     2 ALA2        4 GROUP   
     3 ASP3       20 GROUP   
     4 LYS4       29 GROUP   
     5 PHE5       31 GROUP   
     6 GLY6       48 GROUP   
     7 CUB7       56 GROUP   
@<TRIPOS>SET

