#    Name: 6jws_4_ATP
#    Modification time : Fri May 22 19:34:11 2020

@<TRIPOS>MOLECULE
6jws_4_ATP
   31    33     1     0     1
SMALL
NO_CHARGES


@<TRIPOS>ATOM
      1 PG         45.6450   61.6550   58.7000 P.3       1 ATP802      0.0000 
      2 O1G        44.4420   62.5800   58.7340 O.co2     1 ATP802      0.0000 
      3 O2G        45.6950   60.7100   59.8890 O.co2     1 ATP802      0.0000 
      4 O3G        45.7570   60.9250   57.3770 O.co2     1 ATP802      0.0000 
      5 PB         47.2670   64.1840   58.6730 P.3       1 ATP802      0.0000 
      6 O1B        48.4960   64.5070   59.4500 O.co2     1 ATP802      0.0000 
      7 O2B        46.0310   65.0050   58.8750 O.co2     1 ATP802      0.0000 
      8 O3B        46.9480   62.6210   58.8570 O.3       1 ATP802      0.0000 
      9 PA         48.5240   63.2930   56.1820 P.3       1 ATP802      0.0000 
     10 O1A        47.6120   62.4040   55.3940 O.co2     1 ATP802      0.0000 
     11 O2A        49.5060   64.1370   55.4360 O.co2     1 ATP802      0.0000 
     12 O3A        47.6310   64.2380   57.1180 O.3       1 ATP802      0.0000 
     13 O5'        49.3050   62.4240   57.2840 O.3       1 ATP802      0.0000 
     14 C5'        48.9970   61.0090   57.3860 C.3       1 ATP802      0.0000 
     15 C4'        49.6590   60.4410   58.6140 C.3       1 ATP802      0.0000 
     16 O4'        48.7110   59.6330   59.3610 O.3       1 ATP802      0.0000 
     17 C3'        50.8560   59.5250   58.3370 C.3       1 ATP802      0.0000 
     18 O3'        51.8200   59.7070   59.3670 O.3       1 ATP802      0.0000 
     19 C2'        50.2010   58.1410   58.2950 C.3       1 ATP802      0.0000 
     20 O2'        51.0340   57.0670   58.6650 O.3       1 ATP802      0.0000 
     21 C1'        49.1150   58.2790   59.3540 C.3       1 ATP802      0.0000 
     22 N9         47.9560   57.4220   59.1000 N.pl3     1 ATP802      0.0000 
     23 C8         47.3850   56.5570   59.9970 C.2       1 ATP802      0.0000 
     24 N7         46.3540   55.9170   59.4960 N.2       1 ATP802      0.0000 
     25 C5         46.2280   56.4160   58.2060 C.ar      1 ATP802      0.0000 
     26 C6         45.3080   56.1460   57.1750 C.ar      1 ATP802      0.0000 
     27 N6         44.3200   55.2680   57.2960 N.pl3     1 ATP802      0.0000 
     28 N1         45.4640   56.8140   56.0030 N.ar      1 ATP802      0.0000 
     29 C2         46.4710   57.6930   55.8920 C.ar      1 ATP802      0.0000 
     30 N3         47.3900   58.0270   56.7980 N.ar      1 ATP802      0.0000 
     31 C4         47.2130   57.3430   57.9470 C.ar      1 ATP802      0.0000 
@<TRIPOS>BOND
     1    1    2 ar   
     2    1    3 ar   
     3    1    4 ar   
     4    1    8 1    
     5    5    6 ar   
     6    5    7 ar   
     7    5    8 1    
     8    5   12 1    
     9    9   10 ar   
    10    9   11 ar   
    11    9   12 1    
    12    9   13 1    
    13   13   14 1    
    14   14   15 1    
    15   15   16 1    
    16   15   17 1    
    17   16   21 1    
    18   17   18 1    
    19   17   19 1    
    20   19   20 1    
    21   19   21 1    
    22   21   22 1    
    23   22   23 1    
    24   22   31 1    
    25   23   24 2    
    26   24   25 1    
    27   25   26 ar   
    28   25   31 ar   
    29   26   27 1    
    30   26   28 ar   
    31   28   29 ar   
    32   29   30 ar   
    33   30   31 ar   
@<TRIPOS>SUBSTRUCTURE
     1 ATP802      1 GROUP   
@<TRIPOS>SET
ATOM$ORANGE STATIC     ATOMS   COLORGROUP SYSTEM 
20 14 14 15 15 17 17 19 19 21 21 23 23 25 25 26 26 29 \
29 31 31 

