#    Name: 5zyr_1_FMN
#    Modification time : Fri May 22 19:32:29 2020

@<TRIPOS>MOLECULE
5zyr_1_FMN
   31    33     1     0     1
SMALL
NO_CHARGES


@<TRIPOS>ATOM
      1 N1         21.1720    7.2160   41.7960 N.2       1 FMN401      0.0000 
      2 C2         20.8440    6.1970   42.6370 C.2       1 FMN401      0.0000 
      3 O2         20.9330    6.3920   43.8800 O.2       1 FMN401      0.0000 
      4 N3         20.4350    4.9920   42.1840 N.am      1 FMN401      0.0000 
      5 C4         20.3150    4.7410   40.8600 C.2       1 FMN401      0.0000 
      6 O4         19.9170    3.6340   40.4210 O.2       1 FMN401      0.0000 
      7 C4A        20.6730    5.7990   39.8950 C.2       1 FMN401      0.0000 
      8 N5         20.5810    5.6030   38.5660 N.2       1 FMN401      0.0000 
      9 C5A        20.8780    6.5850   37.6880 C.ar      1 FMN401      0.0000 
     10 C6         20.7690    6.3520   36.3200 C.ar      1 FMN401      0.0000 
     11 C7         21.0660    7.3600   35.4150 C.ar      1 FMN401      0.0000 
     12 C7M        20.9330    7.1210   33.9260 C.3       1 FMN401      0.0000 
     13 C8         21.5190    8.6820   35.9100 C.ar      1 FMN401      0.0000 
     14 C8M        21.8470    9.7700   34.9160 C.3       1 FMN401      0.0000 
     15 C9         21.6240    8.9280   37.2770 C.ar      1 FMN401      0.0000 
     16 C9A        21.3130    7.9160   38.1820 C.ar      1 FMN401      0.0000 
     17 N10        21.4400    8.1360   39.5660 N.pl3     1 FMN401      0.0000 
     18 C10        21.1140    7.0910   40.4530 C.2       1 FMN401      0.0000 
     19 C1'        21.9040    9.4390   40.0390 C.3       1 FMN401      0.0000 
     20 C2'        20.8050   10.2660   40.6650 C.3       1 FMN401      0.0000 
     21 O2'        19.7710   10.5600   39.7180 O.3       1 FMN401      0.0000 
     22 C3'        21.4260   11.5460   41.1910 C.3       1 FMN401      0.0000 
     23 O3'        22.4950   11.1890   42.0730 O.3       1 FMN401      0.0000 
     24 C4'        20.3660   12.2830   41.9960 C.3       1 FMN401      0.0000 
     25 O4'        19.3100   12.7710   41.1310 O.3       1 FMN401      0.0000 
     26 C5'        21.0260   13.4020   42.8020 C.3       1 FMN401      0.0000 
     27 O5'        20.0130   14.0560   43.5570 O.3       1 FMN401      0.0000 
     28 P          19.8210   13.7790   45.1360 P.3       1 FMN401      0.0000 
     29 O1P        18.8640   14.8870   45.5070 O.co2     1 FMN401      0.0000 
     30 O2P        21.2130   13.8790   45.7360 O.co2     1 FMN401      0.0000 
     31 O3P        19.2590   12.3810   45.2420 O.co2     1 FMN401      0.0000 
@<TRIPOS>BOND
     1    1    2 1    
     2    1   18 2    
     3    2    3 2    
     4    2    4 am   
     5    4    5 am   
     6    5    6 2    
     7    5    7 1    
     8    7    8 2    
     9    7   18 1    
    10    8    9 1    
    11    9   10 ar   
    12    9   16 ar   
    13   10   11 ar   
    14   11   12 1    
    15   11   13 ar   
    16   13   14 1    
    17   13   15 ar   
    18   15   16 ar   
    19   16   17 1    
    20   17   18 1    
    21   17   19 1    
    22   19   20 1    
    23   20   21 1    
    24   20   22 1    
    25   22   23 1    
    26   22   24 1    
    27   24   25 1    
    28   24   26 1    
    29   26   27 1    
    30   27   28 1    
    31   28   29 ar   
    32   28   30 ar   
    33   28   31 ar   
@<TRIPOS>SUBSTRUCTURE
     1 FMN401      1 GROUP   
@<TRIPOS>SET
ATOM$ORANGE STATIC     ATOMS   COLORGROUP SYSTEM 
34 2 2 5 5 7 7 9 9 10 10 11 11 12 12 13 13 14 \
14 15 15 16 16 18 18 19 19 20 20 22 22 24 24 26 26 

