#    Name: 5zyr_2_FMN
#    Modification time : Fri May 22 19:32:38 2020

@<TRIPOS>MOLECULE
5zyr_2_FMN
   31    33     1     0     1
SMALL
NO_CHARGES


@<TRIPOS>ATOM
      1 N1         13.5250  -16.9620   35.9200 N.2       1 FMN401      0.0000 
      2 C2         13.8380  -16.4100   37.1210 C.2       1 FMN401      0.0000 
      3 O2         13.7060  -17.1160   38.1380 O.2       1 FMN401      0.0000 
      4 N3         14.3050  -15.1470   37.2700 N.am      1 FMN401      0.0000 
      5 C4         14.4780  -14.3260   36.2230 C.2       1 FMN401      0.0000 
      6 O4         14.8860  -13.1480   36.3710 O.2       1 FMN401      0.0000 
      7 C4A        14.1460  -14.8530   34.8740 C.2       1 FMN401      0.0000 
      8 N5         14.3020  -14.0980   33.7730 N.2       1 FMN401      0.0000 
      9 C5A        14.0210  -14.6050   32.5490 C.ar      1 FMN401      0.0000 
     10 C6         14.2030  -13.7810   31.4430 C.ar      1 FMN401      0.0000 
     11 C7         13.9310  -14.2660   30.1760 C.ar      1 FMN401      0.0000 
     12 C7M        14.1310  -13.3600   28.9860 C.3       1 FMN401      0.0000 
     13 C8         13.4360  -15.6610   30.0010 C.ar      1 FMN401      0.0000 
     14 C8M        13.1410  -16.1460   28.6060 C.3       1 FMN401      0.0000 
     15 C9         13.2570  -16.5040   31.1010 C.ar      1 FMN401      0.0000 
     16 C9A        13.5270  -16.0140   32.3790 C.ar      1 FMN401      0.0000 
     17 N10        13.3440  -16.8180   33.5290 N.pl3     1 FMN401      0.0000 
     18 C10        13.6580  -16.2550   34.7840 C.2       1 FMN401      0.0000 
     19 C1'        12.8550  -18.1950   33.4410 C.3       1 FMN401      0.0000 
     20 C2'        13.9760  -19.1740   33.7430 C.3       1 FMN401      0.0000 
     21 O2'        14.9880  -19.0580   32.7380 O.3       1 FMN401      0.0000 
     22 C3'        13.3990  -20.5820   33.7760 C.3       1 FMN401      0.0000 
     23 O3'        12.4490  -20.6580   34.8370 O.3       1 FMN401      0.0000 
     24 C4'        14.4450  -21.6300   34.0880 C.3       1 FMN401      0.0000 
     25 O4'        15.4480  -21.6620   33.0660 O.3       1 FMN401      0.0000 
     26 C5'        13.7660  -22.9920   34.2410 C.3       1 FMN401      0.0000 
     27 O5'        14.7580  -23.8980   34.7210 O.3       1 FMN401      0.0000 
     28 P          14.8310  -24.2870   36.2890 P.3       1 FMN401      0.0000 
     29 O1P        15.2650  -23.0230   36.9980 O.co2     1 FMN401      0.0000 
     30 O2P        15.8640  -25.3840   36.2030 O.co2     1 FMN401      0.0000 
     31 O3P        13.4280  -24.6770   36.7070 O.co2     1 FMN401      0.0000 
@<TRIPOS>BOND
     1    1    2 1    
     2    1   18 2    
     3    2    3 2    
     4    2    4 am   
     5    4    5 am   
     6    5    6 2    
     7    5    7 1    
     8    7    8 2    
     9    7   18 1    
    10    8    9 1    
    11    9   10 ar   
    12    9   16 ar   
    13   10   11 ar   
    14   11   12 1    
    15   11   13 ar   
    16   13   14 1    
    17   13   15 ar   
    18   15   16 ar   
    19   16   17 1    
    20   17   18 1    
    21   17   19 1    
    22   19   20 1    
    23   20   21 1    
    24   20   22 1    
    25   22   23 1    
    26   22   24 1    
    27   24   25 1    
    28   24   26 1    
    29   26   27 1    
    30   27   28 1    
    31   28   29 ar   
    32   28   30 ar   
    33   28   31 ar   
@<TRIPOS>SUBSTRUCTURE
     1 FMN401      1 GROUP   
@<TRIPOS>SET
ATOM$ORANGE STATIC     ATOMS   COLORGROUP SYSTEM 
34 2 2 5 5 7 7 9 9 10 10 11 11 12 12 13 13 14 \
14 15 15 16 16 18 18 19 19 20 20 22 22 24 24 26 26 

