#    Name: 5zyr_2_FMN_CAVITY_N1_12
#    Modification time : Fri May 22 19:32:40 2020

@<TRIPOS>MOLECULE
5zyr_2_FMN_CAVITY_N1_12
  100     0     6     0     0
SMALL
NO_CHARGES


@<TRIPOS>ATOM
      1 OG         13.9600  -15.7200   28.2000 O.3       1 SER1        0.0000 
      2 OG         13.9700  -13.6900   28.8300 O.3       1 SER1        0.0000 
      3 OG         15.1400  -13.4200   27.9300 O.3       1 SER1        0.0000 
      4 OG         14.6300  -22.8600   36.8300 O.3       1 SER1        0.0000 
      5 O          13.1100  -23.6200   32.1500 O.2       2 ALA2        0.0000 
      6 N          11.2800  -22.6300   32.5800 N.am      2 ALA2        0.0000 
      7 N          10.6200  -21.3700   32.1100 N.am      2 ALA2        0.0000 
      8 N           9.9600  -20.1100   31.6500 N.am      2 ALA2        0.0000 
      9 N          11.1200  -19.8300   30.7400 N.am      2 ALA2        0.0000 
     10 N          13.7800  -22.8500   33.2500 N.am      2 ALA2        0.0000 
     11 N          11.9600  -21.8700   33.6900 N.am      2 ALA2        0.0000 
     12 N          13.1200  -21.5900   32.7800 N.am      2 ALA2        0.0000 
     13 N          11.2900  -20.6100   33.2200 N.am      2 ALA2        0.0000 
     14 N          12.4600  -20.3300   32.3100 N.am      2 ALA2        0.0000 
     15 N          11.7900  -19.0700   31.8400 N.am      2 ALA2        0.0000 
     16 N          12.9600  -18.7900   30.9400 N.am      2 ALA2        0.0000 
     17 N          13.7900  -20.8300   33.8800 N.am      2 ALA2        0.0000 
     18 N          14.9600  -20.5500   32.9800 N.am      2 ALA2        0.0000 
     19 N          13.1300  -19.5700   33.4200 N.am      2 ALA2        0.0000 
     20 N          13.6300  -18.0300   32.0400 N.am      2 ALA2        0.0000 
     21 N          13.8000  -18.8000   34.5200 N.am      2 ALA2        0.0000 
     22 N          13.1400  -17.5400   34.0500 N.am      2 ALA2        0.0000 
     23 N          13.6400  -16.0100   32.6800 N.am      2 ALA2        0.0000 
     24 N          14.1500  -14.4700   31.3000 N.am      2 ALA2        0.0000 
     25 N          13.8100  -16.7800   35.1500 N.am      2 ALA2        0.0000 
     26 N          13.1500  -15.5200   34.6800 N.am      2 ALA2        0.0000 
     27 N          14.3200  -15.2400   33.7800 N.am      2 ALA2        0.0000 
     28 N          13.6500  -13.9800   33.3100 N.am      2 ALA2        0.0000 
     29 O          14.8200  -13.7000   32.4100 O.2       2 ALA2        0.0000 
     30 N          11.8300  -13.0000   33.7400 N.am      2 ALA2        0.0000 
     31 N          13.3200  -16.2900   37.1600 N.am      2 ALA2        0.0000 
     32 N          14.4900  -16.0200   36.2500 N.am      2 ALA2        0.0000 
     33 N          13.1600  -13.4900   35.3200 N.am      2 ALA2        0.0000 
     34 O          14.3300  -13.2200   34.4100 O.2       2 ALA2        0.0000 
     35 OD1         9.9500  -22.1300   31.0100 O.co2     3 ASP3        0.0000 
     36 OD1         9.2800  -20.8700   30.5400 O.co2     3 ASP3        0.0000 
     37 OD1        12.6200  -23.1300   34.1500 O.co2     3 ASP3        0.0000 
     38 OD1        10.7900  -22.1500   34.5900 O.co2     3 ASP3        0.0000 
     39 OD1        10.6300  -19.3500   32.7500 O.co2     3 ASP3        0.0000 
     40 OD1         9.9700  -18.0900   32.2800 O.co2     3 ASP3        0.0000 
     41 OD1        11.1300  -17.8100   31.3800 O.co2     3 ASP3        0.0000 
     42 OD1        12.3000  -17.5300   30.4700 O.co2     3 ASP3        0.0000 
     43 OD1        11.6300  -16.2700   30.0000 O.co2     3 ASP3        0.0000 
     44 OD1        12.7900  -23.9000   36.6300 O.co2     3 ASP3        0.0000 
     45 OD1        13.9500  -23.6300   35.7300 O.co2     3 ASP3        0.0000 
     46 OD1        15.1200  -23.3500   34.8200 O.co2     3 ASP3        0.0000 
     47 OD1        10.9600  -22.9200   37.0600 O.co2     3 ASP3        0.0000 
     48 OD1        12.1300  -22.6400   36.1600 O.co2     3 ASP3        0.0000 
     49 OD1        14.4600  -22.0900   34.3500 O.co2     3 ASP3        0.0000 
     50 OD1        15.6200  -21.8100   33.4500 O.co2     3 ASP3        0.0000 
     51 OD1        11.3000  -18.5800   33.8500 O.co2     3 ASP3        0.0000 
     52 OD1        12.4700  -18.3100   32.9500 O.co2     3 ASP3        0.0000 
     53 OD1        12.9700  -16.7700   31.5700 O.co2     3 ASP3        0.0000 
     54 OD1        12.3100  -15.5100   31.1100 O.co2     3 ASP3        0.0000 
     55 OD1        13.4700  -15.2300   30.2000 O.co2     3 ASP3        0.0000 
     56 OD1        12.8100  -13.9700   29.7300 O.co2     3 ASP3        0.0000 
     57 OD1        11.3100  -16.5600   34.4800 O.co2     3 ASP3        0.0000 
     58 OD1        12.4800  -16.2800   33.5800 O.co2     3 ASP3        0.0000 
     59 OD1        12.9800  -14.7400   32.2100 O.co2     3 ASP3        0.0000 
     60 OD1        13.4800  -13.2100   30.8400 O.co2     3 ASP3        0.0000 
     61 OD1        12.4900  -14.2600   34.2100 O.co2     3 ASP3        0.0000 
     62 CZ         13.3100  -12.4300   28.3600 C.ar      4 PHE5        0.0000 
     63 CA          7.4600  -19.8900   30.9800 C.3       5 GLY6        0.0000 
     64 CA         11.9500  -23.8900   33.0500 C.3       5 GLY6        0.0000 
     65 CA          8.1300  -19.1300   32.0800 C.3       5 GLY6        0.0000 
     66 CA          9.2900  -18.8500   31.1800 C.3       5 GLY6        0.0000 
     67 CA         10.4600  -18.5700   30.2700 C.3       5 GLY6        0.0000 
     68 CA         12.7900  -18.0200   28.4700 C.3       5 GLY6        0.0000 
     69 CA         10.9600  -17.0300   28.9000 C.3       5 GLY6        0.0000 
     70 CA         12.1300  -16.7600   28.0000 C.3       5 GLY6        0.0000 
     71 CA         14.4500  -24.1100   33.7200 C.3       5 GLY6        0.0000 
     72 CA         14.9500  -22.5800   32.3500 C.3       5 GLY6        0.0000 
     73 CA         13.4600  -17.2600   29.5700 C.3       5 GLY6        0.0000 
     74 CA         14.6300  -16.9800   28.6700 C.3       5 GLY6        0.0000 
     75 CA         12.8000  -15.9900   29.1000 C.3       5 GLY6        0.0000 
     76 CA         12.1400  -14.7300   28.6300 C.3       5 GLY6        0.0000 
     77 CA         13.3000  -14.4600   27.7300 C.3       5 GLY6        0.0000 
     78 CA         14.6200  -24.8900   36.1900 C.3       5 GLY6        0.0000 
     79 CA         14.3000  -19.2900   32.5100 C.3       5 GLY6        0.0000 
     80 CA         14.8000  -17.7500   31.1400 C.3       5 GLY6        0.0000 
     81 CA         14.1400  -16.4900   30.6700 C.3       5 GLY6        0.0000 
     82 CA         14.6400  -14.9500   29.3000 C.3       5 GLY6        0.0000 
     83 CA         15.8000  -14.6800   28.4000 C.3       5 GLY6        0.0000 
     84 CA         15.1300  -21.3300   35.4600 C.3       5 GLY6        0.0000 
     85 CA         14.4700  -20.0700   34.9900 C.3       5 GLY6        0.0000 
     86 CA         15.3100  -14.1900   30.4000 C.3       5 GLY6        0.0000 
     87 CA         14.6500  -12.9300   29.9300 C.3       5 GLY6        0.0000 
     88 CA         15.8100  -12.6500   29.0300 C.3       5 GLY6        0.0000 
     89 CA         14.4800  -18.0400   35.6200 C.3       5 GLY6        0.0000 
     90 CA         13.8200  -14.7600   35.7800 C.3       5 GLY6        0.0000 
     91 CA         14.9900  -14.4800   34.8800 C.3       5 GLY6        0.0000 
     92 DU          8.7900  -20.3900   32.5500 H         6 CUB7        0.0000 
     93 DU          9.4600  -19.6200   33.6500 H         6 CUB7        0.0000 
     94 DU         13.2900  -22.3700   35.2600 H         6 CUB7        0.0000 
     95 DU         11.4600  -21.3800   35.6900 H         6 CUB7        0.0000 
     96 DU         12.6300  -21.1100   34.7900 H         6 CUB7        0.0000 
     97 DU         11.9700  -19.8400   34.3200 H         6 CUB7        0.0000 
     98 DU         10.8100  -18.1000   35.8600 H         6 CUB7        0.0000 
     99 DU         11.9800  -17.8200   34.9500 H         6 CUB7        0.0000 
    100 DU         12.6500  -17.0600   36.0500 H         6 CUB7        0.0000 
@<TRIPOS>BOND
@<TRIPOS>SUBSTRUCTURE
     1 SER1        1 GROUP   
     2 ALA2        5 GROUP   
     3 ASP3       35 GROUP   
     4 PHE5       62 GROUP   
     5 GLY6       63 GROUP   
     6 CUB7       92 GROUP   
@<TRIPOS>SET

