#    Name: 5zyr_1_FMN_CAVITY_N1_8
#    Modification time : Fri May 22 19:32:31 2020

@<TRIPOS>MOLECULE
5zyr_1_FMN_CAVITY_N1_8
   88     0     6     0     0
SMALL
NO_CHARGES


@<TRIPOS>ATOM
      1 OG         20.0800    9.1900   33.7500 O.3       1 SER1        0.0000 
      2 OG         20.1200   11.4000   44.4500 O.3       1 SER1        0.0000 
      3 OG         18.2900   12.3800   44.8800 O.3       1 SER1        0.0000 
      4 OG         20.8000   12.1600   45.5500 O.3       1 SER1        0.0000 
      5 OG         18.9700   13.1500   45.9800 O.3       1 SER1        0.0000 
      6 OG         20.1300   13.4200   45.0800 O.3       1 SER1        0.0000 
      7 OG         18.3000   14.4100   45.5100 O.3       1 SER1        0.0000 
      8 O          20.2400    6.3900   35.5900 O.2       2 ALA2        0.0000 
      9 O          19.9100    4.0800   39.4400 O.2       2 ALA2        0.0000 
     10 O          20.4100    5.6100   38.0700 O.2       2 ALA2        0.0000 
     11 N          21.5800    5.8900   37.1600 N.am      2 ALA2        0.0000 
     12 N          19.7500    6.8700   37.6000 N.am      2 ALA2        0.0000 
     13 N          20.9200    7.1500   36.7000 N.am      2 ALA2        0.0000 
     14 N          21.7500    5.1200   39.6400 N.am      2 ALA2        0.0000 
     15 N          19.9200    6.1000   40.0700 N.am      2 ALA2        0.0000 
     16 N          21.0900    6.3800   39.1700 N.am      2 ALA2        0.0000 
     17 N          20.9300    9.1800   37.3300 N.am      2 ALA2        0.0000 
     18 N          21.2600    5.6000   41.6400 N.am      2 ALA2        0.0000 
     19 N          20.5900    6.8600   41.1800 N.am      2 ALA2        0.0000 
     20 N          21.1000    8.4000   39.8000 N.am      2 ALA2        0.0000 
     21 N          21.7700    9.1600   40.9100 N.am      2 ALA2        0.0000 
     22 N          21.1100   10.4300   40.4400 N.am      2 ALA2        0.0000 
     23 N          22.2700   10.7000   39.5300 N.am      2 ALA2        0.0000 
     24 N          20.4400   11.6900   39.9700 N.am      2 ALA2        0.0000 
     25 N          21.7800   11.1900   41.5400 N.am      2 ALA2        0.0000 
     26 N          22.9400   11.4700   40.6400 N.am      2 ALA2        0.0000 
     27 N          24.1100   11.7400   39.7300 N.am      2 ALA2        0.0000 
     28 N          21.1200   12.4500   41.0700 N.am      2 ALA2        0.0000 
     29 N          23.6200   12.2300   41.7400 N.am      2 ALA2        0.0000 
     30 N          21.7900   13.2100   42.1700 N.am      2 ALA2        0.0000 
     31 N          22.9500   13.4900   41.2700 N.am      2 ALA2        0.0000 
     32 O          21.1300   14.4700   41.7000 O.2       2 ALA2        0.0000 
     33 O          21.4700   12.9300   46.6500 O.2       2 ALA2        0.0000 
     34 OD1        22.0800    7.4300   35.7900 O.co2     3 ASP3        0.0000 
     35 OD1        22.2500    6.6500   38.2700 O.co2     3 ASP3        0.0000 
     36 OD1        21.5900    7.9100   37.8000 O.co2     3 ASP3        0.0000 
     37 OD1        22.0900    9.4500   36.4300 O.co2     3 ASP3        0.0000 
     38 OD1        23.2600    9.7300   35.5200 O.co2     3 ASP3        0.0000 
     39 OD1        21.7600    7.1400   40.2700 O.co2     3 ASP3        0.0000 
     40 OD1        22.2600    8.6800   38.9000 O.co2     3 ASP3        0.0000 
     41 OD1        22.4300    7.9000   41.3700 O.co2     3 ASP3        0.0000 
     42 OD1        23.6000    8.1800   40.4700 O.co2     3 ASP3        0.0000 
     43 OD1        22.9300    9.4400   40.0000 O.co2     3 ASP3        0.0000 
     44 OD1        24.1000    9.7200   39.1000 O.co2     3 ASP3        0.0000 
     45 OD1        19.9500   12.1700   41.9700 O.co2     3 ASP3        0.0000 
     46 OD1        19.2900   13.4300   41.5000 O.co2     3 ASP3        0.0000 
     47 OD1        19.4600   12.6600   43.9800 O.co2     3 ASP3        0.0000 
     48 OD1        20.6200   12.9400   43.0700 O.co2     3 ASP3        0.0000 
     49 OD1        17.6300   13.6400   44.4100 O.co2     3 ASP3        0.0000 
     50 OD1        19.9600   14.2000   42.6100 O.co2     3 ASP3        0.0000 
     51 OD1        19.4700   14.6800   44.6100 O.co2     3 ASP3        0.0000 
     52 OD1        22.6300   13.2000   45.7500 O.co2     3 ASP3        0.0000 
     53 OD1        23.8000   13.4800   44.8400 O.co2     3 ASP3        0.0000 
     54 OD1        20.8100   14.1900   46.1800 O.co2     3 ASP3        0.0000 
     55 CZ         20.7300    5.9000   33.5900 C.ar      4 PHE5        0.0000 
     56 CZ         20.0700    7.1600   33.1200 C.ar      4 PHE5        0.0000 
     57 CZ         21.4100    6.6600   34.6900 C.ar      4 PHE5        0.0000 
     58 CA         19.5700    5.6200   34.4900 C.3       5 GLY6        0.0000 
     59 CA         18.9100    6.8900   34.0200 C.3       5 GLY6        0.0000 
     60 CA         19.5800    7.6500   35.1300 C.3       5 GLY6        0.0000 
     61 CA         20.7400    7.9300   34.2200 C.3       5 GLY6        0.0000 
     62 CA         21.9100    8.2000   33.3200 C.3       5 GLY6        0.0000 
     63 CA         20.2500    8.4100   36.2300 C.3       5 GLY6        0.0000 
     64 CA         21.4200    8.6900   35.3200 C.3       5 GLY6        0.0000 
     65 CA         22.5800    8.9700   34.4200 C.3       5 GLY6        0.0000 
     66 CA         20.7500    9.9500   34.8600 C.3       5 GLY6        0.0000 
     67 CA         21.9200   10.2300   33.9500 C.3       5 GLY6        0.0000 
     68 CA         20.5800    4.8400   40.5400 C.3       5 GLY6        0.0000 
     69 CA         21.6000    9.9400   38.4300 C.3       5 GLY6        0.0000 
     70 CA         22.7600   10.2200   37.5300 C.3       5 GLY6        0.0000 
     71 CA         19.9400   10.1500   41.3400 C.3       5 GLY6        0.0000 
     72 CA         23.4400   10.9800   38.6300 C.3       5 GLY6        0.0000 
     73 CA         19.2800   11.4100   40.8700 C.3       5 GLY6        0.0000 
     74 CA         24.7700   10.4800   40.2000 C.3       5 GLY6        0.0000 
     75 CA         19.4500   10.6400   43.3500 C.3       5 GLY6        0.0000 
     76 CA         20.6100   10.9100   42.4400 C.3       5 GLY6        0.0000 
     77 CA         18.7900   11.9000   42.8800 C.3       5 GLY6        0.0000 
     78 CA         21.3000   13.7000   44.1800 C.3       5 GLY6        0.0000 
     79 CA         22.4600   13.9800   43.2700 C.3       5 GLY6        0.0000 
     80 CA         23.3000   11.9400   46.2200 C.3       5 GLY6        0.0000 
     81 CA         24.3000   15.0200   43.4700 C.3       5 GLY6        0.0000 
     82 DU         23.6100   10.2000   41.1000 H         6 CUB7        0.0000 
     83 DU         21.2900   11.6800   43.5400 H         6 CUB7        0.0000 
     84 DU         22.4500   11.9500   42.6400 H         6 CUB7        0.0000 
     85 DU         21.9600   12.4400   44.6500 H         6 CUB7        0.0000 
     86 DU         23.1300   12.7200   43.7400 H         6 CUB7        0.0000 
     87 DU         24.2900   12.9900   42.8400 H         6 CUB7        0.0000 
     88 DU         24.7900   14.5300   41.4700 H         6 CUB7        0.0000 
@<TRIPOS>BOND
@<TRIPOS>SUBSTRUCTURE
     1 SER1        1 GROUP   
     2 ALA2        8 GROUP   
     3 ASP3       34 GROUP   
     4 PHE5       55 GROUP   
     5 GLY6       58 GROUP   
     6 CUB7       82 GROUP   
@<TRIPOS>SET

