#    Name: 6ebk_2_NAP
#    Modification time : Fri May 22 19:24:53 2020

@<TRIPOS>MOLECULE
6ebk_2_NAP
   48    52     1     0     1
SMALL
NO_CHARGES


@<TRIPOS>ATOM
      1 PA        123.4420  144.7950  232.4340 P.3       1 NAP1001     0.0000 
      2 O1A       122.7610  144.6320  231.1550 O.co2     1 NAP1001     0.0000 
      3 O2A       125.0290  144.8640  232.5510 O.co2     1 NAP1001     0.0000 
      4 O5B       122.5760  145.4530  233.6800 O.3       1 NAP1001     0.0000 
      5 C5B       122.5810  144.5900  234.8410 C.3       1 NAP1001     0.0000 
      6 C4B       121.6450  145.1970  235.9060 C.3       1 NAP1001     0.0000 
      7 O4B       120.3300  144.6390  235.4790 O.3       1 NAP1001     0.0000 
      8 C3B       121.7920  144.6320  237.3200 C.3       1 NAP1001     0.0000 
      9 O3B       122.0100  145.7020  238.2240 O.3       1 NAP1001     0.0000 
     10 C2B       120.5540  143.7980  237.7030 C.3       1 NAP1001     0.0000 
     11 O2B       119.7160  144.1180  238.8940 O.3       1 NAP1001     0.0000 
     12 C1B       119.8310  143.5830  236.3930 C.3       1 NAP1001     0.0000 
     13 N9A       120.1720  142.1400  236.1080 N.pl3     1 NAP1001     0.0000 
     14 C8A       121.3460  141.5940  235.6220 C.2       1 NAP1001     0.0000 
     15 N7A       121.2700  140.2940  235.5360 N.2       1 NAP1001     0.0000 
     16 C5A       120.0570  139.8940  235.9580 C.ar      1 NAP1001     0.0000 
     17 C6A       119.4000  138.6330  236.1050 C.ar      1 NAP1001     0.0000 
     18 N6A       120.0340  137.4520  235.7760 N.pl3     1 NAP1001     0.0000 
     19 N1A       118.1450  138.6130  236.5750 N.ar      1 NAP1001     0.0000 
     20 C2A       117.4990  139.7320  236.9100 C.ar      1 NAP1001     0.0000 
     21 N3A       118.0690  140.9370  236.7980 N.ar      1 NAP1001     0.0000 
     22 C4A       119.3270  141.0710  236.3320 C.ar      1 NAP1001     0.0000 
     23 O3        123.3950  146.3120  231.8000 O.3       1 NAP1001     0.0000 
     24 PN        124.5360  147.3570  232.6050 P.3       1 NAP1001     0.0000 
     25 O1N       124.5560  147.2350  234.1500 O.co2     1 NAP1001     0.0000 
     26 O2N       124.1560  148.7970  232.2400 O.co2     1 NAP1001     0.0000 
     27 O5D       126.0350  147.0640  232.1520 O.3       1 NAP1001     0.0000 
     28 C5D       126.7250  147.9400  232.9990 C.3       1 NAP1001     0.0000 
     29 C4D       128.2090  147.8820  232.8720 C.3       1 NAP1001     0.0000 
     30 O4D       128.6930  148.2280  231.5490 O.3       1 NAP1001     0.0000 
     31 C3D       128.7860  148.8430  233.9050 C.3       1 NAP1001     0.0000 
     32 O3D       129.3450  148.1170  234.9430 O.3       1 NAP1001     0.0000 
     33 C2D       129.7560  149.7240  233.1320 C.3       1 NAP1001     0.0000 
     34 O2D       131.0910  149.5560  233.6130 O.3       1 NAP1001     0.0000 
     35 C1D       129.6100  149.3660  231.6420 C.3       1 NAP1001     0.0000 
     36 N1N       129.0540  150.6020  230.9880 N.pl3     1 NAP1001     0.0000 
     37 C2N       129.8450  151.3360  230.1750 C.ar      1 NAP1001     0.0000 
     38 C3N       129.3400  152.5370  229.5690 C.ar      1 NAP1001     0.0000 
     39 C7N       130.1730  153.3570  228.6730 C.2       1 NAP1001     0.0000 
     40 O7N       131.3010  153.0270  228.4140 O.2       1 NAP1001     0.0000 
     41 N7N       129.6840  154.4720  228.1430 N.am      1 NAP1001     0.0000 
     42 C4N       127.9960  152.9360  229.8500 C.ar      1 NAP1001     0.0000 
     43 C5N       127.2050  152.1420  230.6920 C.ar      1 NAP1001     0.0000 
     44 C6N       127.7620  150.9830  231.2480 C.ar      1 NAP1001     0.0000 
     45 P2B       118.6910  145.3630  238.8530 P.3       1 NAP1001     0.0000 
     46 O1X       117.6890  145.2190  237.7890 O.co2     1 NAP1001     0.0000 
     47 O2X       117.9710  145.4160  240.2480 O.co2     1 NAP1001     0.0000 
     48 O3X       119.4600  146.7390  238.6820 O.co2     1 NAP1001     0.0000 
@<TRIPOS>BOND
     1    1    2 ar   
     2    1    3 ar   
     3    1    4 1    
     4    1   23 1    
     5    4    5 1    
     6    5    6 1    
     7    6    7 1    
     8    6    8 1    
     9    7   12 1    
    10    8    9 1    
    11    8   10 1    
    12   10   11 1    
    13   10   12 1    
    14   11   45 1    
    15   12   13 1    
    16   13   14 1    
    17   13   22 1    
    18   14   15 2    
    19   15   16 1    
    20   16   17 ar   
    21   16   22 ar   
    22   17   18 1    
    23   17   19 ar   
    24   19   20 ar   
    25   20   21 ar   
    26   21   22 ar   
    27   23   24 1    
    28   24   25 ar   
    29   24   26 ar   
    30   24   27 1    
    31   27   28 1    
    32   28   29 1    
    33   29   30 1    
    34   29   31 1    
    35   30   35 1    
    36   31   32 1    
    37   31   33 1    
    38   33   34 1    
    39   33   35 1    
    40   35   36 1    
    41   36   37 ar   
    42   36   44 ar   
    43   37   38 ar   
    44   38   39 1    
    45   38   42 ar   
    46   39   40 2    
    47   39   41 am   
    48   42   43 ar   
    49   43   44 ar   
    50   45   46 ar   
    51   45   47 ar   
    52   45   48 ar   
@<TRIPOS>SUBSTRUCTURE
     1 NAP1001     1 GROUP   
@<TRIPOS>SET
ATOM$ORANGE STATIC     ATOMS   COLORGROUP SYSTEM 
42 5 5 6 6 8 8 10 10 12 12 14 14 16 16 17 17 20 \
20 22 22 28 28 29 29 31 31 33 33 35 35 37 37 38 38 39 \
39 42 42 43 43 44 44 

