#    Name: 6ebk_4_NAP
#    Modification time : Fri May 22 19:25:00 2020

@<TRIPOS>MOLECULE
6ebk_4_NAP
   48    52     1     0     1
SMALL
NO_CHARGES


@<TRIPOS>ATOM
      1 PA        197.1980  175.8470  232.4350 P.3       1 NAP1001     0.0000 
      2 O1A       197.8790  176.0100  231.1560 O.co2     1 NAP1001     0.0000 
      3 O2A       195.6120  175.7780  232.5520 O.co2     1 NAP1001     0.0000 
      4 O5B       198.0650  175.1890  233.6800 O.3       1 NAP1001     0.0000 
      5 C5B       198.0590  176.0520  234.8420 C.3       1 NAP1001     0.0000 
      6 C4B       198.9960  175.4460  235.9070 C.3       1 NAP1001     0.0000 
      7 O4B       200.3100  176.0030  235.4800 O.3       1 NAP1001     0.0000 
      8 C3B       198.8490  176.0100  237.3210 C.3       1 NAP1001     0.0000 
      9 O3B       198.6300  174.9410  238.2250 O.3       1 NAP1001     0.0000 
     10 C2B       200.0870  176.8450  237.7030 C.3       1 NAP1001     0.0000 
     11 O2B       200.9240  176.5240  238.8930 O.3       1 NAP1001     0.0000 
     12 C1B       200.8100  177.0590  236.3930 C.3       1 NAP1001     0.0000 
     13 N9A       200.4680  178.5020  236.1090 N.pl3     1 NAP1001     0.0000 
     14 C8A       199.2940  179.0480  235.6230 C.2       1 NAP1001     0.0000 
     15 N7A       199.3700  180.3490  235.5360 N.2       1 NAP1001     0.0000 
     16 C5A       200.5830  180.7480  235.9590 C.ar      1 NAP1001     0.0000 
     17 C6A       201.2410  182.0090  236.1060 C.ar      1 NAP1001     0.0000 
     18 N6A       200.6070  183.1910  235.7770 N.pl3     1 NAP1001     0.0000 
     19 N1A       202.4960  182.0290  236.5760 N.ar      1 NAP1001     0.0000 
     20 C2A       203.1400  180.9100  236.9110 C.ar      1 NAP1001     0.0000 
     21 N3A       202.5720  179.7060  236.7990 N.ar      1 NAP1001     0.0000 
     22 C4A       201.3140  179.5730  236.3320 C.ar      1 NAP1001     0.0000 
     23 O3        197.2460  174.3300  231.8000 O.3       1 NAP1001     0.0000 
     24 PN        196.1040  173.2860  232.6050 P.3       1 NAP1001     0.0000 
     25 O1N       196.0850  173.4080  234.1510 O.co2     1 NAP1001     0.0000 
     26 O2N       196.4850  171.8460  232.2410 O.co2     1 NAP1001     0.0000 
     27 O5D       194.6060  173.5780  232.1520 O.3       1 NAP1001     0.0000 
     28 C5D       193.9160  172.7020  233.0000 C.3       1 NAP1001     0.0000 
     29 C4D       192.4320  172.7600  232.8730 C.3       1 NAP1001     0.0000 
     30 O4D       191.9470  172.4140  231.5490 O.3       1 NAP1001     0.0000 
     31 C3D       191.8550  171.7990  233.9050 C.3       1 NAP1001     0.0000 
     32 O3D       191.2950  172.5250  234.9430 O.3       1 NAP1001     0.0000 
     33 C2D       190.8850  170.9180  233.1320 C.3       1 NAP1001     0.0000 
     34 O2D       189.5490  171.0860  233.6130 O.3       1 NAP1001     0.0000 
     35 C1D       191.0310  171.2760  231.6420 C.3       1 NAP1001     0.0000 
     36 N1N       191.5860  170.0400  230.9880 N.pl3     1 NAP1001     0.0000 
     37 C2N       190.7950  169.3060  230.1750 C.ar      1 NAP1001     0.0000 
     38 C3N       191.3020  168.1060  229.5690 C.ar      1 NAP1001     0.0000 
     39 C7N       190.4670  167.2850  228.6740 C.2       1 NAP1001     0.0000 
     40 O7N       189.3400  167.6140  228.4140 O.2       1 NAP1001     0.0000 
     41 N7N       190.9560  166.1700  228.1440 N.am      1 NAP1001     0.0000 
     42 C4N       192.6450  167.7070  229.8500 C.ar      1 NAP1001     0.0000 
     43 C5N       193.4360  168.4990  230.6930 C.ar      1 NAP1001     0.0000 
     44 C6N       192.8780  169.6600  231.2490 C.ar      1 NAP1001     0.0000 
     45 P2B       201.9500  175.2800  238.8520 P.3       1 NAP1001     0.0000 
     46 O1X       202.9520  175.4230  237.7880 O.co2     1 NAP1001     0.0000 
     47 O2X       202.6690  175.2270  240.2480 O.co2     1 NAP1001     0.0000 
     48 O3X       201.1810  173.9030  238.6820 O.co2     1 NAP1001     0.0000 
@<TRIPOS>BOND
     1    1    2 ar   
     2    1    3 ar   
     3    1    4 1    
     4    1   23 1    
     5    4    5 1    
     6    5    6 1    
     7    6    7 1    
     8    6    8 1    
     9    7   12 1    
    10    8    9 1    
    11    8   10 1    
    12   10   11 1    
    13   10   12 1    
    14   11   45 1    
    15   12   13 1    
    16   13   14 1    
    17   13   22 1    
    18   14   15 2    
    19   15   16 1    
    20   16   17 ar   
    21   16   22 ar   
    22   17   18 1    
    23   17   19 ar   
    24   19   20 ar   
    25   20   21 ar   
    26   21   22 ar   
    27   23   24 1    
    28   24   25 ar   
    29   24   26 ar   
    30   24   27 1    
    31   27   28 1    
    32   28   29 1    
    33   29   30 1    
    34   29   31 1    
    35   30   35 1    
    36   31   32 1    
    37   31   33 1    
    38   33   34 1    
    39   33   35 1    
    40   35   36 1    
    41   36   37 ar   
    42   36   44 ar   
    43   37   38 ar   
    44   38   39 1    
    45   38   42 ar   
    46   39   40 2    
    47   39   41 am   
    48   42   43 ar   
    49   43   44 ar   
    50   45   46 ar   
    51   45   47 ar   
    52   45   48 ar   
@<TRIPOS>SUBSTRUCTURE
     1 NAP1001     1 GROUP   
@<TRIPOS>SET
ATOM$ORANGE STATIC     ATOMS   COLORGROUP SYSTEM 
42 5 5 6 6 8 8 10 10 12 12 14 14 16 16 17 17 20 \
20 22 22 28 28 29 29 31 31 33 33 35 35 37 37 38 38 39 \
39 42 42 43 43 44 44 

