#    Name: 6ebk_4_NAP_CAVITY_N1_12
#    Modification time : Fri May 22 19:25:03 2020

@<TRIPOS>MOLECULE
6ebk_4_NAP_CAVITY_N1_12
   73     0     6     0     0
SMALL
NO_CHARGES


@<TRIPOS>ATOM
      1 OG        199.6500  176.3100  239.0300 O.3       1 SER1        0.0000 
      2 OG        200.8700  175.4400  238.9400 O.3       1 SER1        0.0000 
      3 OG        202.4000  177.3400  241.2400 O.3       1 SER1        0.0000 
      4 O         198.9700  176.0000  232.8900 O.2       2 ALA2        0.0000 
      5 N         198.1200  177.2300  234.3900 N.am      2 ALA2        0.0000 
      6 N         197.3300  176.0700  234.9100 N.am      2 ALA2        0.0000 
      7 O         199.3400  176.3700  234.3000 O.2       2 ALA2        0.0000 
      8 O         199.6400  181.9700  234.3500 O.2       2 ALA2        0.0000 
      9 N         198.8500  180.8000  234.8700 N.am      2 ALA2        0.0000 
     10 N         198.0600  179.6400  235.3800 N.am      2 ALA2        0.0000 
     11 N         198.4900  177.6000  235.8000 N.am      2 ALA2        0.0000 
     12 N         199.7100  176.7300  235.7100 N.am      2 ALA2        0.0000 
     13 O         200.0100  182.3400  235.7600 O.2       2 ALA2        0.0000 
     14 N         199.2200  181.1700  236.2700 N.am      2 ALA2        0.0000 
     15 N         198.4300  180.0100  236.7800 N.am      2 ALA2        0.0000 
     16 N         199.6500  179.1400  236.6900 N.am      2 ALA2        0.0000 
     17 N         198.8500  177.9700  237.2100 N.am      2 ALA2        0.0000 
     18 N         198.0600  176.8000  237.7200 N.am      2 ALA2        0.0000 
     19 O         201.6600  179.4400  236.0900 O.2       2 ALA2        0.0000 
     20 O         200.8700  178.2700  236.6000 O.2       2 ALA2        0.0000 
     21 N         200.0700  177.1000  237.1100 N.am      2 ALA2        0.0000 
     22 O         202.8200  180.9700  236.9800 O.2       2 ALA2        0.0000 
     23 N         205.6200  182.4400  235.8600 N.am      2 ALA2        0.0000 
     24 O         202.0900  174.5700  238.8500 O.2       2 ALA2        0.0000 
     25 O         203.1900  181.3400  238.3900 O.2       2 ALA2        0.0000 
     26 O         202.0300  176.9700  239.8300 O.2       2 ALA2        0.0000 
     27 O         203.5500  181.7100  239.7900 O.2       2 ALA2        0.0000 
     28 N         203.6200  176.4700  241.1500 N.am      2 ALA2        0.0000 
     29 N         204.7800  178.0100  242.0400 N.am      2 ALA2        0.0000 
     30 N         206.0000  177.1400  241.9500 N.am      2 ALA2        0.0000 
     31 OD1       198.5500  175.2000  234.8100 O.co2     3 ASP3        0.0000 
     32 OD1       198.9100  175.5700  236.2200 O.co2     3 ASP3        0.0000 
     33 OD1       199.2800  175.9400  237.6300 O.co2     3 ASP3        0.0000 
     34 OD1       202.0900  177.4000  236.5100 O.co2     3 ASP3        0.0000 
     35 OD1       201.2900  176.2400  237.0200 O.co2     3 ASP3        0.0000 
     36 OD1       200.5000  175.0700  237.5300 O.co2     3 ASP3        0.0000 
     37 OD1       202.5100  175.3700  236.9300 O.co2     3 ASP3        0.0000 
     38 OD1       201.6600  176.6000  238.4300 O.co2     3 ASP3        0.0000 
     39 OD1       203.2500  176.1000  239.7400 O.co2     3 ASP3        0.0000 
     40 OD1       204.4100  177.6400  240.6400 O.co2     3 ASP3        0.0000 
     41 OD1       205.6300  176.7700  240.5400 O.co2     3 ASP3        0.0000 
     42 NZ        200.8000  183.5100  235.2500 N.4       4 LYS4        0.0000 
     43 NZ        203.1800  184.1700  236.0500 N.4       4 LYS4        0.0000 
     44 NZ        202.3900  183.0100  236.5600 N.4       4 LYS4        0.0000 
     45 NZ        203.5500  184.5400  237.4500 N.4       4 LYS4        0.0000 
     46 NZ        202.7600  183.3700  237.9700 N.4       4 LYS4        0.0000 
     47 NZ        203.1200  183.7400  239.3700 N.4       4 LYS4        0.0000 
     48 CA        196.5900  175.3300  232.0900 C.3       5 GLY6        0.0000 
     49 CA        197.7500  176.8700  232.9900 C.3       5 GLY6        0.0000 
     50 CA        196.9600  175.7000  233.5000 C.3       5 GLY6        0.0000 
     51 CA        198.1800  174.8300  233.4100 C.3       5 GLY6        0.0000 
     52 CA        200.1300  177.5300  233.7900 C.3       5 GLY6        0.0000 
     53 CA        199.7700  174.3300  234.7200 C.3       5 GLY6        0.0000 
     54 CA        200.8600  181.1000  234.2600 C.3       5 GLY6        0.0000 
     55 CA        200.0700  179.9400  234.7700 C.3       5 GLY6        0.0000 
     56 CA        199.2800  178.7700  235.2900 C.3       5 GLY6        0.0000 
     57 CA        201.2900  179.0700  234.6800 C.3       5 GLY6        0.0000 
     58 CA        200.5000  177.9000  235.1900 C.3       5 GLY6        0.0000 
     59 CA        201.7200  177.0300  235.1000 C.3       5 GLY6        0.0000 
     60 CA        200.9300  175.8700  235.6100 C.3       5 GLY6        0.0000 
     61 CA        202.0200  182.6400  235.1500 C.3       5 GLY6        0.0000 
     62 CA        201.2300  181.4700  235.6700 C.3       5 GLY6        0.0000 
     63 CA        200.4400  180.3000  236.1800 C.3       5 GLY6        0.0000 
     64 CA        203.2400  181.7700  235.0600 C.3       5 GLY6        0.0000 
     65 CA        202.4500  180.6000  235.5700 C.3       5 GLY6        0.0000 
     66 CA        201.7200  174.2000  237.4400 C.3       5 GLY6        0.0000 
     67 CA        200.3800  182.7100  237.1700 C.3       5 GLY6        0.0000 
     68 CA        201.6000  181.8400  237.0700 C.3       5 GLY6        0.0000 
     69 CA        203.6100  182.1400  236.4700 C.3       5 GLY6        0.0000 
     70 CA        204.8300  181.2700  236.3800 C.3       5 GLY6        0.0000 
     71 CA        204.4100  180.4700  238.3000 C.3       5 GLY6        0.0000 
     72 DU        204.4000  183.3000  235.9600 H         6 CUB7        0.0000 
     73 DU        203.9800  182.5100  237.8800 H         6 CUB7        0.0000 
@<TRIPOS>BOND
@<TRIPOS>SUBSTRUCTURE
     1 SER1        1 GROUP   
     2 ALA2        4 GROUP   
     3 ASP3       31 GROUP   
     4 LYS4       42 GROUP   
     5 GLY6       48 GROUP   
     6 CUB7       72 GROUP   
@<TRIPOS>SET

