#    Name: 5zzb_3_ATP
#    Modification time : Fri May 22 19:33:23 2020

@<TRIPOS>MOLECULE
5zzb_3_ATP
   31    33     1     0     1
SMALL
NO_CHARGES


@<TRIPOS>ATOM
      1 PG        -42.4150    9.8460   97.2510 P.3       1 ATP402      0.0000 
      2 O1G       -41.6480    9.7940   95.9430 O.co2     1 ATP402      0.0000 
      3 O2G       -43.6040   10.7670   97.2260 O.co2     1 ATP402      0.0000 
      4 O3G       -42.6800    8.5060   97.8840 O.co2     1 ATP402      0.0000 
      5 PB        -40.3770   10.0510   99.3370 P.3       1 ATP402      0.0000 
      6 O1B       -40.1890    8.5850   99.1020 O.co2     1 ATP402      0.0000 
      7 O2B       -39.2140   11.0000   99.3550 O.co2     1 ATP402      0.0000 
      8 O3B       -41.3670   10.6520   98.2210 O.3       1 ATP402      0.0000 
      9 PA        -40.7920    9.6120  102.1520 P.3       1 ATP402      0.0000 
     10 O1A       -39.2730    9.6540  102.4100 O.co2     1 ATP402      0.0000 
     11 O2A       -41.5970    8.3680  102.4470 O.co2     1 ATP402      0.0000 
     12 O3A       -41.1480   10.2580  100.7140 O.3       1 ATP402      0.0000 
     13 O5'       -41.4570   10.7270  103.0870 O.3       1 ATP402      0.0000 
     14 C5'       -40.8850   12.0460  103.2050 C.3       1 ATP402      0.0000 
     15 C4'       -42.0100   13.0300  103.5060 C.3       1 ATP402      0.0000 
     16 O4'       -42.6200   12.6530  104.7400 O.3       1 ATP402      0.0000 
     17 C3'       -41.5900   14.4890  103.6710 C.3       1 ATP402      0.0000 
     18 O3'       -42.5440   15.3390  102.9900 O.3       1 ATP402      0.0000 
     19 C2'       -41.6310   14.7190  105.1710 C.3       1 ATP402      0.0000 
     20 O2'       -41.9710   16.0550  105.5300 O.3       1 ATP402      0.0000 
     21 C1'       -42.7200   13.7630  105.6150 C.3       1 ATP402      0.0000 
     22 N9        -42.5700   13.3480  107.0230 N.pl3     1 ATP402      0.0000 
     23 C8        -41.5200   12.7140  107.5630 C.2       1 ATP402      0.0000 
     24 N7        -41.7150   12.4920  108.8870 N.2       1 ATP402      0.0000 
     25 C5        -42.9230   12.9860  109.2070 C.ar      1 ATP402      0.0000 
     26 C6        -43.7520   13.0970  110.4290 C.ar      1 ATP402      0.0000 
     27 N6        -43.3460   12.6190  111.6320 N.pl3     1 ATP402      0.0000 
     28 N1        -44.9500   13.6970  110.3180 N.ar      1 ATP402      0.0000 
     29 C2        -45.3910   14.1800  109.1450 C.ar      1 ATP402      0.0000 
     30 N3        -44.6920   14.1200  107.9980 N.ar      1 ATP402      0.0000 
     31 C4        -43.4780   13.5450  107.9710 C.ar      1 ATP402      0.0000 
@<TRIPOS>BOND
     1    1    2 ar   
     2    1    3 ar   
     3    1    4 ar   
     4    1    8 1    
     5    5    6 ar   
     6    5    7 ar   
     7    5    8 1    
     8    5   12 1    
     9    9   10 ar   
    10    9   11 ar   
    11    9   12 1    
    12    9   13 1    
    13   13   14 1    
    14   14   15 1    
    15   15   16 1    
    16   15   17 1    
    17   16   21 1    
    18   17   18 1    
    19   17   19 1    
    20   19   20 1    
    21   19   21 1    
    22   21   22 1    
    23   22   23 1    
    24   22   31 1    
    25   23   24 2    
    26   24   25 1    
    27   25   26 ar   
    28   25   31 ar   
    29   26   27 1    
    30   26   28 ar   
    31   28   29 ar   
    32   29   30 ar   
    33   30   31 ar   
@<TRIPOS>SUBSTRUCTURE
     1 ATP402      1 GROUP   
@<TRIPOS>SET
ATOM$ORANGE STATIC     ATOMS   COLORGROUP SYSTEM 
20 14 14 15 15 17 17 19 19 21 21 23 23 25 25 26 26 29 \
29 31 31 

