#    Name: 5zzb_3_ATP_CAVITY_N1_4
#    Modification time : Fri May 22 19:33:24 2020

@<TRIPOS>MOLECULE
5zzb_3_ATP_CAVITY_N1_4
   35     0     6     0     0
SMALL
NO_CHARGES


@<TRIPOS>ATOM
      1 OG        -43.6400   13.1700  104.0100 O.3       1 SER1        0.0000 
      2 OG        -42.9400   14.0200  105.0200 O.3       1 SER1        0.0000 
      3 O         -40.6300   10.6000  101.8800 O.2       2 ALA2        0.0000 
      4 N         -42.5900   13.5000  103.0000 N.am      2 ALA2        0.0000 
      5 N         -44.0000   13.6900  106.0300 N.am      2 ALA2        0.0000 
      6 N         -42.5000   13.3600  107.5000 N.am      2 ALA2        0.0000 
      7 OD1       -42.6900   15.5400  103.5600 O.co2     3 ASP3        0.0000 
      8 OD1       -41.7000   12.1800  107.9500 O.co2     3 ASP3        0.0000 
      9 NZ        -40.8300   14.6900  103.0000 N.4       4 LYS4        0.0000 
     10 NZ        -41.8900   14.3500  104.0100 N.4       4 LYS4        0.0000 
     11 NZ        -39.8700   17.0600  102.5500 N.4       4 LYS4        0.0000 
     12 NZ        -40.6700   18.2400  102.1000 N.4       4 LYS4        0.0000 
     13 NZ        -41.1900   15.2100  105.0300 N.4       4 LYS4        0.0000 
     14 NZ        -41.4400   13.6900  106.4900 N.4       4 LYS4        0.0000 
     15 NZ        -42.2400   14.8800  106.0400 N.4       4 LYS4        0.0000 
     16 CA        -38.8700   11.7900  101.8800 C.3       5 GLY6        0.0000 
     17 CA        -39.6700   12.9700  101.4300 C.3       5 GLY6        0.0000 
     18 CA        -39.9300   11.4600  102.8900 C.3       5 GLY6        0.0000 
     19 CA        -40.7300   12.6400  102.4400 C.3       5 GLY6        0.0000 
     20 CA        -40.9900   11.1300  103.9000 C.3       5 GLY6        0.0000 
     21 CA        -41.7900   12.3100  103.4500 C.3       5 GLY6        0.0000 
     22 CA        -42.8400   11.9800  104.4600 C.3       5 GLY6        0.0000 
     23 CA        -37.9100   14.1600  101.4300 C.3       5 GLY6        0.0000 
     24 CA        -38.9700   13.8300  102.4400 C.3       5 GLY6        0.0000 
     25 CA        -39.2300   12.3100  103.9000 C.3       5 GLY6        0.0000 
     26 CA        -40.2900   11.9800  104.9100 C.3       5 GLY6        0.0000 
     27 CA        -41.3400   11.6500  105.9200 C.3       5 GLY6        0.0000 
     28 CA        -42.1400   12.8400  105.4700 C.3       5 GLY6        0.0000 
     29 CA        -38.2700   14.6900  103.4500 C.3       5 GLY6        0.0000 
     30 CA        -39.0700   15.8700  103.0000 C.3       5 GLY6        0.0000 
     31 CA        -40.1300   15.5400  104.0100 C.3       5 GLY6        0.0000 
     32 CA        -40.9300   16.7300  103.5700 C.3       5 GLY6        0.0000 
     33 CA        -43.3000   14.5500  107.0500 C.3       5 GLY6        0.0000 
     34 DU        -40.0300   13.5000  103.4500 H         6 CUB7        0.0000 
     35 DU        -41.0900   13.1700  104.4600 H         6 CUB7        0.0000 
@<TRIPOS>BOND
@<TRIPOS>SUBSTRUCTURE
     1 SER1        1 GROUP   
     2 ALA2        3 GROUP   
     3 ASP3        7 GROUP   
     4 LYS4        9 GROUP   
     5 GLY6       16 GROUP   
     6 CUB7       34 GROUP   
@<TRIPOS>SET

