#    Name: 5zzb_3_ATP_CAVITY_N1_8
#    Modification time : Fri May 22 19:33:24 2020

@<TRIPOS>MOLECULE
5zzb_3_ATP_CAVITY_N1_8
   66     0     7     0     0
SMALL
NO_CHARGES


@<TRIPOS>ATOM
      1 OG        -43.6400   13.1700  104.0100 O.3       1 SER1        0.0000 
      2 OG        -42.9400   14.0200  105.0200 O.3       1 SER1        0.0000 
      3 OG        -36.7000   18.0500   99.5200 O.3       1 SER1        0.0000 
      4 OG        -38.5500   18.9100  100.0800 O.3       1 SER1        0.0000 
      5 OG        -36.0000   18.9100  100.5400 O.3       1 SER1        0.0000 
      6 O         -40.6300   10.6000  101.8800 O.2       2 ALA2        0.0000 
      7 N         -42.5900   13.5000  103.0000 N.am      2 ALA2        0.0000 
      8 N         -44.0000   13.6900  106.0300 N.am      2 ALA2        0.0000 
      9 N         -35.9000   16.8600   99.9700 N.am      2 ALA2        0.0000 
     10 N         -36.1500   15.3500  101.4300 N.am      2 ALA2        0.0000 
     11 N         -36.9500   16.5300  100.9800 N.am      2 ALA2        0.0000 
     12 N         -42.5000   13.3600  107.5000 N.am      2 ALA2        0.0000 
     13 OD1       -42.6900   15.5400  103.5600 O.co2     3 ASP3        0.0000 
     14 OD1       -41.7000   12.1800  107.9500 O.co2     3 ASP3        0.0000 
     15 OD1       -37.3100   17.0600  103.0100 O.co2     3 ASP3        0.0000 
     16 OD1       -35.8100   16.7300  104.4700 O.co2     3 ASP3        0.0000 
     17 NZ        -38.7100   15.3500  100.9800 N.4       4 LYS4        0.0000 
     18 NZ        -40.8300   14.6900  103.0000 N.4       4 LYS4        0.0000 
     19 NZ        -41.8900   14.3500  104.0100 N.4       4 LYS4        0.0000 
     20 NZ        -37.7500   17.7200  100.5300 N.4       4 LYS4        0.0000 
     21 NZ        -38.0100   16.2000  101.9900 N.4       4 LYS4        0.0000 
     22 NZ        -38.8100   17.3900  101.5400 N.4       4 LYS4        0.0000 
     23 NZ        -39.6100   18.5800  101.0900 N.4       4 LYS4        0.0000 
     24 NZ        -39.8700   17.0600  102.5500 N.4       4 LYS4        0.0000 
     25 NZ        -40.6700   18.2400  102.1000 N.4       4 LYS4        0.0000 
     26 NZ        -41.1900   15.2100  105.0300 N.4       4 LYS4        0.0000 
     27 NZ        -41.4400   13.6900  106.4900 N.4       4 LYS4        0.0000 
     28 NZ        -42.2400   14.8800  106.0400 N.4       4 LYS4        0.0000 
     29 NZ        -37.0500   18.5800  101.5500 N.4       4 LYS4        0.0000 
     30 NZ        -37.8500   19.7600  101.1000 N.4       4 LYS4        0.0000 
     31 NZ        -39.7100   20.6200  101.6600 N.4       4 LYS4        0.0000 
     32 NZ        -35.5500   18.2500  103.0100 N.4       4 LYS4        0.0000 
     33 CZ        -34.8400   17.1900   98.9600 C.ar      5 PHE5        0.0000 
     34 CA        -38.8700   11.7900  101.8800 C.3       6 GLY6        0.0000 
     35 CA        -39.6700   12.9700  101.4300 C.3       6 GLY6        0.0000 
     36 CA        -39.9300   11.4600  102.8900 C.3       6 GLY6        0.0000 
     37 CA        -40.7300   12.6400  102.4400 C.3       6 GLY6        0.0000 
     38 CA        -40.9900   11.1300  103.9000 C.3       6 GLY6        0.0000 
     39 CA        -41.7900   12.3100  103.4500 C.3       6 GLY6        0.0000 
     40 CA        -42.8400   11.9800  104.4600 C.3       6 GLY6        0.0000 
     41 CA        -37.9100   14.1600  101.4300 C.3       6 GLY6        0.0000 
     42 CA        -38.9700   13.8300  102.4400 C.3       6 GLY6        0.0000 
     43 CA        -39.2300   12.3100  103.9000 C.3       6 GLY6        0.0000 
     44 CA        -40.2900   11.9800  104.9100 C.3       6 GLY6        0.0000 
     45 CA        -41.3400   11.6500  105.9200 C.3       6 GLY6        0.0000 
     46 CA        -42.1400   12.8400  105.4700 C.3       6 GLY6        0.0000 
     47 CA        -37.2100   15.0200  102.4400 C.3       6 GLY6        0.0000 
     48 CA        -40.4100   19.7600  100.6400 C.3       6 GLY6        0.0000 
     49 CA        -38.2700   14.6900  103.4500 C.3       6 GLY6        0.0000 
     50 CA        -39.0700   15.8700  103.0000 C.3       6 GLY6        0.0000 
     51 CA        -41.4700   19.4300  101.6500 C.3       6 GLY6        0.0000 
     52 CA        -40.1300   15.5400  104.0100 C.3       6 GLY6        0.0000 
     53 CA        -40.9300   16.7300  103.5700 C.3       6 GLY6        0.0000 
     54 CA        -43.3000   14.5500  107.0500 C.3       6 GLY6        0.0000 
     55 CA        -34.4000   16.5300  101.4400 C.3       6 GLY6        0.0000 
     56 CA        -35.2000   17.7200  100.9900 C.3       6 GLY6        0.0000 
     57 CA        -35.4500   16.2000  102.4500 C.3       6 GLY6        0.0000 
     58 CA        -36.5100   15.8700  103.4600 C.3       6 GLY6        0.0000 
     59 CA        -38.1100   18.2500  102.5600 C.3       6 GLY6        0.0000 
     60 CA        -38.9100   19.4300  102.1100 C.3       6 GLY6        0.0000 
     61 CA        -37.5700   15.5400  104.4700 C.3       6 GLY6        0.0000 
     62 CA        -33.9500   15.8700  103.9100 C.3       6 GLY6        0.0000 
     63 DU        -40.0300   13.5000  103.4500 H         7 CUB7        0.0000 
     64 DU        -41.0900   13.1700  104.4600 H         7 CUB7        0.0000 
     65 DU        -36.2500   17.3900  102.0000 H         7 CUB7        0.0000 
     66 DU        -34.7500   17.0600  103.4600 H         7 CUB7        0.0000 
@<TRIPOS>BOND
@<TRIPOS>SUBSTRUCTURE
     1 SER1        1 GROUP   
     2 ALA2        6 GROUP   
     3 ASP3       13 GROUP   
     4 LYS4       17 GROUP   
     5 PHE5       33 GROUP   
     6 GLY6       34 GROUP   
     7 CUB7       63 GROUP   
@<TRIPOS>SET

