#    Name: 6h6v_4_FMN
#    Modification time : Fri May 22 19:24:49 2020

@<TRIPOS>MOLECULE
6h6v_4_FMN
   31    33     1     0     1
SMALL
NO_CHARGES


@<TRIPOS>ATOM
      1 N1         17.8130   55.8230   26.6700 N.2       1 FMN501      0.0000 
      2 C2         18.9120   55.9300   25.9070 C.2       1 FMN501      0.0000 
      3 O2         18.8460   55.5340   24.7250 O.2       1 FMN501      0.0000 
      4 N3         20.0730   56.4360   26.3600 N.am      1 FMN501      0.0000 
      5 C4         20.2270   56.8590   27.6170 C.2       1 FMN501      0.0000 
      6 O4         21.2960   57.3450   28.0280 O.2       1 FMN501      0.0000 
      7 C4A        19.0750   56.7830   28.5210 C.2       1 FMN501      0.0000 
      8 N5         19.1250   57.2180   29.7930 N.2       1 FMN501      0.0000 
      9 C5A        18.0260   57.1500   30.5540 C.ar      1 FMN501      0.0000 
     10 C6         18.1270   57.6340   31.8230 C.ar      1 FMN501      0.0000 
     11 C7         17.0310   57.6080   32.6630 C.ar      1 FMN501      0.0000 
     12 C7M        17.3090   58.1700   34.0230 C.3       1 FMN501      0.0000 
     13 C8         15.6950   57.0480   32.2320 C.ar      1 FMN501      0.0000 
     14 C8M        14.5010   56.9840   33.1750 C.3       1 FMN501      0.0000 
     15 C9         15.6120   56.5490   30.9280 C.ar      1 FMN501      0.0000 
     16 C9A        16.7340   56.5800   30.0710 C.ar      1 FMN501      0.0000 
     17 N10        16.7080   56.1250   28.7290 N.pl3     1 FMN501      0.0000 
     18 C10        17.8440   56.2160   27.9390 C.2       1 FMN501      0.0000 
     19 C1'        15.5730   55.5190   28.0920 C.3       1 FMN501      0.0000 
     20 C2'        14.6380   56.4370   27.3810 C.3       1 FMN501      0.0000 
     21 O2'        14.3770   57.6300   28.1690 O.3       1 FMN501      0.0000 
     22 C3'        13.4020   55.5470   27.2090 C.3       1 FMN501      0.0000 
     23 O3'        13.7360   54.2430   26.7180 O.3       1 FMN501      0.0000 
     24 C4'        12.4330   56.1890   26.2620 C.3       1 FMN501      0.0000 
     25 O4'        11.1430   55.6710   26.5790 O.3       1 FMN501      0.0000 
     26 C5'        12.7770   56.0010   24.7930 C.3       1 FMN501      0.0000 
     27 O5'        11.6170   56.5130   24.1840 O.3       1 FMN501      0.0000 
     28 P          11.2670   56.4010   22.6210 P.3       1 FMN501      0.0000 
     29 O1P        12.6370   56.6050   21.9910 O.co2     1 FMN501      0.0000 
     30 O2P        10.5600   55.0650   22.4760 O.co2     1 FMN501      0.0000 
     31 O3P        10.2930   57.5190   22.3080 O.co2     1 FMN501      0.0000 
@<TRIPOS>BOND
     1    1    2 1    
     2    1   18 2    
     3    2    3 2    
     4    2    4 am   
     5    4    5 am   
     6    5    6 2    
     7    5    7 1    
     8    7    8 2    
     9    7   18 1    
    10    8    9 1    
    11    9   10 ar   
    12    9   16 ar   
    13   10   11 ar   
    14   11   12 1    
    15   11   13 ar   
    16   13   14 1    
    17   13   15 ar   
    18   15   16 ar   
    19   16   17 1    
    20   17   18 1    
    21   17   19 1    
    22   19   20 1    
    23   20   21 1    
    24   20   22 1    
    25   22   23 1    
    26   22   24 1    
    27   24   25 1    
    28   24   26 1    
    29   26   27 1    
    30   27   28 1    
    31   28   29 ar   
    32   28   30 ar   
    33   28   31 ar   
@<TRIPOS>SUBSTRUCTURE
     1 FMN501      1 GROUP   
@<TRIPOS>SET
ATOM$ORANGE STATIC     ATOMS   COLORGROUP SYSTEM 
34 2 2 5 5 7 7 9 9 10 10 11 11 12 12 13 13 14 \
14 15 15 16 16 18 18 19 19 20 20 22 22 24 24 26 26 

