#    Name: 6h6v_4_FMN_CAVITY_N1_6
#    Modification time : Fri May 22 19:24:51 2020

@<TRIPOS>MOLECULE
6h6v_4_FMN_CAVITY_N1_6
   77     0     7     0     0
SMALL
NO_CHARGES


@<TRIPOS>ATOM
      1 OG         17.8400   54.0600   31.5500 O.3       1 SER1        0.0000 
      2 OG         15.9500   54.6900   32.2700 O.3       1 SER1        0.0000 
      3 OG         16.8700   55.1300   31.1700 O.3       1 SER1        0.0000 
      4 OG         17.5500   56.0800   32.1200 O.3       1 SER1        0.0000 
      5 OG         18.2300   57.0200   33.0600 O.3       1 SER1        0.0000 
      6 OG         18.9100   57.9600   34.0100 O.3       1 SER1        0.0000 
      7 O          14.5300   54.3300   28.9100 O.2       2 ALA2        0.0000 
      8 O          15.2100   55.2700   29.8500 O.2       2 ALA2        0.0000 
      9 N          16.1300   55.7100   28.7500 N.am      2 ALA2        0.0000 
     10 N          17.0400   56.1600   27.6500 N.am      2 ALA2        0.0000 
     11 N          17.9600   56.6000   26.5500 N.am      2 ALA2        0.0000 
     12 N          15.1500   56.7900   28.3800 N.am      2 ALA2        0.0000 
     13 N          18.7000   56.0200   28.9700 N.am      2 ALA2        0.0000 
     14 N          19.6100   56.4700   27.8700 N.am      2 ALA2        0.0000 
     15 O          14.9800   55.7700   31.9000 O.2       2 ALA2        0.0000 
     16 O          15.8900   56.2100   30.8000 O.2       2 ALA2        0.0000 
     17 N          16.8100   56.6600   29.7000 N.am      2 ALA2        0.0000 
     18 N          14.9200   57.2900   30.4200 N.am      2 ALA2        0.0000 
     19 N          17.4900   57.6000   30.6400 N.am      2 ALA2        0.0000 
     20 N          14.6900   57.7900   32.4700 N.am      2 ALA2        0.0000 
     21 N          19.8300   58.4100   32.9100 N.am      2 ALA2        0.0000 
     22 N          17.9400   59.0400   33.6400 N.am      2 ALA2        0.0000 
     23 N          18.8600   59.4900   32.5400 N.am      2 ALA2        0.0000 
     24 N          19.6000   58.9100   34.9600 N.am      2 ALA2        0.0000 
     25 N          20.5100   59.3500   33.8600 N.am      2 ALA2        0.0000 
     26 OD1        17.0000   49.6500   27.0300 O.co2     3 ASP3        0.0000 
     27 OD1        15.7900   51.2300   28.7100 O.co2     3 ASP3        0.0000 
     28 OD1        16.4800   52.1700   29.6500 O.co2     3 ASP3        0.0000 
     29 OD1        17.3900   52.6100   28.5500 O.co2     3 ASP3        0.0000 
     30 OD1        14.5900   52.8000   30.3800 O.co2     3 ASP3        0.0000 
     31 OD1        15.5000   53.2500   29.2800 O.co2     3 ASP3        0.0000 
     32 OD1        16.4200   53.6900   28.1800 O.co2     3 ASP3        0.0000 
     33 OD1        17.3300   54.1400   27.0700 O.co2     3 ASP3        0.0000 
     34 OD1        15.4500   54.7700   27.8000 O.co2     3 ASP3        0.0000 
     35 OD1        16.3600   55.2100   26.7000 O.co2     3 ASP3        0.0000 
     36 OD1        17.1600   53.1100   30.6000 O.co2     3 ASP3        0.0000 
     37 OD1        15.2700   53.7500   31.3300 O.co2     3 ASP3        0.0000 
     38 OD1        16.1900   54.1900   30.2300 O.co2     3 ASP3        0.0000 
     39 OD1        24.4200   52.5900   28.2600 O.co2     3 ASP3        0.0000 
     40 NZ         21.6200   52.7900   30.0900 N.4       4 LYS4        0.0000 
     41 NZ         22.5300   53.2300   28.9900 N.4       4 LYS4        0.0000 
     42 NZ         19.7300   53.4200   30.8200 N.4       4 LYS4        0.0000 
     43 NZ         20.6400   53.8600   29.7100 N.4       4 LYS4        0.0000 
     44 NZ         19.6700   54.9400   29.3400 N.4       4 LYS4        0.0000 
     45 CZ         20.9400   51.8400   29.1400 C.ar      5 PHE5        0.0000 
     46 CZ         19.0500   52.4800   29.8700 C.ar      5 PHE5        0.0000 
     47 CZ         15.6600   56.7100   32.8500 C.ar      5 PHE5        0.0000 
     48 CZ         16.3400   57.6500   33.7900 C.ar      5 PHE5        0.0000 
     49 CZ         17.0200   58.6000   34.7400 C.ar      5 PHE5        0.0000 
     50 CZ         20.5700   57.8300   35.3300 C.ar      5 PHE5        0.0000 
     51 CZ         21.4800   58.2700   34.2300 C.ar      5 PHE5        0.0000 
     52 CA         17.9200   50.0900   25.9300 C.3       6 GLY6        0.0000 
     53 CA         17.6800   50.5900   27.9800 C.3       6 GLY6        0.0000 
     54 CA         20.2500   50.9000   28.2000 C.3       6 GLY6        0.0000 
     55 CA         21.1700   51.3400   27.0900 C.3       6 GLY6        0.0000 
     56 CA         18.3600   51.5300   28.9200 C.3       6 GLY6        0.0000 
     57 CA         18.2500   54.5800   25.9700 C.3       6 GLY6        0.0000 
     58 CA         21.8500   52.2900   28.0400 C.3       6 GLY6        0.0000 
     59 CA         19.9600   52.9200   28.7700 C.3       6 GLY6        0.0000 
     60 CA         20.8800   53.3700   27.6700 C.3       6 GLY6        0.0000 
     61 CA         18.9900   54.0000   28.3900 C.3       6 GLY6        0.0000 
     62 CA         19.9000   54.4400   27.2900 C.3       6 GLY6        0.0000 
     63 CA         18.0200   55.0800   28.0200 C.3       6 GLY6        0.0000 
     64 CA         18.9300   55.5200   26.9200 C.3       6 GLY6        0.0000 
     65 CA         23.5100   52.1500   29.3600 C.3       6 GLY6        0.0000 
     66 CA         21.5600   54.3100   28.6100 C.3       6 GLY6        0.0000 
     67 CA         20.5900   55.3900   28.2400 C.3       6 GLY6        0.0000 
     68 CA         16.5800   57.1600   31.7400 C.3       6 GLY6        0.0000 
     69 CA         15.6000   58.2300   31.3700 C.3       6 GLY6        0.0000 
     70 CA         17.2600   58.1000   32.6900 C.3       6 GLY6        0.0000 
     71 CA         18.1700   58.5400   31.5900 C.3       6 GLY6        0.0000 
     72 CA         15.3700   58.7300   33.4200 C.3       6 GLY6        0.0000 
     73 DU         18.0700   53.5600   29.5000 H         7 CUB7        0.0000 
     74 DU         17.1000   54.6300   29.1200 H         7 CUB7        0.0000 
     75 DU         18.7600   54.5000   30.4400 H         7 CUB7        0.0000 
     76 DU         17.7800   55.5800   30.0700 H         7 CUB7        0.0000 
     77 DU         18.4600   56.5200   31.0200 H         7 CUB7        0.0000 
@<TRIPOS>BOND
@<TRIPOS>SUBSTRUCTURE
     1 SER1        1 GROUP   
     2 ALA2        7 GROUP   
     3 ASP3       26 GROUP   
     4 LYS4       40 GROUP   
     5 PHE5       45 GROUP   
     6 GLY6       52 GROUP   
     7 CUB7       73 GROUP   
@<TRIPOS>SET

