#    Name: 6h6v_1_FMN
#    Modification time : Fri May 22 19:24:28 2020

@<TRIPOS>MOLECULE
6h6v_1_FMN
   31    33     1     0     1
SMALL
NO_CHARGES


@<TRIPOS>ATOM
      1 N1         11.2810  -19.4190   30.2270 N.2       1 FMN501      0.0000 
      2 C2          9.9880  -19.5260   30.6310 C.2       1 FMN501      0.0000 
      3 O2          9.0690  -19.1170   29.8790 O.2       1 FMN501      0.0000 
      4 N3          9.6700  -20.0530   31.8200 N.am      1 FMN501      0.0000 
      5 C4         10.6020  -20.5060   32.6480 C.2       1 FMN501      0.0000 
      6 O4         10.2470  -21.0110   33.7310 O.2       1 FMN501      0.0000 
      7 C4A        12.0260  -20.4340   32.2780 C.2       1 FMN501      0.0000 
      8 N5         13.0050  -20.8750   33.0700 N.2       1 FMN501      0.0000 
      9 C5A        14.3000  -20.8220   32.6670 C.ar      1 FMN501      0.0000 
     10 C6         15.3070  -21.3160   33.4820 C.ar      1 FMN501      0.0000 
     11 C7         16.6430  -21.2800   33.0950 C.ar      1 FMN501      0.0000 
     12 C7M        17.6730  -21.8480   34.0400 C.3       1 FMN501      0.0000 
     13 C8         17.0540  -20.7080   31.7890 C.ar      1 FMN501      0.0000 
     14 C8M        18.5170  -20.6270   31.3890 C.3       1 FMN501      0.0000 
     15 C9         16.0510  -20.2120   30.9830 C.ar      1 FMN501      0.0000 
     16 C9A        14.6970  -20.2400   31.3500 C.ar      1 FMN501      0.0000 
     17 N10        13.6500  -19.7490   30.5200 N.pl3     1 FMN501      0.0000 
     18 C10        12.3180  -19.8470   30.9790 C.2       1 FMN501      0.0000 
     19 C1'        13.8980  -19.0560   29.2490 C.3       1 FMN501      0.0000 
     20 C2'        13.6520  -19.7820   27.9760 C.3       1 FMN501      0.0000 
     21 O2'        14.0560  -21.1350   28.1870 O.3       1 FMN501      0.0000 
     22 C3'        14.4540  -19.0410   26.9160 C.3       1 FMN501      0.0000 
     23 O3'        14.0720  -17.6710   26.8870 O.3       1 FMN501      0.0000 
     24 C4'        14.2560  -19.6980   25.5870 C.3       1 FMN501      0.0000 
     25 O4'        15.3150  -19.2840   24.6950 O.3       1 FMN501      0.0000 
     26 C5'        12.9120  -19.4400   24.9430 C.3       1 FMN501      0.0000 
     27 O5'        12.9990  -20.1750   23.7250 O.3       1 FMN501      0.0000 
     28 P          11.9250  -20.0200   22.5240 P.3       1 FMN501      0.0000 
     29 O1P        10.5710  -20.0280   23.2250 O.co2     1 FMN501      0.0000 
     30 O2P        12.2260  -18.7080   21.8300 O.co2     1 FMN501      0.0000 
     31 O3P        12.2110  -21.1750   21.5610 O.co2     1 FMN501      0.0000 
@<TRIPOS>BOND
     1    1    2 1    
     2    1   18 2    
     3    2    3 2    
     4    2    4 am   
     5    4    5 am   
     6    5    6 2    
     7    5    7 1    
     8    7    8 2    
     9    7   18 1    
    10    8    9 1    
    11    9   10 ar   
    12    9   16 ar   
    13   10   11 ar   
    14   11   12 1    
    15   11   13 ar   
    16   13   14 1    
    17   13   15 ar   
    18   15   16 ar   
    19   16   17 1    
    20   17   18 1    
    21   17   19 1    
    22   19   20 1    
    23   20   21 1    
    24   20   22 1    
    25   22   23 1    
    26   22   24 1    
    27   24   25 1    
    28   24   26 1    
    29   26   27 1    
    30   27   28 1    
    31   28   29 ar   
    32   28   30 ar   
    33   28   31 ar   
@<TRIPOS>SUBSTRUCTURE
     1 FMN501      1 GROUP   
@<TRIPOS>SET
ATOM$ORANGE STATIC     ATOMS   COLORGROUP SYSTEM 
34 2 2 5 5 7 7 9 9 10 10 11 11 12 12 13 13 14 \
14 15 15 16 16 18 18 19 19 20 20 22 22 24 24 26 26 

