#    Name: 6h6v_3_FMN
#    Modification time : Fri May 22 19:24:42 2020

@<TRIPOS>MOLECULE
6h6v_3_FMN
   31    33     1     0     1
SMALL
NO_CHARGES


@<TRIPOS>ATOM
      1 N1         28.0710    8.4920   -2.3510 N.2       1 FMN501      0.0000 
      2 C2         29.2890    9.0800   -2.3570 C.2       1 FMN501      0.0000 
      3 O2         30.1780    8.6130   -1.6060 O.2       1 FMN501      0.0000 
      4 N3         29.5540   10.1350   -3.1380 N.am      1 FMN501      0.0000 
      5 C4         28.6290   10.6570   -3.9350 C.2       1 FMN501      0.0000 
      6 O4         28.9050   11.6380   -4.6470 O.2       1 FMN501      0.0000 
      7 C4A        27.2840   10.0550   -3.9980 C.2       1 FMN501      0.0000 
      8 N5         26.3150   10.5260   -4.8120 N.2       1 FMN501      0.0000 
      9 C5A        25.1270    9.9180   -4.8530 C.ar      1 FMN501      0.0000 
     10 C6         24.1690   10.4050   -5.7110 C.ar      1 FMN501      0.0000 
     11 C7         22.9150    9.8190   -5.7680 C.ar      1 FMN501      0.0000 
     12 C7M        21.9100   10.3970   -6.7130 C.3       1 FMN501      0.0000 
     13 C8         22.6050    8.6770   -4.9030 C.ar      1 FMN501      0.0000 
     14 C8M        21.2590    8.0200   -4.9240 C.3       1 FMN501      0.0000 
     15 C9         23.5610    8.1830   -4.0550 C.ar      1 FMN501      0.0000 
     16 C9A        24.8290    8.7410   -3.9810 C.ar      1 FMN501      0.0000 
     17 N10        25.8370    8.2500   -3.1090 N.pl3     1 FMN501      0.0000 
     18 C10        27.0630    8.9040   -3.1250 C.2       1 FMN501      0.0000 
     19 C1'        25.6580    7.1480   -2.1540 C.3       1 FMN501      0.0000 
     20 C2'        26.2520    5.8240   -2.5230 C.3       1 FMN501      0.0000 
     21 O2'        25.9510    5.6450   -3.8980 O.3       1 FMN501      0.0000 
     22 C3'        25.5890    4.7730   -1.6390 C.3       1 FMN501      0.0000 
     23 O3'        25.8130    5.0140   -0.2640 O.3       1 FMN501      0.0000 
     24 C4'        26.0930    3.3890   -1.9120 C.3       1 FMN501      0.0000 
     25 O4'        25.1670    2.5160   -1.2380 O.3       1 FMN501      0.0000 
     26 C5'        27.5600    3.1240   -1.4860 C.3       1 FMN501      0.0000 
     27 O5'        27.9510    1.8040   -1.9130 O.3       1 FMN501      0.0000 
     28 P          28.6980    0.7720   -0.9360 P.3       1 FMN501      0.0000 
     29 O1P        29.9980    1.5350   -0.8000 O.co2     1 FMN501      0.0000 
     30 O2P        27.8590    0.6330    0.3160 O.co2     1 FMN501      0.0000 
     31 O3P        28.7510   -0.5170   -1.7460 O.co2     1 FMN501      0.0000 
@<TRIPOS>BOND
     1    1    2 1    
     2    1   18 2    
     3    2    3 2    
     4    2    4 am   
     5    4    5 am   
     6    5    6 2    
     7    5    7 1    
     8    7    8 2    
     9    7   18 1    
    10    8    9 1    
    11    9   10 ar   
    12    9   16 ar   
    13   10   11 ar   
    14   11   12 1    
    15   11   13 ar   
    16   13   14 1    
    17   13   15 ar   
    18   15   16 ar   
    19   16   17 1    
    20   17   18 1    
    21   17   19 1    
    22   19   20 1    
    23   20   21 1    
    24   20   22 1    
    25   22   23 1    
    26   22   24 1    
    27   24   25 1    
    28   24   26 1    
    29   26   27 1    
    30   27   28 1    
    31   28   29 ar   
    32   28   30 ar   
    33   28   31 ar   
@<TRIPOS>SUBSTRUCTURE
     1 FMN501      1 GROUP   
@<TRIPOS>SET
ATOM$ORANGE STATIC     ATOMS   COLORGROUP SYSTEM 
34 2 2 5 5 7 7 9 9 10 10 11 11 12 12 13 13 14 \
14 15 15 16 16 18 18 19 19 20 20 22 22 24 24 26 26 

