#    Name: 6h6v_3_FMN_CAVITY_N1_4
#    Modification time : Fri May 22 19:24:44 2020

@<TRIPOS>MOLECULE
6h6v_3_FMN_CAVITY_N1_4
  113     0     7     0     0
SMALL
NO_CHARGES


@<TRIPOS>ATOM
      1 OG         26.7500    0.0200    2.8900 O.3       1 SER1        0.0000 
      2 OG         27.6600    0.4600    1.7900 O.3       1 SER1        0.0000 
      3 OG         26.6900    1.5400    1.4100 O.3       1 SER1        0.0000 
      4 OG         24.8000    2.1800    2.1400 O.3       1 SER1        0.0000 
      5 OG         25.7200    2.6200    1.0400 O.3       1 SER1        0.0000 
      6 OG         23.6000    9.3500   -4.1400 O.3       1 SER1        0.0000 
      7 OG         21.7100    9.9800   -3.4100 O.3       1 SER1        0.0000 
      8 OG         23.5400   10.8700   -5.6100 O.3       1 SER1        0.0000 
      9 OG         27.4300    0.9600    3.8300 O.3       1 SER1        0.0000 
     10 OG         26.4600    2.0400    3.4600 O.3       1 SER1        0.0000 
     11 OG         25.4800    3.1200    3.0900 O.3       1 SER1        0.0000 
     12 OG         24.2800   10.2900   -3.1900 O.3       1 SER1        0.0000 
     13 OG         22.3900   10.9200   -2.4600 O.3       1 SER1        0.0000 
     14 OG         28.8000    8.4400   -2.2200 O.3       1 SER1        0.0000 
     15 O          21.3200    7.0200   -4.9300 O.2       2 ALA2        0.0000 
     16 N          26.0100    0.6000    0.4700 N.am      2 ALA2        0.0000 
     17 N          26.9200    1.0400   -0.6400 N.am      2 ALA2        0.0000 
     18 N          25.0400    1.6800    0.0900 N.am      2 ALA2        0.0000 
     19 N          25.9500    2.1200   -1.0100 N.am      2 ALA2        0.0000 
     20 N          24.0600    2.7600   -0.2800 N.am      2 ALA2        0.0000 
     21 N          24.9800    3.2000   -1.3800 N.am      2 ALA2        0.0000 
     22 N          25.8900    3.6400   -2.4900 N.am      2 ALA2        0.0000 
     23 O          23.0900    3.8400   -0.6600 O.2       2 ALA2        0.0000 
     24 N          23.8900    7.3200   -4.7100 N.am      2 ALA2        0.0000 
     25 O          22.0000    7.9600   -3.9800 O.2       2 ALA2        0.0000 
     26 N          20.1100    8.5900   -3.2500 N.am      2 ALA2        0.0000 
     27 N          23.7800   10.3700   -7.6600 N.am      2 ALA2        0.0000 
     28 N          27.7200   -1.0600    3.2600 N.am      2 ALA2        0.0000 
     29 O          23.7700    4.7800    0.2900 O.2       2 ALA2        0.0000 
     30 O          24.6900    5.2200   -0.8100 O.2       2 ALA2        0.0000 
     31 O          25.6000    5.6700   -1.9100 O.2       2 ALA2        0.0000 
     32 N          26.5200    6.1100   -3.0200 N.am      2 ALA2        0.0000 
     33 O          22.8000    5.8600   -0.0800 O.2       2 ALA2        0.0000 
     34 O          24.6300    6.7400   -2.2900 O.2       2 ALA2        0.0000 
     35 N          25.5500    7.1900   -3.3900 N.am      2 ALA2        0.0000 
     36 O          23.6600    7.8200   -2.6600 O.2       2 ALA2        0.0000 
     37 N          24.5700    8.2700   -3.7600 N.am      2 ALA2        0.0000 
     38 O          21.7700    8.4600   -1.9300 O.2       2 ALA2        0.0000 
     39 O          22.6800    8.9000   -3.0300 O.2       2 ALA2        0.0000 
     40 N          27.2000    7.0500   -2.0700 N.am      2 ALA2        0.0000 
     41 N          26.2300    8.1300   -2.4400 N.am      2 ALA2        0.0000 
     42 N          25.2500    9.2100   -2.8200 N.am      2 ALA2        0.0000 
     43 N          26.1700    9.6500   -3.9200 N.am      2 ALA2        0.0000 
     44 N          27.0900   10.1000   -5.0200 N.am      2 ALA2        0.0000 
     45 N          27.8300    9.5200   -2.6000 N.am      2 ALA2        0.0000 
     46 N          28.7400    9.9600   -3.7000 N.am      2 ALA2        0.0000 
     47 O          27.7700   11.0400   -4.0700 O.2       2 ALA2        0.0000 
     48 OD1        24.7400    3.7000    0.6600 O.co2     3 ASP3        0.0000 
     49 OD1        25.6600    4.1400   -0.4400 O.co2     3 ASP3        0.0000 
     50 OD1        26.5800    4.5900   -1.5400 O.co2     3 ASP3        0.0000 
     51 OD1        22.8600    4.3300    1.3900 O.co2     3 ASP3        0.0000 
     52 OD1        20.8000    9.5400   -2.3100 O.co2     3 ASP3        0.0000 
     53 OD1        26.4000    3.5600    1.9800 O.co2     3 ASP3        0.0000 
     54 OD1        27.3200    4.0100    0.8800 O.co2     3 ASP3        0.0000 
     55 OD1        28.2300    4.4500   -0.2200 O.co2     3 ASP3        0.0000 
     56 OD1        24.5100    4.2000    2.7100 O.co2     3 ASP3        0.0000 
     57 OD1        25.4300    4.6400    1.6100 O.co2     3 ASP3        0.0000 
     58 OD1        23.5400    5.2800    2.3400 O.co2     3 ASP3        0.0000 
     59 OD1        24.4500    5.7200    1.2400 O.co2     3 ASP3        0.0000 
     60 OD1        26.2800    6.6100   -0.9700 O.co2     3 ASP3        0.0000 
     61 OD1        24.4000    7.2400   -0.2400 O.co2     3 ASP3        0.0000 
     62 OD1        25.3100    7.6900   -1.3400 O.co2     3 ASP3        0.0000 
     63 OD1        23.4200    8.3200   -0.6100 O.co2     3 ASP3        0.0000 
     64 OD1        24.3400    8.7700   -1.7100 O.co2     3 ASP3        0.0000 
     65 OD1        23.3700    9.8500   -2.0900 O.co2     3 ASP3        0.0000 
     66 OD1        25.1900    5.1400    3.6600 O.co2     3 ASP3        0.0000 
     67 OD1        27.8800    8.0000   -1.1200 O.co2     3 ASP3        0.0000 
     68 OD1        25.9900    8.6300   -0.3900 O.co2     3 ASP3        0.0000 
     69 OD1        24.1100    9.2700    0.3300 O.co2     3 ASP3        0.0000 
     70 OD1        25.0200    9.7100   -0.7700 O.co2     3 ASP3        0.0000 
     71 OD1        24.0500   10.7900   -1.1400 O.co2     3 ASP3        0.0000 
     72 NZ         24.9600   11.2300   -2.2400 N.4       4 LYS4        0.0000 
     73 NZ         25.8800   11.6800   -3.3500 N.4       4 LYS4        0.0000 
     74 NZ         23.9900   12.3100   -2.6200 N.4       4 LYS4        0.0000 
     75 NZ         25.6500   12.1800   -1.3000 N.4       4 LYS4        0.0000 
     76 NZ         26.5600   12.6200   -2.4000 N.4       4 LYS4        0.0000 
     77 CZ         20.2900    9.6200   -6.7800 C.ar      5 PHE5        0.0000 
     78 CZ         21.0300    9.0400   -4.3500 C.ar      5 PHE5        0.0000 
     79 CZ         21.9400    9.4800   -5.4600 C.ar      5 PHE5        0.0000 
     80 CZ         21.8900   11.0000   -6.9300 C.ar      5 PHE5        0.0000 
     81 CZ         28.6400   -0.6200    2.1600 C.ar      5 PHE5        0.0000 
     82 CA         22.2400    7.4600   -6.0300 C.3       6 GLY6        0.0000 
     83 CA         20.3500    8.1000   -5.3000 C.3       6 GLY6        0.0000 
     84 CA         21.2600    8.5400   -6.4000 C.3       6 GLY6        0.0000 
     85 CA         22.1800    8.9800   -7.5000 C.3       6 GLY6        0.0000 
     86 CA         27.8400    1.4900   -1.7400 C.3       6 GLY6        0.0000 
     87 CA         26.8700    2.5700   -2.1100 C.3       6 GLY6        0.0000 
     88 CA         22.9200    8.4000   -5.0800 C.3       6 GLY6        0.0000 
     89 CA         23.8300    8.8500   -6.1800 C.3       6 GLY6        0.0000 
     90 CA         22.8600    9.9300   -6.5600 C.3       6 GLY6        0.0000 
     91 CA         28.5800    0.9100    0.6800 C.3       6 GLY6        0.0000 
     92 CA         27.6100    1.9900    0.3100 C.3       6 GLY6        0.0000 
     93 CA         28.5200    2.4300   -0.7900 C.3       6 GLY6        0.0000 
     94 CA         27.5500    3.5100   -1.1700 C.3       6 GLY6        0.0000 
     95 CA         28.4600    3.9500   -2.2700 C.3       6 GLY6        0.0000 
     96 CA         23.8300    3.2600    1.7700 C.3       6 GLY6        0.0000 
     97 CA         27.4900    5.0300   -2.6400 C.3       6 GLY6        0.0000 
     98 CA         24.5200    9.7900   -5.2400 C.3       6 GLY6        0.0000 
     99 CA         25.4300   10.2300   -6.3400 C.3       6 GLY6        0.0000 
    100 CA         28.3500    1.4100    2.7300 C.3       6 GLY6        0.0000 
    101 CA         27.3700    2.4800    2.3600 C.3       6 GLY6        0.0000 
    102 CA         26.9100    9.0700   -1.5000 C.3       6 GLY6        0.0000 
    103 CA         28.5100   10.4600   -1.6500 C.3       6 GLY6        0.0000 
    104 CA         29.4200   10.9100   -2.7500 C.3       6 GLY6        0.0000 
    105 CA         25.7000   10.6500    0.1800 C.3       6 GLY6        0.0000 
    106 CA         26.6200   11.1000   -0.9200 C.3       6 GLY6        0.0000 
    107 CA         27.5300   11.5400   -2.0300 C.3       6 GLY6        0.0000 
    108 CA         28.4500   11.9800   -3.1300 C.3       6 GLY6        0.0000 
    109 CA         28.2200   12.4800   -1.0800 C.3       6 GLY6        0.0000 
    110 DU         26.6300    3.0600   -0.0600 H         7 CUB7        0.0000 
    111 DU         25.2000   10.7300   -4.2900 H         7 CUB7        0.0000 
    112 DU         25.9400   10.1500   -1.8700 H         7 CUB7        0.0000 
    113 DU         26.8500   10.6000   -2.9700 H         7 CUB7        0.0000 
@<TRIPOS>BOND
@<TRIPOS>SUBSTRUCTURE
     1 SER1        1 GROUP   
     2 ALA2       15 GROUP   
     3 ASP3       48 GROUP   
     4 LYS4       72 GROUP   
     5 PHE5       77 GROUP   
     6 GLY6       82 GROUP   
     7 CUB7      110 GROUP   
@<TRIPOS>SET

