#    Name: 6h6v_1_FMN_CAVITY_N1_4
#    Modification time : Fri May 22 19:24:30 2020

@<TRIPOS>MOLECULE
6h6v_1_FMN_CAVITY_N1_4
  102     0     7     0     0
SMALL
NO_CHARGES


@<TRIPOS>ATOM
      1 OG         14.0600  -17.2700   22.1300 O.3       1 SER1        0.0000 
      2 OG         13.8300  -16.7700   24.1800 O.3       1 SER1        0.0000 
      3 OG         14.7400  -16.3300   23.0800 O.3       1 SER1        0.0000 
      4 OG         15.4200  -15.3900   24.0200 O.3       1 SER1        0.0000 
      5 OG         16.1600  -21.5600   34.4000 O.3       1 SER1        0.0000 
      6 OG         15.1900  -20.4800   34.0200 O.3       1 SER1        0.0000 
      7 OG         16.1000  -20.0400   32.9200 O.3       1 SER1        0.0000 
      8 OG         14.2100  -19.4000   33.6500 O.3       1 SER1        0.0000 
      9 OG         15.1300  -18.9600   32.5500 O.3       1 SER1        0.0000 
     10 OG         14.8900  -18.4600   34.5900 O.3       1 SER1        0.0000 
     11 OG         15.8100  -18.0100   33.4900 O.3       1 SER1        0.0000 
     12 N          14.1700  -20.3200   25.0800 N.am      2 ALA2        0.0000 
     13 N          15.0900  -19.8800   23.9800 N.am      2 ALA2        0.0000 
     14 N          14.1200  -18.8000   23.6000 N.am      2 ALA2        0.0000 
     15 N          15.0300  -18.3500   22.5000 N.am      2 ALA2        0.0000 
     16 N          13.0200  -20.2600   28.2300 N.am      2 ALA2        0.0000 
     17 N          13.9400  -19.8200   27.1300 N.am      2 ALA2        0.0000 
     18 O          14.8600  -19.3800   26.0300 O.2       2 ALA2        0.0000 
     19 N          14.8000  -17.8500   24.5500 N.am      2 ALA2        0.0000 
     20 N          15.7100  -17.4100   23.4500 N.am      2 ALA2        0.0000 
     21 N          14.6800  -20.4000   29.5500 N.am      2 ALA2        0.0000 
     22 N          11.8800  -20.2100   31.3800 N.am      2 ALA2        0.0000 
     23 N          12.7900  -19.7600   30.2800 N.am      2 ALA2        0.0000 
     24 N          13.7100  -19.3200   29.1800 N.am      2 ALA2        0.0000 
     25 O          14.6200  -18.8800   28.0800 O.2       2 ALA2        0.0000 
     26 O          15.5400  -18.4300   26.9700 O.2       2 ALA2        0.0000 
     27 O          16.4500  -17.9900   25.8700 O.2       2 ALA2        0.0000 
     28 N          15.4800  -16.9100   25.5000 N.am      2 ALA2        0.0000 
     29 N          16.4000  -16.4700   24.4000 N.am      2 ALA2        0.0000 
     30 N          14.5000  -21.4200   33.0800 N.am      2 ALA2        0.0000 
     31 O          16.3300  -20.5400   30.8700 O.2       2 ALA2        0.0000 
     32 O          12.6200  -20.7900   33.8000 O.2       2 ALA2        0.0000 
     33 N          13.5300  -20.3400   32.7000 N.am      2 ALA2        0.0000 
     34 N          14.4500  -19.9000   31.6000 N.am      2 ALA2        0.0000 
     35 O          15.3600  -19.4600   30.5000 O.2       2 ALA2        0.0000 
     36 N          12.5600  -19.2700   32.3300 N.am      2 ALA2        0.0000 
     37 N          13.4700  -18.8200   31.2300 N.am      2 ALA2        0.0000 
     38 O          14.3900  -18.3800   30.1200 O.2       2 ALA2        0.0000 
     39 O          15.3000  -17.9300   29.0200 O.2       2 ALA2        0.0000 
     40 O          17.1400  -17.0500   26.8200 O.2       2 ALA2        0.0000 
     41 N          18.0500  -16.6000   25.7200 N.am      2 ALA2        0.0000 
     42 N          17.1300  -22.6400   34.7700 N.am      2 ALA2        0.0000 
     43 O          17.0200  -19.5900   31.8200 O.2       2 ALA2        0.0000 
     44 O          16.0400  -18.5100   31.4400 O.2       2 ALA2        0.0000 
     45 O          16.9600  -18.0700   30.3400 O.2       2 ALA2        0.0000 
     46 N          18.6100  -18.2100   31.6600 N.am      2 ALA2        0.0000 
     47 OD1        13.4300  -19.7400   22.6600 O.co2     3 ASP3        0.0000 
     48 OD1        12.2300  -18.1600   24.3300 O.co2     3 ASP3        0.0000 
     49 OD1        12.9700  -18.7400   26.7600 O.co2     3 ASP3        0.0000 
     50 OD1        13.8800  -18.3000   25.6500 O.co2     3 ASP3        0.0000 
     51 OD1        12.9100  -17.2200   25.2800 O.co2     3 ASP3        0.0000 
     52 OD1        14.5700  -17.3500   26.6000 O.co2     3 ASP3        0.0000 
     53 OD1        14.5100  -15.8300   25.1200 O.co2     3 ASP3        0.0000 
     54 OD1        13.5300  -14.7500   24.7500 O.co2     3 ASP3        0.0000 
     55 OD1        13.4200  -17.3000   29.7500 O.co2     3 ASP3        0.0000 
     56 OD1        15.2500  -16.4100   27.5500 O.co2     3 ASP3        0.0000 
     57 OD1        16.1600  -15.9700   26.4400 O.co2     3 ASP3        0.0000 
     58 OD1        15.1900  -14.8900   26.0700 O.co2     3 ASP3        0.0000 
     59 OD1        15.0700  -17.4400   31.0700 O.co2     3 ASP3        0.0000 
     60 OD1        15.9900  -16.9900   29.9700 O.co2     3 ASP3        0.0000 
     61 OD1        16.9000  -16.5500   28.8700 O.co2     3 ASP3        0.0000 
     62 OD1        14.1000  -16.3600   30.7000 O.co2     3 ASP3        0.0000 
     63 OD1        15.0100  -15.9100   29.5900 O.co2     3 ASP3        0.0000 
     64 OD1        14.0400  -14.8300   29.2200 O.co2     3 ASP3        0.0000 
     65 OD1        16.7300  -17.5700   32.3900 O.co2     3 ASP3        0.0000 
     66 OD1        17.6400  -17.1300   31.2900 O.co2     3 ASP3        0.0000 
     67 OD1        14.8400  -16.9400   33.1200 O.co2     3 ASP3        0.0000 
     68 NZ         11.6400  -19.7100   33.4300 N.4       4 LYS4        0.0000 
     69 NZ         12.3200  -18.7700   34.3800 N.4       4 LYS4        0.0000 
     70 NZ         11.3500  -17.6900   34.0000 N.4       4 LYS4        0.0000 
     71 NZ         13.9200  -17.3800   34.2200 N.4       4 LYS4        0.0000 
     72 CZ         18.0500  -22.1900   33.6700 C.ar      5 PHE5        0.0000 
     73 CZ         17.0700  -21.1200   33.2900 C.ar      5 PHE5        0.0000 
     74 CZ         17.9900  -20.6700   32.1900 C.ar      5 PHE5        0.0000 
     75 CA         13.4900  -21.2600   24.1300 C.3       6 GLY6        0.0000 
     76 CA         12.5200  -20.1800   23.7600 C.3       6 GLY6        0.0000 
     77 CA         13.2600  -20.7600   26.1800 C.3       6 GLY6        0.0000 
     78 CA         12.2900  -19.6800   25.8100 C.3       6 GLY6        0.0000 
     79 CA         13.1400  -17.7200   23.2300 C.3       6 GLY6        0.0000 
     80 CA         15.7700  -18.9300   24.9300 C.3       6 GLY6        0.0000 
     81 CA         12.8500  -15.7000   23.8000 C.3       6 GLY6        0.0000 
     82 CA         11.9300  -21.7300   32.8600 C.3       6 GLY6        0.0000 
     83 CA         10.9600  -20.6500   32.4800 C.3       6 GLY6        0.0000 
     84 CA         10.9000  -19.1300   31.0100 C.3       6 GLY6        0.0000 
     85 CA         17.3700  -23.1400   32.7200 C.3       6 GLY6        0.0000 
     86 CA         18.2800  -22.6900   31.6200 C.3       6 GLY6        0.0000 
     87 CA         15.4800  -22.5000   33.4500 C.3       6 GLY6        0.0000 
     88 CA         16.3900  -22.0600   32.3500 C.3       6 GLY6        0.0000 
     89 CA         17.3100  -21.6100   31.2500 C.3       6 GLY6        0.0000 
     90 CA         15.4200  -20.9800   31.9700 C.3       6 GLY6        0.0000 
     91 CA         10.6700  -18.6300   33.0600 C.3       6 GLY6        0.0000 
     92 CA         11.5800  -18.1900   31.9500 C.3       6 GLY6        0.0000 
     93 CA         12.5000  -17.7400   30.8500 C.3       6 GLY6        0.0000 
     94 CA         18.9600  -21.7500   32.5700 C.3       6 GLY6        0.0000 
     95 CA         18.9100  -20.2300   31.0900 C.3       6 GLY6        0.0000 
     96 CA         12.2700  -17.2400   32.9000 C.3       6 GLY6        0.0000 
     97 CA         13.1800  -16.8000   31.8000 C.3       6 GLY6        0.0000 
     98 CA         10.3800  -16.6100   33.6300 C.3       6 GLY6        0.0000 
     99 CA         12.2100  -15.7200   31.4300 C.3       6 GLY6        0.0000 
    100 DU         13.2000  -19.2400   24.7100 H         7 CUB7        0.0000 
    101 DU         13.2400  -18.3200   33.2700 H         7 CUB7        0.0000 
    102 DU         14.1600  -17.8800   32.1700 H         7 CUB7        0.0000 
@<TRIPOS>BOND
@<TRIPOS>SUBSTRUCTURE
     1 SER1        1 GROUP   
     2 ALA2       12 GROUP   
     3 ASP3       47 GROUP   
     4 LYS4       68 GROUP   
     5 PHE5       72 GROUP   
     6 GLY6       75 GROUP   
     7 CUB7      100 GROUP   
@<TRIPOS>SET

