#    Name: 6h6v_6_FMN
#    Modification time : Fri May 22 19:25:04 2020

@<TRIPOS>MOLECULE
6h6v_6_FMN
   31    33     1     0     1
SMALL
NO_CHARGES


@<TRIPOS>ATOM
      1 N1          9.8560   21.7300   69.5770 N.2       1 FMN501      0.0000 
      2 C2          8.8090   20.8870   69.7340 C.2       1 FMN501      0.0000 
      3 O2          9.0310   19.6540   69.6530 O.2       1 FMN501      0.0000 
      4 N3          7.5520   21.3290   69.9810 N.am      1 FMN501      0.0000 
      5 C4          7.2540   22.6310   70.0970 C.2       1 FMN501      0.0000 
      6 O4          6.0950   23.0550   70.3510 O.2       1 FMN501      0.0000 
      7 C4A         8.3630   23.5730   69.9330 C.2       1 FMN501      0.0000 
      8 N5          8.1380   24.8650   70.0430 N.2       1 FMN501      0.0000 
      9 C5A         9.1340   25.7340   69.9120 C.ar      1 FMN501      0.0000 
     10 C6          8.7970   27.0590   70.0540 C.ar      1 FMN501      0.0000 
     11 C7          9.7700   28.0190   69.9350 C.ar      1 FMN501      0.0000 
     12 C7M         9.2420   29.4050   70.1350 C.3       1 FMN501      0.0000 
     13 C8         11.2070   27.6330   69.6470 C.ar      1 FMN501      0.0000 
     14 C8M        12.3410   28.6170   69.4760 C.3       1 FMN501      0.0000 
     15 C9         11.5260   26.2870   69.5100 C.ar      1 FMN501      0.0000 
     16 C9A        10.5360   25.3060   69.6300 C.ar      1 FMN501      0.0000 
     17 N10        10.7820   23.9230   69.5170 N.pl3     1 FMN501      0.0000 
     18 C10         9.6990   23.0540   69.6510 C.2       1 FMN501      0.0000 
     19 C1'        12.0960   23.3670   69.1730 C.3       1 FMN501      0.0000 
     20 C2'        12.9430   22.7760   70.2710 C.3       1 FMN501      0.0000 
     21 O2'        12.8620   23.4640   71.5280 O.3       1 FMN501      0.0000 
     22 C3'        14.3410   22.9170   69.7420 C.3       1 FMN501      0.0000 
     23 O3'        14.4340   22.4290   68.4160 O.3       1 FMN501      0.0000 
     24 C4'        15.3110   22.2140   70.6340 C.3       1 FMN501      0.0000 
     25 O4'        16.6030   22.5480   70.0670 O.3       1 FMN501      0.0000 
     26 C5'        15.0380   20.6980   70.7910 C.3       1 FMN501      0.0000 
     27 O5'        16.2950   20.0150   70.9890 O.3       1 FMN501      0.0000 
     28 P          16.7260   18.9030   72.0840 P.3       1 FMN501      0.0000 
     29 O1P        15.5960   17.9090   71.9670 O.co2     1 FMN501      0.0000 
     30 O2P        18.1280   18.5170   71.6420 O.co2     1 FMN501      0.0000 
     31 O3P        16.7620   19.6060   73.4130 O.co2     1 FMN501      0.0000 
@<TRIPOS>BOND
     1    1    2 1    
     2    1   18 2    
     3    2    3 2    
     4    2    4 am   
     5    4    5 am   
     6    5    6 2    
     7    5    7 1    
     8    7    8 2    
     9    7   18 1    
    10    8    9 1    
    11    9   10 ar   
    12    9   16 ar   
    13   10   11 ar   
    14   11   12 1    
    15   11   13 ar   
    16   13   14 1    
    17   13   15 ar   
    18   15   16 ar   
    19   16   17 1    
    20   17   18 1    
    21   17   19 1    
    22   19   20 1    
    23   20   21 1    
    24   20   22 1    
    25   22   23 1    
    26   22   24 1    
    27   24   25 1    
    28   24   26 1    
    29   26   27 1    
    30   27   28 1    
    31   28   29 ar   
    32   28   30 ar   
    33   28   31 ar   
@<TRIPOS>SUBSTRUCTURE
     1 FMN501      1 GROUP   
@<TRIPOS>SET
ATOM$ORANGE STATIC     ATOMS   COLORGROUP SYSTEM 
34 2 2 5 5 7 7 9 9 10 10 11 11 12 12 13 13 14 \
14 15 15 16 16 18 18 19 19 20 20 22 22 24 24 26 26 

