#    Name: 6h6v_6_FMN_CAVITY_N1_6
#    Modification time : Fri May 22 19:25:06 2020

@<TRIPOS>MOLECULE
6h6v_6_FMN_CAVITY_N1_6
   75     0     7     0     0
SMALL
NO_CHARGES


@<TRIPOS>ATOM
      1 OG          9.3700   25.7500   68.2300 O.3       1 SER1        0.0000 
      2 OG         10.0500   26.6900   69.1700 O.3       1 SER1        0.0000 
      3 OG         10.9700   27.1400   68.0700 O.3       1 SER1        0.0000 
      4 OG          8.1600   27.3300   69.9000 O.3       1 SER1        0.0000 
      5 N           8.8000   21.7600   70.2300 N.am      2 ALA2        0.0000 
      6 N           9.7200   22.2100   69.1300 N.am      2 ALA2        0.0000 
      7 N           7.8300   22.8400   69.8600 N.am      2 ALA2        0.0000 
      8 O           6.8600   23.9200   69.4900 O.2       2 ALA2        0.0000 
      9 N          11.3100   23.5900   68.9800 N.am      2 ALA2        0.0000 
     10 O          12.2300   24.0400   67.8700 O.2       2 ALA2        0.0000 
     11 O          13.1500   24.4800   66.7700 O.2       2 ALA2        0.0000 
     12 N           9.4300   24.2300   69.7000 N.am      2 ALA2        0.0000 
     13 O           7.5400   24.8600   70.4300 O.2       2 ALA2        0.0000 
     14 N          12.0000   24.5400   69.9200 N.am      2 ALA2        0.0000 
     15 N          11.0200   25.6200   69.5500 N.am      2 ALA2        0.0000 
     16 O          11.9400   26.0600   68.4500 O.2       2 ALA2        0.0000 
     17 O          12.8500   26.5000   67.3400 O.2       2 ALA2        0.0000 
     18 O           7.2500   26.8900   71.0000 O.2       2 ALA2        0.0000 
     19 N          11.7100   26.5600   70.4900 N.am      2 ALA2        0.0000 
     20 N           7.9300   27.8300   71.9500 N.am      2 ALA2        0.0000 
     21 N           7.8700   29.3500   70.4800 N.am      2 ALA2        0.0000 
     22 N           9.5300   29.2100   71.8000 N.am      2 ALA2        0.0000 
     23 OD1        10.8700   22.1500   65.9800 O.co2     3 ASP3        0.0000 
     24 OD1        11.7800   22.6000   64.8800 O.co2     3 ASP3        0.0000 
     25 OD1        10.8100   23.6700   64.5000 O.co2     3 ASP3        0.0000 
     26 OD1        10.6300   22.6500   68.0300 O.co2     3 ASP3        0.0000 
     27 OD1        11.5500   23.0900   66.9300 O.co2     3 ASP3        0.0000 
     28 OD1        12.4600   23.5400   65.8200 O.co2     3 ASP3        0.0000 
     29 OD1        10.5800   24.1700   66.5500 O.co2     3 ASP3        0.0000 
     30 OD1         9.6000   25.2500   66.1800 O.co2     3 ASP3        0.0000 
     31 OD1        11.2600   25.1200   67.5000 O.co2     3 ASP3        0.0000 
     32 OD1        12.1700   25.5600   66.4000 O.co2     3 ASP3        0.0000 
     33 OD1        10.2800   26.2000   67.1300 O.co2     3 ASP3        0.0000 
     34 OD1        11.8800   27.5800   66.9700 O.co2     3 ASP3        0.0000 
     35 NZ         12.9900   21.0200   63.2000 N.4       4 LYS4        0.0000 
     36 NZ          6.3500   24.0000   65.0200 N.4       4 LYS4        0.0000 
     37 NZ          7.0900   23.4200   67.4400 N.4       4 LYS4        0.0000 
     38 NZ          8.0000   23.8700   66.3400 N.4       4 LYS4        0.0000 
     39 NZ          7.7700   24.3600   68.3800 N.4       4 LYS4        0.0000 
     40 NZ          8.6900   24.8100   67.2800 N.4       4 LYS4        0.0000 
     41 NZ          6.8000   25.4400   68.0100 N.4       4 LYS4        0.0000 
     42 NZ          7.7100   25.8900   66.9100 N.4       4 LYS4        0.0000 
     43 CZ         10.1300   22.7300   63.5600 C.ar      5 PHE5        0.0000 
     44 CZ          7.3200   22.9200   65.3900 C.ar      5 PHE5        0.0000 
     45 CZ          8.2400   23.3700   64.2900 C.ar      5 PHE5        0.0000 
     46 CZ          8.9200   24.3100   65.2300 C.ar      5 PHE5        0.0000 
     47 CZ          8.6300   26.3300   65.8100 C.ar      5 PHE5        0.0000 
     48 CZ         11.6500   28.0800   69.0200 C.ar      5 PHE5        0.0000 
     49 CZ          9.7600   28.7200   69.7500 C.ar      5 PHE5        0.0000 
     50 CZ         11.3600   30.1000   69.5900 C.ar      5 PHE5        0.0000 
     51 CA          5.0400   20.5900   64.6000 C.3       6 GLY6        0.0000 
     52 CA          7.6100   20.9000   64.8200 C.3       6 GLY6        0.0000 
     53 CA          6.6400   21.9800   64.4400 C.3       6 GLY6        0.0000 
     54 CA         11.1000   21.6500   63.9300 C.3       6 GLY6        0.0000 
     55 CA          7.3800   21.4000   66.8600 C.3       6 GLY6        0.0000 
     56 CA          9.2100   22.2900   64.6600 C.3       6 GLY6        0.0000 
     57 CA          6.4100   22.4800   66.4900 C.3       6 GLY6        0.0000 
     58 CA          8.1200   20.8200   69.2900 C.3       6 GLY6        0.0000 
     59 CA          7.1500   21.9000   68.9100 C.3       6 GLY6        0.0000 
     60 CA          8.0600   22.3400   67.8100 C.3       6 GLY6        0.0000 
     61 CA          8.9800   22.7900   66.7100 C.3       6 GLY6        0.0000 
     62 CA          9.8900   23.2300   65.6100 C.3       6 GLY6        0.0000 
     63 CA          6.1700   22.9800   68.5400 C.3       6 GLY6        0.0000 
     64 CA          8.2200   25.8100   71.3800 C.3       6 GLY6        0.0000 
     65 CA          9.1400   26.2500   70.2800 C.3       6 GLY6        0.0000 
     66 CA          9.8200   27.1900   71.2200 C.3       6 GLY6        0.0000 
     67 CA         10.7300   27.6400   70.1200 C.3       6 GLY6        0.0000 
     68 CA          8.8400   28.2700   70.8500 C.3       6 GLY6        0.0000 
     69 CA         11.4100   28.5800   71.0700 C.3       6 GLY6        0.0000 
     70 CA         12.3300   29.0200   69.9700 C.3       6 GLY6        0.0000 
     71 CA         10.4400   29.6600   70.6900 C.3       6 GLY6        0.0000 
     72 DU          8.7400   23.2900   68.7600 H         7 CUB7        0.0000 
     73 DU          9.6600   23.7300   67.6600 H         7 CUB7        0.0000 
     74 DU         10.3400   24.6700   68.6000 H         7 CUB7        0.0000 
     75 DU          8.4500   25.3100   69.3300 H         7 CUB7        0.0000 
@<TRIPOS>BOND
@<TRIPOS>SUBSTRUCTURE
     1 SER1        1 GROUP   
     2 ALA2        5 GROUP   
     3 ASP3       23 GROUP   
     4 LYS4       35 GROUP   
     5 PHE5       43 GROUP   
     6 GLY6       51 GROUP   
     7 CUB7       72 GROUP   
@<TRIPOS>SET

