#    Name: 6h6v_2_FMN_CAVITY_N1_4
#    Modification time : Fri May 22 19:24:37 2020

@<TRIPOS>MOLECULE
6h6v_2_FMN_CAVITY_N1_4
   83     0     7     0     0
SMALL
NO_CHARGES


@<TRIPOS>ATOM
      1 OG        -16.8200   25.7000   15.8300 O.3       1 SER1        0.0000 
      2 OG        -17.7900   26.7800   15.4600 O.3       1 SER1        0.0000 
      3 OG        -15.1600   25.5600   17.1500 O.3       1 SER1        0.0000 
      4 OG        -14.2500   26.0100   16.0500 O.3       1 SER1        0.0000 
      5 OG        -16.1300   26.6400   16.7800 O.3       1 SER1        0.0000 
      6 OG        -15.2200   27.0800   15.6700 O.3       1 SER1        0.0000 
      7 OG        -18.4900   28.2700   21.6000 O.3       1 SER1        0.0000 
      8 N         -18.9400   26.8300   18.6100 N.am      2 ALA2        0.0000 
      9 N         -18.0200   27.2700   17.5000 N.am      2 ALA2        0.0000 
     10 O         -16.1900   28.1600   15.3000 O.2       2 ALA2        0.0000 
     11 O         -15.2800   28.6100   14.2000 O.2       2 ALA2        0.0000 
     12 N         -17.1700   29.2400   14.9300 N.am      2 ALA2        0.0000 
     13 N         -17.2800   26.7000   19.9300 N.am      2 ALA2        0.0000 
     14 O         -15.4500   27.5800   17.7200 O.2       2 ALA2        0.0000 
     15 O         -14.5400   28.0300   16.6200 O.2       2 ALA2        0.0000 
     16 N         -20.0900   26.8900   21.7600 N.am      2 ALA2        0.0000 
     17 N         -19.1700   27.3300   20.6600 N.am      2 ALA2        0.0000 
     18 N         -18.2600   27.7700   19.5500 N.am      2 ALA2        0.0000 
     19 N         -17.3400   28.2200   18.4500 N.am      2 ALA2        0.0000 
     20 O         -16.4300   28.6600   17.3500 O.2       2 ALA2        0.0000 
     21 O         -14.7700   28.5300   18.6700 O.2       2 ALA2        0.0000 
     22 O         -13.8600   28.9700   17.5700 O.2       2 ALA2        0.0000 
     23 N         -17.5700   28.7200   20.5000 N.am      2 ALA2        0.0000 
     24 N         -16.6600   29.1600   19.4000 N.am      2 ALA2        0.0000 
     25 O         -15.7400   29.6000   18.3000 O.2       2 ALA2        0.0000 
     26 N         -17.6300   30.2400   19.0200 N.am      2 ALA2        0.0000 
     27 O         -15.0600   30.5500   19.2400 O.2       2 ALA2        0.0000 
     28 O         -16.0300   31.6300   18.8700 O.2       2 ALA2        0.0000 
     29 N         -17.0100   32.7100   18.4900 N.am      2 ALA2        0.0000 
     30 O         -13.4600   31.9300   19.0900 O.2       2 ALA2        0.0000 
     31 O         -12.5500   32.3800   17.9800 O.2       2 ALA2        0.0000 
     32 O         -15.3500   32.5700   19.8100 O.2       2 ALA2        0.0000 
     33 O         -14.4400   33.0100   18.7100 O.2       2 ALA2        0.0000 
     34 N         -16.3300   33.6500   19.4400 N.am      2 ALA2        0.0000 
     35 N         -12.7800   32.8800   20.0300 N.am      2 ALA2        0.0000 
     36 N         -11.8700   33.3200   18.9300 N.am      2 ALA2        0.0000 
     37 OD1       -15.4000   26.0600   19.2000 O.co2     3 ASP3        0.0000 
     38 OD1       -14.4800   26.5000   18.1000 O.co2     3 ASP3        0.0000 
     39 OD1       -13.8000   27.4500   19.0400 O.co2     3 ASP3        0.0000 
     40 OD1       -15.6900   28.0800   19.7700 O.co2     3 ASP3        0.0000 
     41 OD1       -14.0300   27.9500   21.0900 O.co2     3 ASP3        0.0000 
     42 OD1       -13.1200   28.3900   19.9900 O.co2     3 ASP3        0.0000 
     43 OD1       -14.0900   29.4700   19.6200 O.co2     3 ASP3        0.0000 
     44 OD1       -13.1700   29.9100   18.5100 O.co2     3 ASP3        0.0000 
     45 OD1       -15.9800   30.1000   20.3400 O.co2     3 ASP3        0.0000 
     46 OD1       -13.4100   30.4100   20.5600 O.co2     3 ASP3        0.0000 
     47 OD1       -12.4900   30.8600   19.4600 O.co2     3 ASP3        0.0000 
     48 OD1       -11.5800   31.3000   18.3600 O.co2     3 ASP3        0.0000 
     49 OD1       -14.3800   31.4900   20.1900 O.co2     3 ASP3        0.0000 
     50 OD1       -16.2700   32.1300   20.9200 O.co2     3 ASP3        0.0000 
     51 OD1       -11.8100   31.8000   20.4100 O.co2     3 ASP3        0.0000 
     52 OD1       -13.7000   32.4300   21.1300 O.co2     3 ASP3        0.0000 
     53 OD1       -15.5900   33.0700   21.8600 O.co2     3 ASP3        0.0000 
     54 NZ        -16.9400   23.1500   20.8300 N.4       4 LYS4        0.0000 
     55 NZ        -16.9900   24.6700   19.3500 N.4       4 LYS4        0.0000 
     56 NZ        -16.0800   25.1200   18.2500 N.4       4 LYS4        0.0000 
     57 CZ        -17.5600   26.2800   13.4100 C.ar      5 PHE5        0.0000 
     58 CZ        -16.8700   27.2200   14.3500 C.ar      5 PHE5        0.0000 
     59 CZ        -15.9600   27.6600   13.2500 C.ar      5 PHE5        0.0000 
     60 CA        -18.7100   26.3300   16.5600 C.3       6 GLY6        0.0000 
     61 CA        -17.8500   28.3000   13.9800 C.3       6 GLY6        0.0000 
     62 CA        -16.9300   28.7400   12.8800 C.3       6 GLY6        0.0000 
     63 CA        -17.9100   24.2300   20.4600 C.3       6 GLY6        0.0000 
     64 CA        -19.8000   24.8600   21.1800 C.3       6 GLY6        0.0000 
     65 CA        -18.8800   25.3100   20.0800 C.3       6 GLY6        0.0000 
     66 CA        -19.8500   26.3900   19.7100 C.3       6 GLY6        0.0000 
     67 CA        -18.0800   28.8000   16.0300 C.3       6 GLY6        0.0000 
     68 CA        -16.2500   24.0900   21.7800 C.3       6 GLY6        0.0000 
     69 CA        -17.2300   25.1700   21.4000 C.3       6 GLY6        0.0000 
     70 CA        -16.3100   25.6200   20.3000 C.3       6 GLY6        0.0000 
     71 CA        -19.1200   25.8100   22.1300 C.3       6 GLY6        0.0000 
     72 CA        -18.2000   26.2500   21.0300 C.3       6 GLY6        0.0000 
     73 CA        -15.6300   26.5600   21.2500 C.3       6 GLY6        0.0000 
     74 CA        -14.7100   27.0000   20.1400 C.3       6 GLY6        0.0000 
     75 CA        -17.5200   27.1900   21.9800 C.3       6 GLY6        0.0000 
     76 CA        -16.6000   27.6400   20.8700 C.3       6 GLY6        0.0000 
     77 CA        -17.2400   33.2000   20.5400 C.3       6 GLY6        0.0000 
     78 DU        -17.9700   25.7500   18.9800 H         7 CUB7        0.0000 
     79 DU        -17.0500   26.2000   17.8800 H         7 CUB7        0.0000 
     80 DU        -17.1100   27.7200   16.4000 H         7 CUB7        0.0000 
     81 DU        -16.3700   27.1400   18.8200 H         7 CUB7        0.0000 
     82 DU        -16.9500   31.1800   19.9700 H         7 CUB7        0.0000 
     83 DU        -16.5600   34.1500   21.4900 H         7 CUB7        0.0000 
@<TRIPOS>BOND
@<TRIPOS>SUBSTRUCTURE
     1 SER1        1 GROUP   
     2 ALA2        8 GROUP   
     3 ASP3       37 GROUP   
     4 LYS4       54 GROUP   
     5 PHE5       57 GROUP   
     6 GLY6       60 GROUP   
     7 CUB7       78 GROUP   
@<TRIPOS>SET

