#    Name: 6h6v_2_FMN
#    Modification time : Fri May 22 19:24:35 2020

@<TRIPOS>MOLECULE
6h6v_2_FMN
   31    33     1     0     1
SMALL
NO_CHARGES


@<TRIPOS>ATOM
      1 N1        -17.9080   27.9880   21.2190 N.2       1 FMN501      0.0000 
      2 C2        -18.6210   27.3790   22.1760 C.2       1 FMN501      0.0000 
      3 O2        -18.5140   27.7980   23.3380 O.2       1 FMN501      0.0000 
      4 N3        -19.4340   26.3460   21.9290 N.am      1 FMN501      0.0000 
      5 C4        -19.5850   25.8350   20.6970 C.2       1 FMN501      0.0000 
      6 O4        -20.3550   24.8820   20.4420 O.2       1 FMN501      0.0000 
      7 C4A       -18.8450   26.4470   19.5900 C.2       1 FMN501      0.0000 
      8 N5        -19.0030   26.0020   18.3250 N.2       1 FMN501      0.0000 
      9 C5A       -18.3250   26.6180   17.3470 C.ar      1 FMN501      0.0000 
     10 C6        -18.4930   26.1560   16.0700 C.ar      1 FMN501      0.0000 
     11 C7        -17.8320   26.7780   15.0290 C.ar      1 FMN501      0.0000 
     12 C7M       -18.0640   26.2170   13.6670 C.3       1 FMN501      0.0000 
     13 C8        -16.9150   27.9200   15.2780 C.ar      1 FMN501      0.0000 
     14 C8M       -16.1500   28.6070   14.1810 C.3       1 FMN501      0.0000 
     15 C9        -16.7440   28.3650   16.5620 C.ar      1 FMN501      0.0000 
     16 C9A       -17.4010   27.7730   17.6200 C.ar      1 FMN501      0.0000 
     17 N10       -17.2490   28.2410   18.9440 N.pl3     1 FMN501      0.0000 
     18 C10       -17.9710   27.5840   19.9460 C.2       1 FMN501      0.0000 
     19 C1'       -16.3740   29.3320   19.3410 C.3       1 FMN501      0.0000 
     20 C2'       -17.0020   30.6900   19.4380 C.3       1 FMN501      0.0000 
     21 O2'       -17.9440   30.8380   18.3610 O.3       1 FMN501      0.0000 
     22 C3'       -15.8410   31.7050   19.4020 C.3       1 FMN501      0.0000 
     23 O3'       -14.8130   31.3670   20.3230 O.3       1 FMN501      0.0000 
     24 C4'       -16.3070   33.1120   19.6990 C.3       1 FMN501      0.0000 
     25 O4'       -15.2960   34.0990   19.3570 O.3       1 FMN501      0.0000 
     26 C5'       -16.7380   33.3590   21.1420 C.3       1 FMN501      0.0000 
     27 O5'       -17.1660   34.7110   21.1500 O.3       1 FMN501      0.0000 
     28 P         -16.9940   35.6390   22.4240 P.3       1 FMN501      0.0000 
     29 O1P       -17.7670   34.8630   23.4680 O.co2     1 FMN501      0.0000 
     30 O2P       -15.5140   35.7470   22.7540 O.co2     1 FMN501      0.0000 
     31 O3P       -17.6900   36.8860   21.9130 O.co2     1 FMN501      0.0000 
@<TRIPOS>BOND
     1    1    2 1    
     2    1   18 2    
     3    2    3 2    
     4    2    4 am   
     5    4    5 am   
     6    5    6 2    
     7    5    7 1    
     8    7    8 2    
     9    7   18 1    
    10    8    9 1    
    11    9   10 ar   
    12    9   16 ar   
    13   10   11 ar   
    14   11   12 1    
    15   11   13 ar   
    16   13   14 1    
    17   13   15 ar   
    18   15   16 ar   
    19   16   17 1    
    20   17   18 1    
    21   17   19 1    
    22   19   20 1    
    23   20   21 1    
    24   20   22 1    
    25   22   23 1    
    26   22   24 1    
    27   24   25 1    
    28   24   26 1    
    29   26   27 1    
    30   27   28 1    
    31   28   29 ar   
    32   28   30 ar   
    33   28   31 ar   
@<TRIPOS>SUBSTRUCTURE
     1 FMN501      1 GROUP   
@<TRIPOS>SET
ATOM$ORANGE STATIC     ATOMS   COLORGROUP SYSTEM 
34 2 2 5 5 7 7 9 9 10 10 11 11 12 12 13 13 14 \
14 15 15 16 16 18 18 19 19 20 20 22 22 24 24 26 26 

