#    Name: 6h6v_5_FMN_CAVITY_N1_4
#    Modification time : Fri May 22 19:24:58 2020

@<TRIPOS>MOLECULE
6h6v_5_FMN_CAVITY_N1_4
  124     0     7     0     0
SMALL
NO_CHARGES


@<TRIPOS>ATOM
      1 OG         47.2100    9.0900   48.0400 O.3       1 SER1        0.0000 
      2 OG         50.7600    8.3200   48.6400 O.3       1 SER1        0.0000 
      3 OG         51.6700    8.7700   47.5300 O.3       1 SER1        0.0000 
      4 OG         48.8700    8.9600   49.3600 O.3       1 SER1        0.0000 
      5 OG         49.7900    9.4000   48.2600 O.3       1 SER1        0.0000 
      6 OG         50.7000    9.8400   47.1600 O.3       1 SER1        0.0000 
      7 OG         47.9000   10.0400   48.9900 O.3       1 SER1        0.0000 
      8 OG         48.8100   10.4800   47.8900 O.3       1 SER1        0.0000 
      9 OG         43.3000   15.8500   53.6400 O.3       1 SER1        0.0000 
     10 OG         44.9600   15.7100   54.9600 O.3       1 SER1        0.0000 
     11 OG         43.9900   16.7900   54.5900 O.3       1 SER1        0.0000 
     12 OG         43.0100   17.8700   54.2100 O.3       1 SER1        0.0000 
     13 N          47.2700    7.5700   49.5200 N.am      2 ALA2        0.0000 
     14 N          51.7300    7.2400   49.0100 N.am      2 ALA2        0.0000 
     15 N          52.6500    7.6900   47.9100 N.am      2 ALA2        0.0000 
     16 O          47.9500    8.5100   50.4700 O.2       2 ALA2        0.0000 
     17 N          52.4100    8.1900   49.9600 N.am      2 ALA2        0.0000 
     18 O          48.6400    9.4600   51.4100 O.2       2 ALA2        0.0000 
     19 O          49.5500    9.9000   50.3100 O.2       2 ALA2        0.0000 
     20 O          52.3000   11.2300   47.0000 O.2       2 ALA2        0.0000 
     21 O          48.5800   10.9800   49.9400 O.2       2 ALA2        0.0000 
     22 O          46.6900   11.6100   50.6700 O.2       2 ALA2        0.0000 
     23 O          47.6100   12.0600   49.5600 O.2       2 ALA2        0.0000 
     24 N          51.1500   11.2900   50.1500 N.am      2 ALA2        0.0000 
     25 N          52.0600   11.7300   49.0500 N.am      2 ALA2        0.0000 
     26 N          49.2600   11.9200   50.8800 N.am      2 ALA2        0.0000 
     27 N          50.1800   12.3600   49.7800 N.am      2 ALA2        0.0000 
     28 N          51.0900   12.8100   48.6800 N.am      2 ALA2        0.0000 
     29 O          52.0100   13.2500   47.5800 O.2       2 ALA2        0.0000 
     30 O          48.2900   13.0000   50.5100 O.2       2 ALA2        0.0000 
     31 N          49.2000   13.4400   49.4100 N.am      2 ALA2        0.0000 
     32 N          50.1200   13.8900   48.3100 N.am      2 ALA2        0.0000 
     33 O          44.5700   12.7500   53.4400 O.2       2 ALA2        0.0000 
     34 O          45.4800   13.1900   52.3400 O.2       2 ALA2        0.0000 
     35 N          42.6800   13.3800   54.1700 N.am      2 ALA2        0.0000 
     36 O          47.1400   13.0500   53.6600 O.2       2 ALA2        0.0000 
     37 O          48.0500   13.5000   52.5600 O.2       2 ALA2        0.0000 
     38 N          48.9700   13.9400   51.4600 N.am      2 ALA2        0.0000 
     39 N          49.8900   14.3900   50.3500 N.am      2 ALA2        0.0000 
     40 N          50.8000   14.8300   49.2500 N.am      2 ALA2        0.0000 
     41 N          51.7200   15.2700   48.1500 N.am      2 ALA2        0.0000 
     42 N          45.2500   13.6900   54.3900 N.am      2 ALA2        0.0000 
     43 O          46.1700   14.1300   53.2900 O.2       2 ALA2        0.0000 
     44 N          44.2800   14.7700   54.0100 N.am      2 ALA2        0.0000 
     45 N          47.8200   14.0000   54.6100 N.am      2 ALA2        0.0000 
     46 N          49.6500   14.8900   52.4000 N.am      2 ALA2        0.0000 
     47 N          45.9300   14.6300   55.3300 N.am      2 ALA2        0.0000 
     48 N          48.5000   14.9400   55.5500 N.am      2 ALA2        0.0000 
     49 N          46.6100   15.5800   56.2800 N.am      2 ALA2        0.0000 
     50 N          45.6400   16.6500   55.9100 N.am      2 ALA2        0.0000 
     51 OD1        46.3000    8.6500   49.1500 O.co2     3 ASP3        0.0000 
     52 OD1        46.0100   10.6700   49.7200 O.co2     3 ASP3        0.0000 
     53 OD1        46.9200   11.1100   48.6200 O.co2     3 ASP3        0.0000 
     54 OD1        47.8400   11.5600   47.5100 O.co2     3 ASP3        0.0000 
     55 OD1        46.8700   12.6400   47.1400 O.co2     3 ASP3        0.0000 
     56 OD1        44.8000   12.2500   51.3900 O.co2     3 ASP3        0.0000 
     57 OD1        45.7200   12.6900   50.2900 O.co2     3 ASP3        0.0000 
     58 OD1        46.6300   13.1400   49.1900 O.co2     3 ASP3        0.0000 
     59 OD1        42.9100   12.8800   52.1200 O.co2     3 ASP3        0.0000 
     60 OD1        44.7400   13.7700   49.9200 O.co2     3 ASP3        0.0000 
     61 OD1        46.4000   13.6300   51.2400 O.co2     3 ASP3        0.0000 
     62 OD1        47.3100   14.0800   50.1400 O.co2     3 ASP3        0.0000 
     63 OD1        48.2300   14.5200   49.0300 O.co2     3 ASP3        0.0000 
     64 OD1        43.6000   13.8300   53.0700 O.co2     3 ASP3        0.0000 
     65 OD1        44.5100   14.2700   51.9700 O.co2     3 ASP3        0.0000 
     66 OD1        42.6200   14.9000   52.6900 O.co2     3 ASP3        0.0000 
     67 OD1        43.5400   15.3500   51.5900 O.co2     3 ASP3        0.0000 
     68 OD1        47.0800   14.5800   52.1800 O.co2     3 ASP3        0.0000 
     69 OD1        48.0000   15.0200   51.0800 O.co2     3 ASP3        0.0000 
     70 OD1        48.9100   15.4700   49.9800 O.co2     3 ASP3        0.0000 
     71 OD1        45.1900   15.2100   52.9100 O.co2     3 ASP3        0.0000 
     72 OD1        44.2200   16.2900   52.5400 O.co2     3 ASP3        0.0000 
     73 OD1        47.7600   15.5200   53.1300 O.co2     3 ASP3        0.0000 
     74 OD1        45.8700   16.1600   53.8600 O.co2     3 ASP3        0.0000 
     75 OD1        46.7900   16.6000   52.7600 O.co2     3 ASP3        0.0000 
     76 OD1        44.9000   17.2300   53.4900 O.co2     3 ASP3        0.0000 
     77 OD1        47.3000   16.5200   57.2300 O.co2     3 ASP3        0.0000 
     78 NZ         51.6200   10.2900   46.0600 N.4       4 LYS4        0.0000 
     79 NZ         49.7300   10.9200   46.7900 N.4       4 LYS4        0.0000 
     80 NZ         48.7500   12.0000   46.4100 N.4       4 LYS4        0.0000 
     81 NZ         49.6700   12.4500   45.3100 N.4       4 LYS4        0.0000 
     82 NZ         51.3300   12.3100   46.6300 N.4       4 LYS4        0.0000 
     83 NZ         52.2400   12.7500   45.5300 N.4       4 LYS4        0.0000 
     84 NZ         50.3500   13.3900   46.2600 N.4       4 LYS4        0.0000 
     85 CZ         51.9600    6.7400   46.9600 C.ar      5 PHE5        0.0000 
     86 CZ         51.9100    8.2700   45.4800 C.ar      5 PHE5        0.0000 
     87 CZ         48.9300    7.4300   50.8400 C.ar      5 PHE5        0.0000 
     88 CZ         49.8400    7.8800   49.7400 C.ar      5 PHE5        0.0000 
     89 CA         49.9000    6.3500   51.2100 C.3       6 GLY6        0.0000 
     90 CA         50.8200    6.8000   50.1100 C.3       6 GLY6        0.0000 
     91 CA         51.5000    7.7400   51.0600 C.3       6 GLY6        0.0000 
     92 CA         49.6100    8.3800   51.7900 C.3       6 GLY6        0.0000 
     93 CA         50.5200    8.8200   50.6800 C.3       6 GLY6        0.0000 
     94 CA         51.4400    9.2600   49.5800 C.3       6 GLY6        0.0000 
     95 CA         52.3600    9.7100   48.4800 C.3       6 GLY6        0.0000 
     96 CA         53.2700   10.1500   47.3800 C.3       6 GLY6        0.0000 
     97 CA         51.2700   13.8300   45.1500 C.3       6 GLY6        0.0000 
     98 CA         47.5500   13.5800   48.0900 C.3       6 GLY6        0.0000 
     99 CA         48.4600   14.0200   46.9800 C.3       6 GLY6        0.0000 
    100 CA         49.3800   14.4700   45.8800 C.3       6 GLY6        0.0000 
    101 CA         46.5800   14.6600   47.7100 C.3       6 GLY6        0.0000 
    102 CA         53.0400   10.6500   49.4300 C.3       6 GLY6        0.0000 
    103 CA         50.2300   10.8400   51.2600 C.3       6 GLY6        0.0000 
    104 CA         51.0300   14.3300   47.2000 C.3       6 GLY6        0.0000 
    105 CA         49.1500   14.9700   47.9300 C.3       6 GLY6        0.0000 
    106 CA         50.0600   15.4100   46.8300 C.3       6 GLY6        0.0000 
    107 CA         49.8300   15.9100   48.8800 C.3       6 GLY6        0.0000 
    108 CA         43.3600   14.3200   55.1200 C.3       6 GLY6        0.0000 
    109 CA         48.7400   14.4400   53.5000 C.3       6 GLY6        0.0000 
    110 CA         44.0400   15.2700   56.0600 C.3       6 GLY6        0.0000 
    111 CA         47.5300   16.0200   55.1800 C.3       6 GLY6        0.0000 
    112 CA         48.4500   16.4600   54.0800 C.3       6 GLY6        0.0000 
    113 CA         46.5600   17.1000   54.8100 C.3       6 GLY6        0.0000 
    114 CA         45.5800   18.1800   54.4300 C.3       6 GLY6        0.0000 
    115 CA         48.2100   16.9600   56.1300 C.3       6 GLY6        0.0000 
    116 CA         47.2400   18.0400   55.7500 C.3       6 GLY6        0.0000 
    117 DU         52.5900    9.2100   46.4300 H         7 CUB7        0.0000 
    118 DU         50.4700   10.3400   49.2100 H         7 CUB7        0.0000 
    119 DU         51.3800   10.7900   48.1100 H         7 CUB7        0.0000 
    120 DU         49.4900   11.4200   48.8300 H         7 CUB7        0.0000 
    121 DU         50.4100   11.8700   47.7300 H         7 CUB7        0.0000 
    122 DU         48.5200   12.5000   48.4600 H         7 CUB7        0.0000 
    123 DU         49.4400   12.9400   47.3600 H         7 CUB7        0.0000 
    124 DU         46.8500   15.0800   54.2300 H         7 CUB7        0.0000 
@<TRIPOS>BOND
@<TRIPOS>SUBSTRUCTURE
     1 SER1        1 GROUP   
     2 ALA2       13 GROUP   
     3 ASP3       51 GROUP   
     4 LYS4       78 GROUP   
     5 PHE5       85 GROUP   
     6 GLY6       89 GROUP   
     7 CUB7      117 GROUP   
@<TRIPOS>SET

