#    Name: 6h6v_5_FMN
#    Modification time : Fri May 22 19:24:56 2020

@<TRIPOS>MOLECULE
6h6v_5_FMN
   31    33     1     0     1
SMALL
NO_CHARGES


@<TRIPOS>ATOM
      1 N1         49.8850   15.1900   49.4600 N.2       1 FMN501      0.0000 
      2 C2         50.6450   16.0410   48.7430 C.2       1 FMN501      0.0000 
      3 O2         50.3830   17.2450   48.8960 O.2       1 FMN501      0.0000 
      4 N3         51.6370   15.6410   47.9130 N.am      1 FMN501      0.0000 
      5 C4         51.9240   14.3350   47.7370 C.2       1 FMN501      0.0000 
      6 O4         52.8310   13.8410   47.0200 O.2       1 FMN501      0.0000 
      7 C4A        51.1320   13.3960   48.4820 C.2       1 FMN501      0.0000 
      8 N5         51.4270   12.1290   48.3410 N.2       1 FMN501      0.0000 
      9 C5A        50.7290   11.2290   49.0580 C.ar      1 FMN501      0.0000 
     10 C6         51.0890    9.9080   48.8920 C.ar      1 FMN501      0.0000 
     11 C7         50.4330    8.9160   49.5850 C.ar      1 FMN501      0.0000 
     12 C7M        50.9200    7.5160   49.3210 C.3       1 FMN501      0.0000 
     13 C8         49.3190    9.2800   50.5170 C.ar      1 FMN501      0.0000 
     14 C8M        48.5490    8.2150   51.2650 C.3       1 FMN501      0.0000 
     15 C9         48.9680   10.6130   50.6780 C.ar      1 FMN501      0.0000 
     16 C9A        49.6250   11.6200   49.9890 C.ar      1 FMN501      0.0000 
     17 N10        49.3280   12.9990   50.1290 N.pl3     1 FMN501      0.0000 
     18 C10        50.0700   13.8860   49.3700 C.2       1 FMN501      0.0000 
     19 C1'        48.2540   13.5080   50.9350 C.3       1 FMN501      0.0000 
     20 C2'        48.6250   14.0210   52.2630 C.3       1 FMN501      0.0000 
     21 O2'        49.6180   13.2050   52.8590 O.3       1 FMN501      0.0000 
     22 C3'        47.3490   13.9480   53.0710 C.3       1 FMN501      0.0000 
     23 O3'        46.2660   14.6020   52.4110 O.3       1 FMN501      0.0000 
     24 C4'        47.5560   14.5580   54.4140 C.3       1 FMN501      0.0000 
     25 O4'        46.3880   14.3330   55.2270 O.3       1 FMN501      0.0000 
     26 C5'        47.7450   16.0650   54.3650 C.3       1 FMN501      0.0000 
     27 O5'        47.9930   16.4560   55.7040 O.3       1 FMN501      0.0000 
     28 P          47.7190   17.9340   56.2360 P.3       1 FMN501      0.0000 
     29 O1P        48.5070   18.7560   55.2540 O.co2     1 FMN501      0.0000 
     30 O2P        46.1910   18.1170   56.1980 O.co2     1 FMN501      0.0000 
     31 O3P        48.4070   17.8820   57.5990 O.co2     1 FMN501      0.0000 
@<TRIPOS>BOND
     1    1    2 1    
     2    1   18 2    
     3    2    3 2    
     4    2    4 am   
     5    4    5 am   
     6    5    6 2    
     7    5    7 1    
     8    7    8 2    
     9    7   18 1    
    10    8    9 1    
    11    9   10 ar   
    12    9   16 ar   
    13   10   11 ar   
    14   11   12 1    
    15   11   13 ar   
    16   13   14 1    
    17   13   15 ar   
    18   15   16 ar   
    19   16   17 1    
    20   17   18 1    
    21   17   19 1    
    22   19   20 1    
    23   20   21 1    
    24   20   22 1    
    25   22   23 1    
    26   22   24 1    
    27   24   25 1    
    28   24   26 1    
    29   26   27 1    
    30   27   28 1    
    31   28   29 ar   
    32   28   30 ar   
    33   28   31 ar   
@<TRIPOS>SUBSTRUCTURE
     1 FMN501      1 GROUP   
@<TRIPOS>SET
ATOM$ORANGE STATIC     ATOMS   COLORGROUP SYSTEM 
34 2 2 5 5 7 7 9 9 10 10 11 11 12 12 13 13 14 \
14 15 15 16 16 18 18 19 19 20 20 22 22 24 24 26 26 

