#    Name: 6dh4_1_K13
#    Modification time : Fri May 22 19:34:36 2020

@<TRIPOS>MOLECULE
6dh4_1_K13
   78    81     1     0     0
SMALL
NO_CHARGES


@<TRIPOS>ATOM
      1 N1         65.4330   51.7440   12.7420 N.pl3     1 K13104      0.0000 
      2 C2         66.3690   52.4110   13.6120 C.ar      1 K13104      0.0000 
      3 C3         66.1340   53.8650   13.9950 C.ar      1 K13104      0.0000 
      4 C4         67.1170   54.5770   14.9090 C.ar      1 K13104      0.0000 
      5 C5         68.3280   53.8230   15.4450 C.ar      1 K13104      0.0000 
      6 C6         68.5700   52.3720   15.0620 C.ar      1 K13104      0.0000 
      7 C7         67.5860   51.6610   14.1430 C.ar      1 K13104      0.0000 
      8 S8         69.5000   54.6780   16.5240 S.o2      1 K13104      0.0000 
      9 O9         68.8460   55.7620   17.2610 O.2       1 K13104      0.0000 
     10 O10        70.0000   53.8100   17.5870 O.2       1 K13104      0.0000 
     11 N11        70.7720   55.2430   15.5300 N.pl3     1 K13104      0.0000 
     12 C12        71.5330   54.1960   14.8600 C.3       1 K13104      0.0000 
     13 C13        73.0000   54.5820   14.6880 C.3       1 K13104      0.0000 
     14 C14        73.6880   54.6140   16.0530 C.3       1 K13104      0.0000 
     15 C15        73.6930   53.5700   13.7730 C.3       1 K13104      0.0000 
     16 C16        70.5200   56.4740   14.8020 C.3       1 K13104      0.0000 
     17 C17        71.4160   57.5960   15.3300 C.3       1 K13104      0.0000 
     18 C18        73.6680   52.1560   14.3580 C.3       1 K13104      0.0000 
     19 O18        71.2620   58.7340   14.5300 O.3       1 K13104      0.0000 
     20 C19        71.0620   57.9650   16.7650 C.3       1 K13104      0.0000 
     21 N20        72.0550   58.9190   17.2110 N.am      1 K13104      0.0000 
     22 C21        73.0500   58.5980   18.2070 C.2       1 K13104      0.0000 
     23 O22        73.0540   57.5520   18.7680 O.2       1 K13104      0.0000 
     24 O23        74.0020   59.5910   18.4540 O.3       1 K13104      0.0000 
     25 C24        74.8220   59.5080   19.7080 C.3       1 K13104      0.0000 
     26 C25        75.9910   59.9140   19.4310 C.3       1 K13104      0.0000 
     27 O26        75.8540   61.5490   19.4060 O.3       1 K13104      0.0000 
     28 C27        74.9820   61.8600   20.3040 C.3       1 K13104      0.0000 
     29 O28        73.8080   62.7230   19.7010 O.3       1 K13104      0.0000 
     30 C29        72.7560   61.9330   19.6480 C.3       1 K13104      0.0000 
     31 C30        73.0110   60.7490   20.7310 C.3       1 K13104      0.0000 
     32 C31        74.3380   60.5420   20.7640 C.3       1 K13104      0.0000 
     33 C32        69.7040   58.6600   16.8420 C.3       1 K13104      0.0000 
     34 C33        69.1150   58.1020   19.3560 C.ar      1 K13104      0.0000 
     35 C34        68.8840   58.5590   20.7970 C.ar      1 K13104      0.0000 
     36 C35        69.0020   60.0390   21.1550 C.ar      1 K13104      0.0000 
     37 C36        69.3550   61.0610   20.0760 C.ar      1 K13104      0.0000 
     38 C37        69.5880   60.6030   18.6360 C.ar      1 K13104      0.0000 
     39 C38        69.4680   59.1240   18.2770 C.ar      1 K13104      0.0000 
     40 HN1        64.6110   51.9960   12.7210 H         1 K13104      0.0000 
     41 HN1A       65.6960   51.0950   12.2440 H         1 K13104      0.0000 
     42 H3         65.3910   54.3180   13.6680 H         1 K13104      0.0000 
     43 H4         66.9770   55.4650   15.1450 H         1 K13104      0.0000 
     44 H6         69.3140   51.9210   15.3880 H         1 K13104      0.0000 
     45 H7         67.7250   50.7720   13.9080 H         1 K13104      0.0000 
     46 H12        71.1450   54.0340   13.9860 H         1 K13104      0.0000 
     47 H12A       71.4800   53.3820   15.3850 H         1 K13104      0.0000 
     48 H13        73.0520   55.4630   14.2850 H         1 K13104      0.0000 
     49 H14        74.5960   54.2860   15.9660 H         1 K13104      0.0000 
     50 H14A       73.7040   55.5250   16.3860 H         1 K13104      0.0000 
     51 H14B       73.1990   54.0510   16.6740 H         1 K13104      0.0000 
     52 H15        74.6150   53.8420   13.6440 H         1 K13104      0.0000 
     53 H15A       73.2430   53.5640   12.9130 H         1 K13104      0.0000 
     54 H16        70.7030   56.3330   13.8600 H         1 K13104      0.0000 
     55 H16A       69.5900   56.7270   14.9130 H         1 K13104      0.0000 
     56 H17        72.3410   57.3070   15.2950 H         1 K13104      0.0000 
     57 H18        74.1360   52.1490   15.2080 H         1 K13104      0.0000 
     58 H18A       72.7490   51.8780   14.4930 H         1 K13104      0.0000 
     59 H18B       74.1040   51.5440   13.7440 H         1 K13104      0.0000 
     60 HO18       71.4320   58.5370   13.7210 H         1 K13104      0.0000 
     61 H19        71.0730   57.1770   17.3300 H         1 K13104      0.0000 
     62 HN20       72.0520   59.7080   16.8690 H         1 K13104      0.0000 
     63 H24        74.8370   58.6090   20.0730 H         1 K13104      0.0000 
     64 H25        76.2540   59.5850   18.5580 H         1 K13104      0.0000 
     65 H25A       76.6210   59.6340   20.1140 H         1 K13104      0.0000 
     66 H27        75.4010   62.3180   21.0490 H         1 K13104      0.0000 
     67 H29        72.6700   61.5550   18.7590 H         1 K13104      0.0000 
     68 H29A       71.9570   62.4300   19.8830 H         1 K13104      0.0000 
     69 H30        72.5560   59.9390   20.4510 H         1 K13104      0.0000 
     70 H30A       72.6970   61.0270   21.6060 H         1 K13104      0.0000 
     71 H31        74.6350   60.3000   21.6550 H         1 K13104      0.0000 
     72 H32        69.0060   58.0400   16.5810 H         1 K13104      0.0000 
     73 H32A       69.6970   59.4270   16.2470 H         1 K13104      0.0000 
     74 H33        69.0450   57.2010   19.1370 H         1 K13104      0.0000 
     75 H34        68.6680   57.9370   21.4530 H         1 K13104      0.0000 
     76 H35        68.8590   60.3180   22.0300 H         1 K13104      0.0000 
     77 H36        69.4260   61.9620   20.2950 H         1 K13104      0.0000 
     78 H37        69.8030   61.2250   17.9790 H         1 K13104      0.0000 
@<TRIPOS>BOND
     1    1    2 1    
     2    2    3 ar   
     3    1   40 1    
     4    1   41 1    
     5    2    7 ar   
     6    3    4 ar   
     7    4    5 ar   
     8    3   42 1    
     9    5    6 ar   
    10    4   43 1    
    11    5    8 1    
    12    6    7 ar   
    13    8    9 2    
    14    6   44 1    
    15    7   45 1    
    16    8   10 2    
    17    8   11 1    
    18   11   12 1    
    19   11   16 1    
    20   12   13 1    
    21   12   46 1    
    22   12   47 1    
    23   13   14 1    
    24   13   15 1    
    25   13   48 1    
    26   14   49 1    
    27   14   50 1    
    28   14   51 1    
    29   15   18 1    
    30   15   52 1    
    31   15   53 1    
    32   16   17 1    
    33   16   54 1    
    34   16   55 1    
    35   17   19 1    
    36   17   20 1    
    37   17   56 1    
    38   19   60 1    
    39   18   57 1    
    40   18   58 1    
    41   18   59 1    
    42   20   21 1    
    43   20   33 1    
    44   20   61 1    
    45   21   22 am   
    46   22   23 2    
    47   21   62 1    
    48   22   24 1    
    49   24   25 1    
    50   25   26 1    
    51   25   32 1    
    52   25   63 1    
    53   26   64 1    
    54   26   65 1    
    55   26   27 1    
    56   27   28 1    
    57   28   29 1    
    58   28   32 1    
    59   28   66 1    
    60   29   30 1    
    61   30   31 1    
    62   30   67 1    
    63   30   68 1    
    64   31   32 1    
    65   31   69 1    
    66   31   70 1    
    67   32   71 1    
    68   33   39 1    
    69   33   72 1    
    70   33   73 1    
    71   34   35 ar   
    72   34   39 ar   
    73   35   36 ar   
    74   34   74 1    
    75   36   37 ar   
    76   35   75 1    
    77   37   38 ar   
    78   36   76 1    
    79   38   39 ar   
    80   37   77 1    
    81   38   78 1    
@<TRIPOS>SUBSTRUCTURE
     1 K13104      1 GROUP   
@<TRIPOS>SET

