#    Name: 6o48_1_0Q4
#    Modification time : Fri May 22 19:29:06 2020

@<TRIPOS>MOLECULE
6o48_1_0Q4
   59    59     1     0     0
SMALL
NO_CHARGES


@<TRIPOS>ATOM
      1 N          23.9270   27.9190   17.3200 N.4       1 0Q4201      0.0000 
      2 CA         23.1960   26.7410   17.7510 C.3       1 0Q4201      0.0000 
      3 C          21.7110   26.8760   17.4770 C.2       1 0Q4201      0.0000 
      4 O          21.0830   27.8850   17.7670 O.2       1 0Q4201      0.0000 
      5 CB         23.4370   26.4970   19.2470 C.3       1 0Q4201      0.0000 
      6 CG         24.8480   25.9870   19.5600 C.3       1 0Q4201      0.0000 
      7 CD         24.7470   24.7930   20.4930 C.3       1 0Q4201      0.0000 
      8 NE         25.9120   23.9760   20.6700 N.pl3     1 0Q4201      0.0000 
      9 CZ         26.9760   23.7400   19.9150 C.cat     1 0Q4201      0.0000 
     10 NH1        27.1680   24.2980   18.7220 N.pl3     1 0Q4201      0.0000 
     11 NH2        27.9110   22.9050   20.3850 N.pl3     1 0Q4201      0.0000 
     12 N1         21.1260   25.8440   16.9180 N.am      1 0Q4201      0.0000 
     13 CA1        19.7330   25.8520   16.5070 C.3       1 0Q4201      0.0000 
     14 C1         19.0500   24.6660   17.1770 C.2       1 0Q4201      0.0000 
     15 O1         19.2900   23.5160   16.7880 O.2       1 0Q4201      0.0000 
     16 CB1        19.6400   25.7760   14.9750 C.3       1 0Q4201      0.0000 
     17 CG1        18.2030   25.7440   14.4790 C.3       1 0Q4201      0.0000 
     18 CG2        20.3870   26.9440   14.3470 C.3       1 0Q4201      0.0000 
     19 N2         18.2180   24.9050   18.1790 N.am      1 0Q4201      0.0000 
     20 CA2        17.6600   23.7930   18.9240 C.3       1 0Q4201      0.0000 
     21 C2         16.1470   23.6720   18.7520 C.3       1 0Q4201      0.0000 
     22 CB2        18.0140   23.8440   20.4130 C.3       1 0Q4201      0.0000 
     23 CG3        19.5430   23.6030   20.5540 C.3       1 0Q4201      0.0000 
     24 CD1        20.1290   24.7830   21.2870 C.3       1 0Q4201      0.0000 
     25 CD2        19.7710   22.2440   21.1710 C.3       1 0Q4201      0.0000 
     26 N3         15.8460   23.5540   17.3590 N.4       1 0Q4201      0.0000 
     27 CA3        14.6140   22.8690   17.0080 C.3       1 0Q4201      0.0000 
     28 C3         14.6400   21.4190   17.4730 C.2       1 0Q4201      0.0000 
     29 O2         15.6200   20.6350   17.5220 O.2       1 0Q4201      0.0000 
     30 CB3        14.4240   23.0690   15.4990 C.3       1 0Q4201      0.0000 
     31 CG4        13.5890   21.9900   14.8520 C.ar      1 0Q4201      0.0000 
     32 CD11       12.2220   22.0330   15.0290 C.ar      1 0Q4201      0.0000 
     33 CD21       14.1710   20.9860   14.1100 C.ar      1 0Q4201      0.0000 
     34 CE1        11.3890   21.0790   14.4850 C.ar      1 0Q4201      0.0000 
     35 CE2        13.3490   20.0320   13.5610 C.ar      1 0Q4201      0.0000 
     36 CZ1        11.9720   20.0570   13.7400 C.ar      1 0Q4201      0.0000 
     37 N4         13.4540   20.9740   17.8690 N.am      1 0Q4201      0.0000 
     38 CA4        13.3120   19.5880   18.3050 C.3       1 0Q4201      0.0000 
     39 C4         11.8930   19.0910   18.0450 C.2       1 0Q4201      0.0000 
     40 O3         10.8990   19.7490   18.3390 O.2       1 0Q4201      0.0000 
     41 CB4        13.6610   19.4570   19.7930 C.3       1 0Q4201      0.0000 
     42 CG5        13.6360   18.0570   20.4090 C.3       1 0Q4201      0.0000 
     43 CD3        12.2780   17.5550   20.8750 C.2       1 0Q4201      0.0000 
     44 OE1        11.4300   18.4710   21.0230 O.co2     1 0Q4201      0.0000 
     45 OE2        11.9520   16.3550   20.9980 O.co2     1 0Q4201      0.0000 
     46 N5         11.8070   17.8290   17.6170 N.am      1 0Q4201      0.0000 
     47 CA5        10.5060   17.1480   17.4990 C.3       1 0Q4201      0.0000 
     48 C5         10.6420   15.6330   17.5040 C.2       1 0Q4201      0.0000 
     49 O4         11.6310   15.0230   17.0870 O.2       1 0Q4201      0.0000 
     50 CB5         9.8590   17.6340   16.2210 C.3       1 0Q4201      0.0000 
     51 N6          9.6180   14.9180   17.9890 N.am      1 0Q4201      0.0000 
     52 CA6         9.6610   13.4590   17.9390 C.3       1 0Q4201      0.0000 
     53 C6          9.7820   13.0090   16.4790 C.2       1 0Q4201      0.0000 
     54 O5          9.1750   13.6650   15.6170 O.2       1 0Q4201      0.0000 
     55 CB6         8.4300   12.7610   18.4970 C.3       1 0Q4201      0.0000 
     56 CG6         8.2240   11.3330   18.0000 C.3       1 0Q4201      0.0000 
     57 CD4         7.8820   10.2980   19.0490 C.3       1 0Q4201      0.0000 
     58 CE          6.9870    9.1640   18.5700 C.3       1 0Q4201      0.0000 
     59 N7         10.5930   11.8390   16.1670 N.am      1 0Q4201      0.0000 
@<TRIPOS>BOND
     1    1    2 1    
     2    2    3 1    
     3    2    5 1    
     4    3    4 2    
     5    3   12 am   
     6    5    6 1    
     7    6    7 1    
     8    7    8 1    
     9    8    9 ar   
    10    9   10 ar   
    11    9   11 ar   
    12   12   13 1    
    13   13   14 1    
    14   13   16 1    
    15   14   15 2    
    16   14   19 am   
    17   16   17 1    
    18   16   18 1    
    19   19   20 1    
    20   20   21 1    
    21   20   22 1    
    22   21   26 1    
    23   22   23 1    
    24   23   24 1    
    25   23   25 1    
    26   26   27 1    
    27   27   28 1    
    28   27   30 1    
    29   28   29 2    
    30   28   37 am   
    31   30   31 1    
    32   31   32 ar   
    33   31   33 ar   
    34   32   34 ar   
    35   33   35 ar   
    36   34   36 ar   
    37   35   36 ar   
    38   37   38 1    
    39   38   39 1    
    40   38   41 1    
    41   39   40 2    
    42   39   46 am   
    43   41   42 1    
    44   42   43 1    
    45   43   44 ar   
    46   43   45 ar   
    47   46   47 1    
    48   47   48 1    
    49   47   50 1    
    50   48   49 2    
    51   48   51 am   
    52   51   52 1    
    53   52   53 1    
    54   52   55 1    
    55   53   54 2    
    56   53   59 am   
    57   55   56 1    
    58   56   57 1    
    59   57   58 1    
@<TRIPOS>SUBSTRUCTURE
     1 0Q4201      1 GROUP   
@<TRIPOS>SET

