#    Name: 6q6o_1_CHD
#    Modification time : Fri May 22 19:26:01 2020

@<TRIPOS>MOLECULE
6q6o_1_CHD
   29    32     1     0     0
SMALL
NO_CHARGES


@<TRIPOS>ATOM
      1 C1         17.5620  -42.7100  -17.6200 C.3       1 CHD502      0.0000 
      2 C2         17.8740  -43.6070  -18.8490 C.3       1 CHD502      0.0000 
      3 C3         19.4050  -43.8030  -19.0350 C.3       1 CHD502      0.0000 
      4 O3         19.5940  -44.3880  -20.3340 O.3       1 CHD502      0.0000 
      5 C4         20.2020  -42.4720  -18.9640 C.3       1 CHD502      0.0000 
      6 C5         19.7550  -41.4540  -17.8510 C.3       1 CHD502      0.0000 
      7 C6         20.5020  -40.0890  -18.0230 C.3       1 CHD502      0.0000 
      8 C7         19.9390  -39.1730  -19.1510 C.3       1 CHD502      0.0000 
      9 O7         20.3860  -39.7010  -20.4150 O.3       1 CHD502      0.0000 
     10 C8         18.3870  -38.9630  -19.0240 C.3       1 CHD502      0.0000 
     11 C9         17.6070  -40.3250  -18.8160 C.3       1 CHD502      0.0000 
     12 C10        18.1950  -41.2690  -17.6630 C.3       1 CHD502      0.0000 
     13 C11        16.0470  -40.1010  -18.7880 C.3       1 CHD502      0.0000 
     14 C12        15.4720  -39.2300  -19.9580 C.3       1 CHD502      0.0000 
     15 O12        15.3350  -40.0270  -21.1500 O.3       1 CHD502      0.0000 
     16 C13        16.2240  -37.8590  -20.1510 C.3       1 CHD502      0.0000 
     17 C14        17.7620  -38.1750  -20.2330 C.3       1 CHD502      0.0000 
     18 C15        18.3890  -36.8280  -20.6810 C.3       1 CHD502      0.0000 
     19 C16        17.3790  -36.3370  -21.7620 C.3       1 CHD502      0.0000 
     20 C17        16.0430  -37.1340  -21.5450 C.3       1 CHD502      0.0000 
     21 C18        15.7900  -36.8970  -18.9790 C.3       1 CHD502      0.0000 
     22 C19        17.9080  -40.7360  -16.2090 C.3       1 CHD502      0.0000 
     23 C20        14.7020  -36.3740  -21.9290 C.3       1 CHD502      0.0000 
     24 C21        13.6060  -37.4290  -22.2860 C.3       1 CHD502      0.0000 
     25 C22        14.8730  -35.5040  -23.2250 C.3       1 CHD502      0.0000 
     26 C23        14.0390  -34.1910  -23.2580 C.3       1 CHD502      0.0000 
     27 O25        15.3100  -32.5530  -24.4590 O.co2     1 CHD502      0.0000 
     28 C24        14.3640  -33.3290  -24.4540 C.2       1 CHD502      0.0000 
     29 O26        13.5440  -33.4760  -25.5010 O.co2     1 CHD502      0.0000 
@<TRIPOS>BOND
     1    1    2 1    
     2    1   12 1    
     3    2    3 1    
     4    3    4 1    
     5    3    5 1    
     6    5    6 1    
     7    6    7 1    
     8    6   12 1    
     9    7    8 1    
    10    8    9 1    
    11    8   10 1    
    12   10   11 1    
    13   10   17 1    
    14   11   12 1    
    15   11   13 1    
    16   12   22 1    
    17   13   14 1    
    18   14   15 1    
    19   14   16 1    
    20   16   17 1    
    21   16   20 1    
    22   16   21 1    
    23   17   18 1    
    24   18   19 1    
    25   19   20 1    
    26   20   23 1    
    27   23   24 1    
    28   23   25 1    
    29   25   26 1    
    30   26   28 1    
    31   27   28 ar   
    32   28   29 ar   
@<TRIPOS>SUBSTRUCTURE
     1 CHD502      1 GROUP   
@<TRIPOS>SET

