#    Name: 6q6o_2_CHD
#    Modification time : Fri May 22 19:26:04 2020

@<TRIPOS>MOLECULE
6q6o_2_CHD
   29    32     1     0     0
SMALL
NO_CHARGES


@<TRIPOS>ATOM
      1 C1         11.1690  -38.3450  -19.2410 C.3       1 CHD503      0.0000 
      2 C2         10.2690  -38.8820  -20.3870 C.3       1 CHD503      0.0000 
      3 C3          8.8100  -38.3880  -20.1900 C.3       1 CHD503      0.0000 
      4 O3          7.9960  -38.9420  -21.2400 O.3       1 CHD503      0.0000 
      5 C4          8.2730  -38.8240  -18.8020 C.3       1 CHD503      0.0000 
      6 C5          9.2180  -38.4860  -17.5920 C.3       1 CHD503      0.0000 
      7 C6          8.6410  -39.0620  -16.2540 C.3       1 CHD503      0.0000 
      8 C7          8.9430  -40.5700  -16.0020 C.3       1 CHD503      0.0000 
      9 O7          8.0780  -41.3630  -16.8420 O.3       1 CHD503      0.0000 
     10 C8         10.4780  -40.8710  -16.1210 C.3       1 CHD503      0.0000 
     11 C9         11.0840  -40.3330  -17.4800 C.3       1 CHD503      0.0000 
     12 C10        10.7610  -38.7970  -17.7870 C.3       1 CHD503      0.0000 
     13 C11        12.5940  -40.7520  -17.6300 C.3       1 CHD503      0.0000 
     14 C12        12.8870  -42.2620  -17.3430 C.3       1 CHD503      0.0000 
     15 O12        12.4200  -43.0660  -18.4440 O.3       1 CHD503      0.0000 
     16 C13        12.3730  -42.7230  -15.9320 C.3       1 CHD503      0.0000 
     17 C14        10.8410  -42.3860  -15.9170 C.3       1 CHD503      0.0000 
     18 C15        10.3060  -43.1530  -14.6830 C.3       1 CHD503      0.0000 
     19 C16        10.9970  -44.5350  -14.8780 C.3       1 CHD503      0.0000 
     20 C17        12.3190  -44.2860  -15.6880 C.3       1 CHD503      0.0000 
     21 C18        13.2320  -42.0160  -14.8140 C.3       1 CHD503      0.0000 
     22 C19        11.5790  -37.8100  -16.8750 C.3       1 CHD503      0.0000 
     23 C20        13.5810  -45.1320  -15.2090 C.3       1 CHD503      0.0000 
     24 C21        14.7780  -44.9260  -16.1970 C.3       1 CHD503      0.0000 
     25 C22        13.2970  -46.6840  -15.1840 C.3       1 CHD503      0.0000 
     26 C23        12.6990  -47.3200  -16.4820 C.3       1 CHD503      0.0000 
     27 O25        14.0100  -49.0660  -17.4780 O.co2     1 CHD503      0.0000 
     28 C24        13.1060  -48.7580  -16.7100 C.2       1 CHD503      0.0000 
     29 O26        12.4010  -49.6650  -16.0210 O.co2     1 CHD503      0.0000 
@<TRIPOS>BOND
     1    1    2 1    
     2    1   12 1    
     3    2    3 1    
     4    3    4 1    
     5    3    5 1    
     6    5    6 1    
     7    6    7 1    
     8    6   12 1    
     9    7    8 1    
    10    8    9 1    
    11    8   10 1    
    12   10   11 1    
    13   10   17 1    
    14   11   12 1    
    15   11   13 1    
    16   12   22 1    
    17   13   14 1    
    18   14   15 1    
    19   14   16 1    
    20   16   17 1    
    21   16   20 1    
    22   16   21 1    
    23   17   18 1    
    24   18   19 1    
    25   19   20 1    
    26   20   23 1    
    27   23   24 1    
    28   23   25 1    
    29   25   26 1    
    30   26   28 1    
    31   27   28 ar   
    32   28   29 ar   
@<TRIPOS>SUBSTRUCTURE
     1 CHD503      1 GROUP   
@<TRIPOS>SET

