#    Name: 6q6o_1_CHD_CAVITY_N1_4
#    Modification time : Fri May 22 19:26:02 2020

@<TRIPOS>MOLECULE
6q6o_1_CHD_CAVITY_N1_4
   27     0     4     0     0
SMALL
NO_CHARGES


@<TRIPOS>ATOM
      1 OG         12.5400  -36.8400  -18.5800 O.3       1 SER1        0.0000 
      2 N          16.2800  -41.8700  -13.4800 N.am      2 ALA2        0.0000 
      3 N          16.7600  -41.5800  -14.8800 N.am      2 ALA2        0.0000 
      4 CA         13.4000  -39.8200  -17.2900 C.3       3 GLY6        0.0000 
      5 CA         12.7300  -38.4700  -17.2400 C.3       3 GLY6        0.0000 
      6 CA         16.1800  -43.5300  -15.4800 C.3       3 GLY6        0.0000 
      7 CA         14.8400  -40.8400  -15.3900 C.3       3 GLY6        0.0000 
      8 CA         14.6500  -39.2100  -16.7300 C.3       3 GLY6        0.0000 
      9 CA         13.9800  -37.8700  -16.6800 C.3       3 GLY6        0.0000 
     10 CA         14.4600  -37.5800  -18.0700 C.3       3 GLY6        0.0000 
     11 CA         13.3100  -36.5300  -16.6300 C.3       3 GLY6        0.0000 
     12 CA         17.4300  -42.9200  -14.9300 C.3       3 GLY6        0.0000 
     13 CA         17.9100  -42.6300  -16.3200 C.3       3 GLY6        0.0000 
     14 CA         15.6100  -40.5300  -13.4400 C.3       3 GLY6        0.0000 
     15 CA         16.0900  -40.2400  -14.8300 C.3       3 GLY6        0.0000 
     16 CA         16.5700  -39.9500  -16.2200 C.3       3 GLY6        0.0000 
     17 CA         19.1600  -42.0300  -15.7600 C.3       3 GLY6        0.0000 
     18 CA         18.0200  -40.9800  -14.3200 C.3       3 GLY6        0.0000 
     19 CA         18.5000  -40.6900  -15.7100 C.3       3 GLY6        0.0000 
     20 CA         17.3500  -39.6400  -14.2700 C.3       3 GLY6        0.0000 
     21 CA         17.8300  -39.3500  -15.6600 C.3       3 GLY6        0.0000 
     22 CA         18.3100  -39.0600  -17.0500 C.3       3 GLY6        0.0000 
     23 CA         19.7500  -40.0800  -15.1500 C.3       3 GLY6        0.0000 
     24 CA         20.2300  -39.7900  -16.5400 C.3       3 GLY6        0.0000 
     25 DU         14.2500  -42.7900  -15.9900 H         4 CUB7        0.0000 
     26 DU         15.5100  -42.1900  -15.4300 H         4 CUB7        0.0000 
     27 DU         17.2400  -41.2900  -16.2700 H         4 CUB7        0.0000 
@<TRIPOS>BOND
@<TRIPOS>SUBSTRUCTURE
     1 SER1        1 GROUP   
     2 ALA2        2 GROUP   
     3 GLY6        4 GROUP   
     4 CUB7       25 GROUP   
@<TRIPOS>SET

