#    Name: 6iun_1_NAD
#    Modification time : Fri May 22 19:29:42 2020

@<TRIPOS>MOLECULE
6iun_1_NAD
   44    48     1     0     1
SMALL
NO_CHARGES


@<TRIPOS>ATOM
      1 PA         21.7300  -18.0990  -19.2210 P.3       1 NAD804      0.0000 
      2 O1A        21.2130  -16.8810  -19.9920 O.co2     1 NAD804      0.0000 
      3 O2A        21.9340  -17.8590  -17.7480 O.co2     1 NAD804      0.0000 
      4 O5B        23.1170  -18.6830  -19.9110 O.3       1 NAD804      0.0000 
      5 C5B        23.4330  -19.9940  -20.4300 C.3       1 NAD804      0.0000 
      6 C4B        23.4800  -20.0250  -21.9720 C.3       1 NAD804      0.0000 
      7 O4B        23.7030  -21.3420  -22.5110 O.3       1 NAD804      0.0000 
      8 C3B        22.2210  -19.5270  -22.7130 C.3       1 NAD804      0.0000 
      9 O3B        22.4480  -18.1730  -23.1560 O.3       1 NAD804      0.0000 
     10 C2B        22.0020  -20.5350  -23.8450 C.3       1 NAD804      0.0000 
     11 O2B        21.7490  -19.9680  -25.1320 O.3       1 NAD804      0.0000 
     12 C1B        23.3530  -21.2170  -23.8870 C.3       1 NAD804      0.0000 
     13 N9A        23.4490  -22.4890  -24.6320 N.pl3     1 NAD804      0.0000 
     14 C8A        22.5890  -23.5360  -24.6300 C.2       1 NAD804      0.0000 
     15 N7A        23.0770  -24.5420  -25.4320 N.2       1 NAD804      0.0000 
     16 C5A        24.2650  -24.1180  -25.9300 C.ar      1 NAD804      0.0000 
     17 C6A        25.3180  -24.6490  -26.8200 C.ar      1 NAD804      0.0000 
     18 N6A        25.1820  -25.8640  -27.3580 N.pl3     1 NAD804      0.0000 
     19 N1A        26.4150  -23.8940  -27.0820 N.ar      1 NAD804      0.0000 
     20 C2A        26.6000  -22.6490  -26.5500 C.ar      1 NAD804      0.0000 
     21 N3A        25.6770  -22.1040  -25.7400 N.ar      1 NAD804      0.0000 
     22 C4A        24.5100  -22.7650  -25.4050 C.ar      1 NAD804      0.0000 
     23 O3         20.5970  -19.1890  -19.5490 O.3       1 NAD804      0.0000 
     24 PN         20.2280  -20.5700  -18.8460 P.3       1 NAD804      0.0000 
     25 O1N        18.8340  -20.4890  -18.2300 O.co2     1 NAD804      0.0000 
     26 O2N        20.5550  -21.6570  -19.8560 O.co2     1 NAD804      0.0000 
     27 O5D        21.3060  -20.5890  -17.7070 O.3       1 NAD804      0.0000 
     28 C5D        20.8800  -20.2760  -16.4250 C.3       1 NAD804      0.0000 
     29 C4D        22.1720  -20.4450  -15.7580 C.3       1 NAD804      0.0000 
     30 O4D        22.4320  -21.8180  -15.9000 O.3       1 NAD804      0.0000 
     31 C3D        23.4680  -19.8960  -16.3210 C.3       1 NAD804      0.0000 
     32 O3D        23.6390  -18.5750  -15.8050 O.3       1 NAD804      0.0000 
     33 C2D        24.4870  -20.9900  -15.9050 C.3       1 NAD804      0.0000 
     34 O2D        25.4580  -20.8200  -14.8580 O.3       1 NAD804      0.0000 
     35 C1D        23.5860  -21.8290  -15.0710 C.3       1 NAD804      0.0000 
     36 N1N        24.0760  -23.0910  -14.5780 N.pl3     1 NAD804      0.0000 
     37 C2N        23.8440  -24.0590  -15.3990 C.ar      1 NAD804      0.0000 
     38 C3N        24.1920  -25.2880  -14.9930 C.ar      1 NAD804      0.0000 
     39 C7N        23.8760  -26.2920  -15.9950 C.2       1 NAD804      0.0000 
     40 O7N        22.7970  -26.1720  -16.5310 O.2       1 NAD804      0.0000 
     41 N7N        24.6890  -27.2810  -16.2390 N.am      1 NAD804      0.0000 
     42 C4N        24.7330  -25.5300  -13.7350 C.ar      1 NAD804      0.0000 
     43 C5N        24.9580  -24.4800  -12.8710 C.ar      1 NAD804      0.0000 
     44 C6N        24.5910  -23.2360  -13.3230 C.ar      1 NAD804      0.0000 
@<TRIPOS>BOND
     1    1    2 ar   
     2    1    3 ar   
     3    1    4 1    
     4    1   23 1    
     5    4    5 1    
     6    5    6 1    
     7    6    7 1    
     8    6    8 1    
     9    7   12 1    
    10    8    9 1    
    11    8   10 1    
    12   10   11 1    
    13   10   12 1    
    14   12   13 1    
    15   13   14 1    
    16   13   22 1    
    17   14   15 2    
    18   15   16 1    
    19   16   17 ar   
    20   16   22 ar   
    21   17   18 1    
    22   17   19 ar   
    23   19   20 ar   
    24   20   21 ar   
    25   21   22 ar   
    26   23   24 1    
    27   24   25 ar   
    28   24   26 ar   
    29   24   27 1    
    30   27   28 1    
    31   28   29 1    
    32   29   30 1    
    33   29   31 1    
    34   30   35 1    
    35   31   32 1    
    36   31   33 1    
    37   33   34 1    
    38   33   35 1    
    39   35   36 1    
    40   36   37 ar   
    41   36   44 ar   
    42   37   38 ar   
    43   38   39 1    
    44   38   42 ar   
    45   39   40 2    
    46   39   41 am   
    47   42   43 ar   
    48   43   44 ar   
@<TRIPOS>SUBSTRUCTURE
     1 NAD804      1 GROUP   
@<TRIPOS>SET
ATOM$ORANGE STATIC     ATOMS   COLORGROUP SYSTEM 
42 5 5 6 6 8 8 10 10 12 12 14 14 16 16 17 17 20 \
20 22 22 28 28 29 29 31 31 33 33 35 35 37 37 38 38 39 \
39 42 42 43 43 44 44 

