#    Name: 6iun_1_NAD_CAVITY_N1_4
#    Modification time : Fri May 22 19:29:44 2020

@<TRIPOS>MOLECULE
6iun_1_NAD_CAVITY_N1_4
   73     0     6     0     0
SMALL
NO_CHARGES


@<TRIPOS>ATOM
      1 OG         21.5100  -25.6600  -12.5300 O.3       1 SER1        0.0000 
      2 OG         22.7900  -26.2600  -13.0500 O.3       1 SER1        0.0000 
      3 OG         22.3000  -24.7600  -11.6200 O.3       1 SER1        0.0000 
      4 OG         24.8500  -25.9500  -12.6600 O.3       1 SER1        0.0000 
      5 OG         22.3500  -23.7200  -12.7000 O.3       1 SER1        0.0000 
      6 OG         23.6200  -24.3100  -13.2200 O.3       1 SER1        0.0000 
      7 OG         23.0900  -23.8600  -10.7200 O.3       1 SER1        0.0000 
      8 OG         24.3700  -24.4500  -11.2400 O.3       1 SER1        0.0000 
      9 OG         25.1500  -23.5500  -10.3400 O.3       1 SER1        0.0000 
     10 O          20.0700  -24.3400  -17.5700 O.2       2 ALA2        0.0000 
     11 O          22.0900  -25.0800  -16.1100 O.2       2 ALA2        0.0000 
     12 N          23.3700  -25.6700  -16.6300 N.am      2 ALA2        0.0000 
     13 N          22.1400  -24.0400  -17.1900 N.am      2 ALA2        0.0000 
     14 N          22.1800  -22.9900  -18.2700 N.am      2 ALA2        0.0000 
     15 N          24.1500  -24.7700  -15.7200 N.am      2 ALA2        0.0000 
     16 N          25.4300  -25.3700  -16.2400 N.am      2 ALA2        0.0000 
     17 N          22.9300  -23.1300  -16.2800 N.am      2 ALA2        0.0000 
     18 N          24.2000  -23.7300  -16.8000 N.am      2 ALA2        0.0000 
     19 N          22.9700  -22.0900  -17.3600 N.am      2 ALA2        0.0000 
     20 N          24.2500  -22.6900  -17.8800 N.am      2 ALA2        0.0000 
     21 N          23.0200  -21.0500  -18.4400 N.am      2 ALA2        0.0000 
     22 N          24.9000  -24.9100  -13.7400 N.am      2 ALA2        0.0000 
     23 O          24.9400  -23.8700  -14.8200 O.2       2 ALA2        0.0000 
     24 O          26.2200  -24.4600  -15.3400 O.2       2 ALA2        0.0000 
     25 O          24.9900  -22.8300  -15.9000 O.2       2 ALA2        0.0000 
     26 N          23.7600  -21.1900  -16.4600 N.am      2 ALA2        0.0000 
     27 N          25.0400  -21.7900  -16.9800 N.am      2 ALA2        0.0000 
     28 N          23.8100  -20.1500  -17.5400 N.am      2 ALA2        0.0000 
     29 O          22.5800  -18.5200  -18.1000 O.2       2 ALA2        0.0000 
     30 O          24.4100  -23.4100  -12.3200 O.2       2 ALA2        0.0000 
     31 N          25.6900  -24.0100  -12.8400 N.am      2 ALA2        0.0000 
     32 O          23.3200  -18.6500  -16.1200 O.2       2 ALA2        0.0000 
     33 O          24.6000  -19.2500  -16.6400 O.2       2 ALA2        0.0000 
     34 O          25.8700  -19.8500  -17.1600 O.2       2 ALA2        0.0000 
     35 NZ         24.1100  -25.8100  -14.6500 N.4       3 LYS4        0.0000 
     36 CZ         18.8000  -23.7500  -17.0500 C.ar      4 PHE5        0.0000 
     37 CZ         20.1200  -23.3000  -18.6500 C.ar      4 PHE5        0.0000 
     38 CA         20.7700  -25.5200  -14.5100 C.3       5 GLY6        0.0000 
     39 CA         20.8200  -24.4800  -15.5900 C.3       5 GLY6        0.0000 
     40 CA         21.5600  -24.6200  -13.6100 C.3       5 GLY6        0.0000 
     41 CA         22.8300  -25.2200  -14.1300 C.3       5 GLY6        0.0000 
     42 CA         25.3800  -26.4100  -15.1700 C.3       5 GLY6        0.0000 
     43 CA         22.4400  -21.6400  -14.8600 C.3       5 GLY6        0.0000 
     44 CA         23.7200  -22.2300  -15.3800 C.3       5 GLY6        0.0000 
     45 CA         26.2600  -23.4200  -16.4200 C.3       5 GLY6        0.0000 
     46 CA         21.2600  -18.9600  -16.5000 C.3       5 GLY6        0.0000 
     47 CA         22.5300  -19.5600  -17.0200 C.3       5 GLY6        0.0000 
     48 CA         21.3000  -17.9200  -17.5800 C.3       5 GLY6        0.0000 
     49 CA         23.8500  -19.1100  -18.6200 C.3       5 GLY6        0.0000 
     50 CA         21.9100  -21.1800  -12.3600 C.3       5 GLY6        0.0000 
     51 CA         23.1800  -21.7800  -12.8800 C.3       5 GLY6        0.0000 
     52 CA         24.4600  -22.3700  -13.4000 C.3       5 GLY6        0.0000 
     53 CA         23.2300  -20.7400  -13.9600 C.3       5 GLY6        0.0000 
     54 CA         22.0000  -19.1000  -14.5200 C.3       5 GLY6        0.0000 
     55 CA         23.2800  -19.7000  -15.0400 C.3       5 GLY6        0.0000 
     56 CA         24.5500  -20.2900  -15.5600 C.3       5 GLY6        0.0000 
     57 CA         25.8300  -20.8900  -16.0800 C.3       5 GLY6        0.0000 
     58 CA         23.9300  -21.9200  -10.9000 C.3       5 GLY6        0.0000 
     59 CA         25.2000  -22.5100  -11.4200 C.3       5 GLY6        0.0000 
     60 CA         22.7000  -20.2800  -11.4600 C.3       5 GLY6        0.0000 
     61 DU         20.8600  -23.4400  -16.6700 H         6 CUB7        0.0000 
     62 DU         21.6100  -23.5800  -14.6900 H         6 CUB7        0.0000 
     63 DU         22.8800  -24.1800  -15.2100 H         6 CUB7        0.0000 
     64 DU         21.6500  -22.5400  -15.7600 H         6 CUB7        0.0000 
     65 DU         21.7000  -21.5000  -16.8400 H         6 CUB7        0.0000 
     66 DU         21.0700  -23.1200  -12.1800 H         6 CUB7        0.0000 
     67 DU         21.1200  -22.0800  -13.2600 H         6 CUB7        0.0000 
     68 DU         22.3900  -22.6800  -13.7800 H         6 CUB7        0.0000 
     69 DU         23.6700  -23.2700  -14.3000 H         6 CUB7        0.0000 
     70 DU         22.4900  -20.6000  -15.9400 H         6 CUB7        0.0000 
     71 DU         21.8600  -22.2200  -11.2800 H         6 CUB7        0.0000 
     72 DU         23.1400  -22.8200  -11.8000 H         6 CUB7        0.0000 
     73 DU         23.8800  -22.9600   -9.8200 H         6 CUB7        0.0000 
@<TRIPOS>BOND
@<TRIPOS>SUBSTRUCTURE
     1 SER1        1 GROUP   
     2 ALA2       10 GROUP   
     3 LYS4       35 GROUP   
     4 PHE5       36 GROUP   
     5 GLY6       38 GROUP   
     6 CUB7       61 GROUP   
@<TRIPOS>SET

