#    Name: 6dz5_2_P61_CAVITY_N1_4
#    Modification time : Fri May 22 19:23:48 2020

@<TRIPOS>MOLECULE
6dz5_2_P61_CAVITY_N1_4
   80     0     7     0     0
SMALL
NO_CHARGES


@<TRIPOS>ATOM
      1 OG         -9.3800  -42.0700   14.3100 O.3       1 SER1        0.0000 
      2 OG        -12.1100  -43.2400   15.8800 O.3       1 SER1        0.0000 
      3 OG         -5.9500  -44.7800   15.4000 O.3       1 SER1        0.0000 
      4 OG        -11.5300  -42.8200   17.2000 O.3       1 SER1        0.0000 
      5 OG        -12.9200  -42.6800   17.7600 O.3       1 SER1        0.0000 
      6 OG         -5.3300  -45.7800   17.1600 O.3       1 SER1        0.0000 
      7 OG         -5.3800  -44.3500   16.7200 O.3       1 SER1        0.0000 
      8 OG         -6.7200  -45.6500   17.7200 O.3       1 SER1        0.0000 
      9 OG         -3.4600  -42.6200   17.0300 O.3       1 SER1        0.0000 
     10 OG         -3.5500  -39.7600   16.1400 O.3       1 SER1        0.0000 
     11 OG         -4.7600  -45.3500   18.4800 O.3       1 SER1        0.0000 
     12 OG         -2.9300  -40.7600   17.9000 O.3       1 SER1        0.0000 
     13 OG         -2.9700  -39.3300   17.4600 O.3       1 SER1        0.0000 
     14 OG         -3.0100  -37.9000   17.0100 O.3       1 SER1        0.0000 
     15 OG         -4.3100  -40.6300   18.4600 O.3       1 SER1        0.0000 
     16 OG         -2.4000  -38.9100   18.7800 O.3       1 SER1        0.0000 
     17 OG         -3.7400  -40.2100   19.7800 O.3       1 SER1        0.0000 
     18 O          -9.9600  -42.5000   13.0000 O.2       2 ALA2        0.0000 
     19 OD1        -9.3400  -43.5100   14.7600 O.co2     3 ASP3        0.0000 
     20 OD1       -10.7200  -43.3700   15.3200 O.co2     3 ASP3        0.0000 
     21 OD1        -7.3400  -44.6400   15.9600 O.co2     3 ASP3        0.0000 
     22 OD1        -7.3800  -43.2100   15.5100 O.co2     3 ASP3        0.0000 
     23 OD1        -5.4200  -42.9200   16.2700 O.co2     3 ASP3        0.0000 
     24 OD1        -8.1000  -45.5200   18.2800 O.co2     3 ASP3        0.0000 
     25 OD1       -10.9100  -43.8200   18.9600 O.co2     3 ASP3        0.0000 
     26 OD1        -6.1400  -45.2200   19.0400 O.co2     3 ASP3        0.0000 
     27 OD1        -4.1800  -44.9300   19.8000 O.co2     3 ASP3        0.0000 
     28 NZ        -10.7700  -41.9400   14.8800 N.4       4 LYS4        0.0000 
     29 NZ        -12.1500  -41.8100   15.4400 N.4       4 LYS4        0.0000 
     30 CZ         -8.7600  -43.0800   16.0800 C.ar      5 PHE5        0.0000 
     31 CZ        -10.1500  -42.9500   16.6400 C.ar      5 PHE5        0.0000 
     32 CZ        -10.1900  -41.5200   16.1900 C.ar      5 PHE5        0.0000 
     33 CZ        -11.5800  -41.3800   16.7600 C.ar      5 PHE5        0.0000 
     34 CZ         -6.7600  -44.2200   17.2800 C.ar      5 PHE5        0.0000 
     35 CZ         -6.8000  -42.7900   16.8300 C.ar      5 PHE5        0.0000 
     36 CZ         -8.1400  -44.0900   17.8400 C.ar      5 PHE5        0.0000 
     37 CZ         -9.5300  -43.9500   18.4000 C.ar      5 PHE5        0.0000 
     38 CZ        -10.9600  -42.3900   18.5200 C.ar      5 PHE5        0.0000 
     39 CZ        -12.3400  -42.2600   19.0800 C.ar      5 PHE5        0.0000 
     40 CZ         -2.1600  -39.8900   15.5800 C.ar      5 PHE5        0.0000 
     41 CZ         -3.3700  -45.4900   17.9200 C.ar      5 PHE5        0.0000 
     42 CZ         -3.4200  -44.0500   17.4700 C.ar      5 PHE5        0.0000 
     43 CZ         -4.8000  -43.9200   18.0300 C.ar      5 PHE5        0.0000 
     44 CZ         -4.8400  -42.4900   17.5900 C.ar      5 PHE5        0.0000 
     45 CZ         -4.8900  -41.0600   17.1500 C.ar      5 PHE5        0.0000 
     46 CZ         -6.1800  -43.7900   18.6000 C.ar      5 PHE5        0.0000 
     47 CZ         -0.2500  -38.1600   15.8900 C.ar      5 PHE5        0.0000 
     48 CZ         -1.5000  -42.3300   17.7800 C.ar      5 PHE5        0.0000 
     49 CZ         -1.5900  -39.4600   16.9000 C.ar      5 PHE5        0.0000 
     50 CZ         -4.2700  -42.0600   18.9100 C.ar      5 PHE5        0.0000 
     51 CZ         -5.6100  -43.3600   19.9100 C.ar      5 PHE5        0.0000 
     52 CZ         -0.9200  -41.9000   19.1000 C.ar      5 PHE5        0.0000 
     53 CZ         -0.9700  -40.4700   18.6600 C.ar      5 PHE5        0.0000 
     54 CZ         -1.0100  -39.0400   18.2100 C.ar      5 PHE5        0.0000 
     55 CZ         -0.3500  -41.4800   20.4200 C.ar      5 PHE5        0.0000 
     56 CZ         -0.3900  -40.0400   19.9800 C.ar      5 PHE5        0.0000 
     57 CZ         -0.4400  -38.6100   19.5300 C.ar      5 PHE5        0.0000 
     58 CA        -11.3000  -43.8000   14.0000 C.3       6 GLY6        0.0000 
     59 CA        -11.3400  -42.3700   13.5600 C.3       6 GLY6        0.0000 
     60 CA         -7.2900  -46.0800   16.4000 C.3       6 GLY6        0.0000 
     61 CA        -10.1000  -44.3800   17.0800 C.3       6 GLY6        0.0000 
     62 CA        -11.4900  -44.2500   17.6400 C.3       6 GLY6        0.0000 
     63 CA         -2.2100  -38.4600   15.1300 C.3       6 GLY6        0.0000 
     64 CA         -3.5900  -38.3300   15.7000 C.3       6 GLY6        0.0000 
     65 CA         -1.4600  -43.7600   18.2300 C.3       6 GLY6        0.0000 
     66 CA         -1.6300  -38.0300   16.4500 C.3       6 GLY6        0.0000 
     67 CA         -2.8400  -43.6300   18.7900 C.3       6 GLY6        0.0000 
     68 CA         -2.2600  -43.2000   20.1100 C.3       6 GLY6        0.0000 
     69 CA         -2.4400  -37.4700   18.3300 C.3       6 GLY6        0.0000 
     70 CA         -0.3000  -42.9100   20.8600 C.3       6 GLY6        0.0000 
     71 CA         -1.6900  -42.7800   21.4300 C.3       6 GLY6        0.0000 
     72 CA         -1.8200  -38.4800   20.0900 C.3       6 GLY6        0.0000 
     73 CA         -3.1600  -39.7800   21.1000 C.3       6 GLY6        0.0000 
     74 DU         -3.5000  -41.1900   16.5800 H         7 CUB7        0.0000 
     75 DU         -2.8800  -42.2000   18.3500 H         7 CUB7        0.0000 
     76 DU         -4.2200  -43.5000   19.3500 H         7 CUB7        0.0000 
     77 DU         -2.3100  -41.7700   19.6600 H         7 CUB7        0.0000 
     78 DU         -2.3500  -40.3400   19.2200 H         7 CUB7        0.0000 
     79 DU         -1.7300  -41.3400   20.9800 H         7 CUB7        0.0000 
     80 DU         -1.7800  -39.9100   20.5400 H         7 CUB7        0.0000 
@<TRIPOS>BOND
@<TRIPOS>SUBSTRUCTURE
     1 SER1        1 GROUP   
     2 ALA2       18 GROUP   
     3 ASP3       19 GROUP   
     4 LYS4       28 GROUP   
     5 PHE5       30 GROUP   
     6 GLY6       58 GROUP   
     7 CUB7       74 GROUP   
@<TRIPOS>SET

