#    Name: 6dz5_2_P61
#    Modification time : Fri May 22 19:23:47 2020

@<TRIPOS>MOLECULE
6dz5_2_P61
   29    30     1     0     0
SMALL
NO_CHARGES


@<TRIPOS>ATOM
      1 C          -6.5040  -45.5620   19.0520 C.2       1 P61601      0.0000 
      2 F          -1.9820  -43.3520   18.3180 F         1 P61601      0.0000 
      3 N          -8.4810  -44.5630   17.6930 N.2       1 P61601      0.0000 
      4 O          -7.0760  -45.0450   20.0520 O.co2     1 P61601      0.0000 
      5 P          -9.1630  -43.8070   12.2900 P.3       1 P61601      0.0000 
      6 N1        -12.5280  -41.5160   17.1270 N.pl3     1 P61601      0.0000 
      7 C2        -12.1230  -42.2810   18.1850 C.2       1 P61601      0.0000 
      8 C3        -10.9130  -43.0540   18.0220 C.2       1 P61601      0.0000 
      9 O3        -10.5330  -43.7770   19.0240 O.3       1 P61601      0.0000 
     10 C4        -10.1670  -43.0120   16.7980 C.2       1 P61601      0.0000 
     11 C5        -10.6390  -42.2110   15.7470 C.2       1 P61601      0.0000 
     12 C6        -11.8440  -41.4500   15.9280 C.2       1 P61601      0.0000 
     13 CA         -7.2500  -45.4170   17.5750 C.2       1 P61601      0.0000 
     14 CB         -6.2650  -44.9540   16.4230 C.3       1 P61601      0.0000 
     15 CG         -5.2880  -43.7950   16.7620 C.ar      1 P61601      0.0000 
     16 OH         -2.5880  -40.6370   17.6480 O.3       1 P61601      0.0000 
     17 CZ         -3.4300  -41.6960   17.3780 C.ar      1 P61601      0.0000 
     18 O1P        -8.0360  -44.1800   13.2290 O.co2     1 P61601      0.0000 
     19 C2A       -12.8350  -42.3850   19.5090 C.3       1 P61601      0.0000 
     20 O2P        -8.9620  -42.5270   11.5090 O.co2     1 P61601      0.0000 
     21 O3P       -10.0020  -44.9080   11.6830 O.co2     1 P61601      0.0000 
     22 C4A        -8.9540  -43.8160   16.6740 C.2       1 P61601      0.0000 
     23 O4P       -10.3210  -43.1210   13.5630 O.3       1 P61601      0.0000 
     24 C5A        -9.8560  -42.1420   14.3830 C.3       1 P61601      0.0000 
     25 CD1        -4.0590  -44.0940   17.3920 C.ar      1 P61601      0.0000 
     26 CD2        -5.5550  -42.4350   16.4290 C.ar      1 P61601      0.0000 
     27 CE1        -3.1720  -43.0420   17.6890 C.ar      1 P61601      0.0000 
     28 CE2        -4.6490  -41.3840   16.7340 C.ar      1 P61601      0.0000 
     29 OXT        -5.4200  -46.2070   19.0710 O.co2     1 P61601      0.0000 
@<TRIPOS>BOND
     1    1    4 ar   
     2    1   13 1    
     3    1   29 ar   
     4    2   27 1    
     5    3   13 2    
     6    3   22 1    
     7    5   18 ar   
     8    5   20 ar   
     9    5   21 ar   
    10    5   23 1    
    11    6    7 1    
    12    6   12 1    
    13    7    8 2    
    14    7   19 1    
    15    8    9 1    
    16    8   10 1    
    17   10   11 1    
    18   10   22 2    
    19   11   12 2    
    20   11   24 1    
    21   13   14 1    
    22   14   15 1    
    23   15   25 ar   
    24   15   26 ar   
    25   16   17 1    
    26   17   27 ar   
    27   17   28 ar   
    28   23   24 1    
    29   25   27 ar   
    30   26   28 ar   
@<TRIPOS>SUBSTRUCTURE
     1 P61601      1 GROUP   
@<TRIPOS>SET

