#    Name: 6bh8_2_RDF
#    Modification time : Fri May 22 19:24:31 2020

@<TRIPOS>MOLECULE
6bh8_2_RDF
   37    39     1     0     0
SMALL
NO_CHARGES


@<TRIPOS>ATOM
      1 C1         31.0350  -14.5940  -17.1670 C.3       1 RDF502      0.0000 
      2 O1         31.1670  -15.6180  -18.1020 O.3       1 RDF502      0.0000 
      3 C2         31.3570  -15.1340  -15.8010 C.3       1 RDF502      0.0000 
      4 O2         31.0300  -14.1280  -14.8140 O.3       1 RDF502      0.0000 
      5 C3         32.8060  -15.4980  -15.6660 C.3       1 RDF502      0.0000 
      6 O3         33.0770  -15.8570  -14.2710 O.3       1 RDF502      0.0000 
      7 C4         33.7020  -14.3740  -16.0520 C.3       1 RDF502      0.0000 
      8 O4         35.1050  -14.8540  -16.0630 O.3       1 RDF502      0.0000 
      9 C5         33.3700  -13.8290  -17.4280 C.3       1 RDF502      0.0000 
     10 O5         31.9380  -13.4680  -17.5540 O.3       1 RDF502      0.0000 
     11 C6         34.2150  -12.5980  -17.6760 C.3       1 RDF502      0.0000 
     12 P          30.4440  -15.4310  -19.5700 P.3       1 RDF502      0.0000 
     13 O1P        31.0540  -14.2520  -20.2820 O.co2     1 RDF502      0.0000 
     14 O2P        30.6430  -16.6240  -20.3600 O.co2     1 RDF502      0.0000 
     15 N          28.7570  -15.1620  -19.3540 N.3       1 RDF502      0.0000 
     16 CA         28.0080  -14.4370  -20.3600 C.3       1 RDF502      0.0000 
     17 C          28.2280  -12.9510  -20.1780 C.2       1 RDF502      0.0000 
     18 O          28.3540  -12.2310  -21.1520 O.2       1 RDF502      0.0000 
     19 CB         26.5200  -14.7550  -20.2140 C.3       1 RDF502      0.0000 
     20 CG         25.6820  -13.6760  -20.9680 C.3       1 RDF502      0.0000 
     21 CD1        24.3140  -13.6060  -20.3730 C.3       1 RDF502      0.0000 
     22 CD2        25.5790  -14.0610  -22.4780 C.3       1 RDF502      0.0000 
     23 N1         28.2900  -12.3630  -18.7900 N.am      1 RDF502      0.0000 
     24 CA1        28.4970  -10.9700  -18.6240 C.3       1 RDF502      0.0000 
     25 C7         29.0210  -10.6920  -17.1640 C.2       1 RDF502      0.0000 
     26 O6         29.7250  -11.5590  -16.5710 O.co2     1 RDF502      0.0000 
     27 CB1        27.1840  -10.2290  -18.8400 C.3       1 RDF502      0.0000 
     28 CG1        26.2980  -10.3510  -17.5470 C.2       1 RDF502      0.0000 
     29 CD11       25.6500  -11.4900  -17.0930 C.2       1 RDF502      0.0000 
     30 CD21       26.0350   -9.3230  -16.6710 C.ar      1 RDF502      0.0000 
     31 NE1        24.9880  -11.1600  -15.9330 N.pl3     1 RDF502      0.0000 
     32 CE2        25.2230   -9.8230  -15.6690 C.ar      1 RDF502      0.0000 
     33 CE3        26.4360   -7.9730  -16.6540 C.ar      1 RDF502      0.0000 
     34 CZ2        24.7960   -8.9790  -14.6270 C.ar      1 RDF502      0.0000 
     35 CZ3        26.0090   -7.1310  -15.6130 C.ar      1 RDF502      0.0000 
     36 CH2        25.1970   -7.6270  -14.6080 C.ar      1 RDF502      0.0000 
     37 OXT        28.7280   -9.5680  -16.5660 O.co2     1 RDF502      0.0000 
@<TRIPOS>BOND
     1    1    2 1    
     2    1    3 1    
     3    1   10 1    
     4    2   12 1    
     5    3    4 1    
     6    3    5 1    
     7    5    6 1    
     8    5    7 1    
     9    7    8 1    
    10    7    9 1    
    11    9   10 1    
    12    9   11 1    
    13   12   13 ar   
    14   12   14 ar   
    15   12   15 1    
    16   15   16 1    
    17   16   17 1    
    18   16   19 1    
    19   17   18 2    
    20   17   23 am   
    21   19   20 1    
    22   20   21 1    
    23   20   22 1    
    24   23   24 1    
    25   24   25 1    
    26   24   27 1    
    27   25   26 ar   
    28   25   37 ar   
    29   27   28 1    
    30   28   29 2    
    31   28   30 1    
    32   29   31 1    
    33   30   32 ar   
    34   30   33 ar   
    35   31   32 1    
    36   32   34 ar   
    37   33   35 ar   
    38   34   36 ar   
    39   35   36 ar   
@<TRIPOS>SUBSTRUCTURE
     1 RDF502      1 GROUP   
@<TRIPOS>SET

