#    Name: 6bh8_1_RDF_CAVITY_N1_4
#    Modification time : Fri May 22 19:24:24 2020

@<TRIPOS>MOLECULE
6bh8_1_RDF_CAVITY_N1_4
  108     0     7     0     0
SMALL
NO_CHARGES


@<TRIPOS>ATOM
      1 OG         -2.8400   19.4300  -39.5000 O.3       1 SER1        0.0000 
      2 OG         -0.7300   25.0200  -41.6800 O.3       1 SER1        0.0000 
      3 OG          0.5700   23.3500  -41.6200 O.3       1 SER1        0.0000 
      4 OG          0.0000   26.9500  -41.1900 O.3       1 SER1        0.0000 
      5 OG         -0.0200   25.6200  -40.5000 O.3       1 SER1        0.0000 
      6 OG          3.9600   20.8000  -36.6500 O.3       1 SER1        0.0000 
      7 O           1.7600   18.8100  -43.8600 O.2       2 ALA2        0.0000 
      8 O           0.4400   19.1500  -43.2300 O.2       2 ALA2        0.0000 
      9 N           0.4200   17.8200  -42.5500 N.am      2 ALA2        0.0000 
     10 O          -0.1700   20.0900  -41.4300 O.2       2 ALA2        0.0000 
     11 N           1.1300   18.4100  -41.3700 N.am      2 ALA2        0.0000 
     12 O           1.8800   21.6800  -41.5600 O.2       2 ALA2        0.0000 
     13 O           0.5500   22.0200  -40.9400 O.2       2 ALA2        0.0000 
     14 O           0.5400   20.6800  -40.2500 O.2       2 ALA2        0.0000 
     15 O           1.8400   19.0100  -40.1900 O.2       2 ALA2        0.0000 
     16 O           0.5200   19.3500  -39.5700 O.2       2 ALA2        0.0000 
     17 O           2.6000   23.6100  -41.0600 O.2       2 ALA2        0.0000 
     18 O           2.5800   22.2700  -40.3800 O.2       2 ALA2        0.0000 
     19 O           2.5700   20.9400  -39.6900 O.2       2 ALA2        0.0000 
     20 O           1.2400   21.2800  -39.0700 O.2       2 ALA2        0.0000 
     21 O           1.2100   18.6100  -37.7000 O.2       2 ALA2        0.0000 
     22 N           4.6300   23.8700  -40.5100 N.am      2 ALA2        0.0000 
     23 N           3.2900   22.8700  -39.2000 N.am      2 ALA2        0.0000 
     24 N           3.2700   21.5400  -38.5100 N.am      2 ALA2        0.0000 
     25 O           3.2400   18.8700  -37.1400 O.2       2 ALA2        0.0000 
     26 N           1.4100   28.1500  -38.8300 N.am      2 ALA2        0.0000 
     27 N           1.4000   26.8100  -38.1400 N.am      2 ALA2        0.0000 
     28 N           0.0700   27.1500  -37.5200 N.am      2 ALA2        0.0000 
     29 O           4.0200   24.8000  -38.7000 O.2       2 ALA2        0.0000 
     30 O           2.7000   25.1400  -38.0800 O.2       2 ALA2        0.0000 
     31 O           4.0000   23.4700  -38.0200 O.2       2 ALA2        0.0000 
     32 O           2.6800   23.8000  -37.4000 O.2       2 ALA2        0.0000 
     33 N           0.0400   24.4800  -36.1500 N.am      2 ALA2        0.0000 
     34 O           3.9800   22.1300  -37.3300 O.2       2 ALA2        0.0000 
     35 N           2.1000   27.4100  -36.9600 N.am      2 ALA2        0.0000 
     36 N           3.4100   25.7400  -36.9000 N.am      2 ALA2        0.0000 
     37 OD1        -2.2200   18.4900  -41.3000 O.co2     3 ASP3        0.0000 
     38 OD1        -2.8000   22.1000  -40.8700 O.co2     3 ASP3        0.0000 
     39 OD1        -2.0700   24.0300  -40.3800 O.co2     3 ASP3        0.0000 
     40 OD1        -0.7700   22.3500  -40.3100 O.co2     3 ASP3        0.0000 
     41 OD1        -2.1100   21.3600  -39.0100 O.co2     3 ASP3        0.0000 
     42 OD1        -2.1300   20.0200  -38.3200 O.co2     3 ASP3        0.0000 
     43 OD1        -3.4700   19.0300  -37.0100 O.co2     3 ASP3        0.0000 
     44 OD1        -1.3600   24.6200  -39.2000 O.co2     3 ASP3        0.0000 
     45 OD1        -1.3800   23.2900  -38.5100 O.co2     3 ASP3        0.0000 
     46 OD1        -1.4000   21.9600  -37.8300 O.co2     3 ASP3        0.0000 
     47 NZ         -2.2000   19.8300  -41.9900 N.4       4 LYS4        0.0000 
     48 NZ         -0.9000   18.1600  -41.9300 N.4       4 LYS4        0.0000 
     49 NZ         -1.4900   20.4200  -40.8100 N.4       4 LYS4        0.0000 
     50 NZ         -2.8200   20.7600  -40.1900 N.4       4 LYS4        0.0000 
     51 NZ         -0.1900   18.7500  -40.7500 N.4       4 LYS4        0.0000 
     52 NZ         -1.5100   19.0900  -40.1200 N.4       4 LYS4        0.0000 
     53 NZ         -1.5300   17.7600  -39.4400 N.4       4 LYS4        0.0000 
     54 NZ         -0.8200   18.3500  -38.2600 N.4       4 LYS4        0.0000 
     55 CZ         -0.8600   20.8200  -43.3000 C.ar      5 PHE5        0.0000 
     56 CZ         -0.1500   21.4200  -42.1200 C.ar      5 PHE5        0.0000 
     57 CZ         -1.4800   21.7600  -41.4900 C.ar      5 PHE5        0.0000 
     58 CZ         -2.8500   18.0900  -38.8200 C.ar      5 PHE5        0.0000 
     59 CZ         -0.7500   23.6900  -41.0000 C.ar      5 PHE5        0.0000 
     60 CZ         -2.1500   18.6900  -37.6400 C.ar      5 PHE5        0.0000 
     61 CA         -2.0500   25.3600  -41.0600 C.3       6 GLY6        0.0000 
     62 CA          0.5000   18.0100  -38.8800 C.3       6 GLY6        0.0000 
     63 CA         -2.1600   17.3600  -36.9500 C.3       6 GLY6        0.0000 
     64 CA          2.5500   19.6100  -39.0100 C.3       6 GLY6        0.0000 
     65 CA         -1.4200   20.6200  -37.1400 C.3       6 GLY6        0.0000 
     66 CA         -0.1200   18.9500  -37.0800 C.3       6 GLY6        0.0000 
     67 CA         -1.4400   19.2900  -36.4600 C.3       6 GLY6        0.0000 
     68 CA         -0.6700   23.8900  -37.3300 C.3       6 GLY6        0.0000 
     69 CA         -1.9900   24.2200  -36.7100 C.3       6 GLY6        0.0000 
     70 CA          0.6300   22.2100  -37.2700 C.3       6 GLY6        0.0000 
     71 CA         -0.6900   22.5500  -36.6500 C.3       6 GLY6        0.0000 
     72 CA          3.2600   20.2000  -37.8300 C.3       6 GLY6        0.0000 
     73 CA          1.9300   20.5400  -37.2100 C.3       6 GLY6        0.0000 
     74 CA          0.6100   20.8800  -36.5800 C.3       6 GLY6        0.0000 
     75 CA         -0.7100   21.2200  -35.9600 C.3       6 GLY6        0.0000 
     76 CA          1.9100   19.2100  -36.5200 C.3       6 GLY6        0.0000 
     77 CA          5.3400   24.4600  -39.3300 C.3       6 GLY6        0.0000 
     78 CA          1.3800   25.4800  -37.4600 C.3       6 GLY6        0.0000 
     79 CA          0.0500   25.8200  -36.8400 C.3       6 GLY6        0.0000 
     80 CA          1.3600   24.1400  -36.7700 C.3       6 GLY6        0.0000 
     81 CA          2.6600   22.4700  -36.7100 C.3       6 GLY6        0.0000 
     82 CA          0.0200   23.1500  -35.4700 C.3       6 GLY6        0.0000 
     83 CA          2.6400   21.1400  -36.0300 C.3       6 GLY6        0.0000 
     84 CA          3.4400   28.4000  -38.2700 C.3       6 GLY6        0.0000 
     85 CA          3.4300   27.0700  -37.5900 C.3       6 GLY6        0.0000 
     86 CA          2.0800   26.0700  -36.2800 C.3       6 GLY6        0.0000 
     87 DU         -0.8800   19.4900  -42.6100 H         7 CUB7        0.0000 
     88 DU         -0.7900   21.0200  -39.6300 H         7 CUB7        0.0000 
     89 DU         -0.8100   19.6900  -38.9400 H         7 CUB7        0.0000 
     90 DU          1.3000   25.2800  -41.1300 H         7 CUB7        0.0000 
     91 DU         -1.3400   25.9600  -39.8800 H         7 CUB7        0.0000 
     92 DU          1.2800   23.9500  -40.4400 H         7 CUB7        0.0000 
     93 DU         -0.0400   24.2900  -39.8200 H         7 CUB7        0.0000 
     94 DU          1.2600   22.6100  -39.7600 H         7 CUB7        0.0000 
     95 DU         -0.0600   22.9500  -39.1300 H         7 CUB7        0.0000 
     96 DU         -0.0800   21.6200  -38.4500 H         7 CUB7        0.0000 
     97 DU          1.2300   19.9400  -38.3900 H         7 CUB7        0.0000 
     98 DU         -0.1000   20.2800  -37.7600 H         7 CUB7        0.0000 
     99 DU          0.7100   27.5500  -40.0100 H         7 CUB7        0.0000 
    100 DU          0.6900   26.2200  -39.3200 H         7 CUB7        0.0000 
    101 DU         -0.6400   26.5500  -38.7000 H         7 CUB7        0.0000 
    102 DU          3.3100   24.2000  -39.8800 H         7 CUB7        0.0000 
    103 DU          1.9900   24.5400  -39.2600 H         7 CUB7        0.0000 
    104 DU         -0.6500   25.2200  -38.0200 H         7 CUB7        0.0000 
    105 DU          1.9700   23.2100  -38.5800 H         7 CUB7        0.0000 
    106 DU          0.6500   23.5500  -37.9500 H         7 CUB7        0.0000 
    107 DU          1.9500   21.8700  -37.8900 H         7 CUB7        0.0000 
    108 DU          2.7200   26.4700  -38.7700 H         7 CUB7        0.0000 
@<TRIPOS>BOND
@<TRIPOS>SUBSTRUCTURE
     1 SER1        1 GROUP   
     2 ALA2        7 GROUP   
     3 ASP3       37 GROUP   
     4 LYS4       47 GROUP   
     5 PHE5       55 GROUP   
     6 GLY6       61 GROUP   
     7 CUB7       87 GROUP   
@<TRIPOS>SET

