#    Name: 6bh8_2_RDF_CAVITY_N1_4
#    Modification time : Fri May 22 19:24:33 2020

@<TRIPOS>MOLECULE
6bh8_2_RDF_CAVITY_N1_4
  105     0     7     0     0
SMALL
NO_CHARGES


@<TRIPOS>ATOM
      1 OG         27.5700  -14.0600  -21.7800 O.3       1 SER1        0.0000 
      2 OG         29.1400   -7.3300  -18.4900 O.3       1 SER1        0.0000 
      3 OG         29.1200   -8.6700  -17.8000 O.3       1 SER1        0.0000 
      4 OG         30.4100  -11.6700  -17.0600 O.3       1 SER1        0.0000 
      5 OG         28.5300   -6.4000  -16.6900 O.3       1 SER1        0.0000 
      6 N          24.3700   -8.4400  -20.7800 N.am      2 ALA2        0.0000 
      7 O          25.6200  -14.1200  -18.6700 O.2       2 ALA2        0.0000 
      8 O          24.3000  -13.7800  -18.0400 O.2       2 ALA2        0.0000 
      9 O          23.7600   -7.5100  -18.9800 O.2       2 ALA2        0.0000 
     10 O          26.3500  -12.1900  -18.1700 O.2       2 ALA2        0.0000 
     11 N          23.7000  -11.5100  -16.9300 N.am      2 ALA2        0.0000 
     12 O          27.6500  -13.8600  -18.1100 O.2       2 ALA2        0.0000 
     13 O          26.3300  -13.5200  -17.4900 O.2       2 ALA2        0.0000 
     14 N          25.8100   -5.9200  -19.1100 N.am      2 ALA2        0.0000 
     15 N          24.4900   -5.5800  -18.4900 N.am      2 ALA2        0.0000 
     16 N          23.1500   -6.5700  -17.1800 N.am      2 ALA2        0.0000 
     17 O          24.4500   -8.2500  -17.1200 O.2       2 ALA2        0.0000 
     18 O          23.1300   -7.9100  -16.4900 O.2       2 ALA2        0.0000 
     19 O          24.4300   -9.5800  -16.4300 O.2       2 ALA2        0.0000 
     20 O          28.3800  -11.9300  -17.6100 O.2       2 ALA2        0.0000 
     21 O          27.0600  -11.5900  -16.9900 O.2       2 ALA2        0.0000 
     22 O          25.7300  -11.2500  -16.3700 O.2       2 ALA2        0.0000 
     23 N          24.4100  -10.9200  -15.7500 N.am      2 ALA2        0.0000 
     24 O          29.6800  -13.6000  -17.5500 O.2       2 ALA2        0.0000 
     25 O          28.3600  -13.2600  -16.9300 O.2       2 ALA2        0.0000 
     26 N          29.6600  -14.9400  -16.8700 N.am      2 ALA2        0.0000 
     27 N          25.2000   -4.9800  -17.3100 N.am      2 ALA2        0.0000 
     28 O          29.0900  -11.3300  -16.4300 O.2       2 ALA2        0.0000 
     29 O          26.4400  -10.6600  -15.1900 O.2       2 ALA2        0.0000 
     30 N          25.1200  -10.3200  -14.5700 N.am      2 ALA2        0.0000 
     31 O          30.3900  -13.0100  -16.3700 O.2       2 ALA2        0.0000 
     32 O          30.3700  -14.3400  -15.6900 O.2       2 ALA2        0.0000 
     33 O          25.2900   -3.4500  -14.3200 O.2       2 ALA2        0.0000 
     34 N          25.2700   -4.7900  -13.6400 N.am      2 ALA2        0.0000 
     35 OD1        25.7000   -8.7800  -21.4100 O.co2     3 ASP3        0.0000 
     36 OD1        28.3000  -12.1300  -21.2800 O.co2     3 ASP3        0.0000 
     37 OD1        26.9800  -11.7900  -20.6600 O.co2     3 ASP3        0.0000 
     38 OD1        26.4000   -8.1900  -20.2300 O.co2     3 ASP3        0.0000 
     39 OD1        27.7100   -9.8600  -20.1600 O.co2     3 ASP3        0.0000 
     40 OD1        26.3900   -9.5200  -19.5400 O.co2     3 ASP3        0.0000 
     41 OD1        27.6900  -11.1900  -19.4800 O.co2     3 ASP3        0.0000 
     42 OD1        31.0000  -13.9400  -18.1700 O.co2     3 ASP3        0.0000 
     43 OD1        27.3000   -4.5300  -13.0800 O.co2     3 ASP3        0.0000 
     44 NZ         28.2800  -13.4600  -20.6000 N.4       4 LYS4        0.0000 
     45 NZ         28.2600  -14.8000  -19.9100 N.4       4 LYS4        0.0000 
     46 NZ         26.9400  -14.4600  -19.2900 N.4       4 LYS4        0.0000 
     47 NZ         29.0100  -11.5300  -20.1000 N.4       4 LYS4        0.0000 
     48 NZ         28.9900  -12.8700  -19.4200 N.4       4 LYS4        0.0000 
     49 NZ         28.9700  -14.2000  -18.7300 N.4       4 LYS4        0.0000 
     50 NZ         28.9500  -15.5300  -18.0500 N.4       4 LYS4        0.0000 
     51 CZ         28.4200   -9.2600  -18.9800 C.ar      5 PHE5        0.0000 
     52 CZ         29.7200  -10.9300  -18.9200 C.ar      5 PHE5        0.0000 
     53 CZ         28.4000  -10.6000  -18.3000 C.ar      5 PHE5        0.0000 
     54 CZ         31.0200  -12.6100  -18.8600 C.ar      5 PHE5        0.0000 
     55 CZ         29.7000  -12.2700  -18.2400 C.ar      5 PHE5        0.0000 
     56 CA         25.5400  -14.3100  -22.3300 C.3       6 GLY6        0.0000 
     57 CA         26.2700  -12.3800  -21.8400 C.3       6 GLY6        0.0000 
     58 CA         24.9500  -12.0500  -21.2200 C.3       6 GLY6        0.0000 
     59 CA         24.9300  -13.3800  -20.5300 C.3       6 GLY6        0.0000 
     60 CA         26.2300  -15.0500  -20.4700 C.3       6 GLY6        0.0000 
     61 CA         24.9100  -14.7100  -19.8500 C.3       6 GLY6        0.0000 
     62 CA         23.5900  -14.3800  -19.2200 C.3       6 GLY6        0.0000 
     63 CA         25.6800  -10.1200  -20.7200 C.3       6 GLY6        0.0000 
     64 CA         25.6600  -11.4500  -20.0400 C.3       6 GLY6        0.0000 
     65 CA         24.3200  -12.4500  -18.7300 C.3       6 GLY6        0.0000 
     66 CA         23.0000  -12.1100  -18.1100 C.3       6 GLY6        0.0000 
     67 CA         22.9800  -13.4400  -17.4200 C.3       6 GLY6        0.0000 
     68 CA         23.7400   -8.8400  -18.3000 C.3       6 GLY6        0.0000 
     69 CA         23.7200  -10.1800  -17.6100 C.3       6 GLY6        0.0000 
     70 CA         25.0100  -13.1800  -16.8600 C.3       6 GLY6        0.0000 
     71 CA         23.6800  -12.8500  -16.2400 C.3       6 GLY6        0.0000 
     72 CA         28.4300   -7.9300  -19.6700 C.3       6 GLY6        0.0000 
     73 CA         24.4700   -6.9100  -17.8000 C.3       6 GLY6        0.0000 
     74 CA         23.8700   -4.6400  -16.6800 C.3       6 GLY6        0.0000 
     75 CA         23.8500   -5.9800  -16.0000 C.3       6 GLY6        0.0000 
     76 CA         25.1600   -7.6500  -15.9400 C.3       6 GLY6        0.0000 
     77 CA         25.9000   -4.3900  -16.1300 C.3       6 GLY6        0.0000 
     78 CA         24.5800   -4.0500  -15.5000 C.3       6 GLY6        0.0000 
     79 CA         24.5600   -5.3800  -14.8200 C.3       6 GLY6        0.0000 
     80 CA         24.5400   -6.7200  -14.1300 C.3       6 GLY6        0.0000 
     81 DU         26.2500  -13.7200  -21.1500 H         7 CUB7        0.0000 
     82 DU         26.9600  -13.1200  -19.9700 H         7 CUB7        0.0000 
     83 DU         25.6400  -12.7800  -19.3500 H         7 CUB7        0.0000 
     84 DU         25.0800   -7.8500  -19.6000 H         7 CUB7        0.0000 
     85 DU         25.0600   -9.1800  -18.9200 H         7 CUB7        0.0000 
     86 DU         26.3700  -10.8500  -18.8600 H         7 CUB7        0.0000 
     87 DU         25.0400  -10.5200  -18.2300 H         7 CUB7        0.0000 
     88 DU         27.6700  -12.5300  -18.7900 H         7 CUB7        0.0000 
     89 DU         25.0300  -11.8500  -17.5500 H         7 CUB7        0.0000 
     90 DU         27.1300   -6.2600  -19.7300 H         7 CUB7        0.0000 
     91 DU         27.1100   -7.5900  -19.0500 H         7 CUB7        0.0000 
     92 DU         25.7900   -7.2500  -18.4200 H         7 CUB7        0.0000 
     93 DU         27.0900   -8.9200  -18.3600 H         7 CUB7        0.0000 
     94 DU         27.0700  -10.2600  -17.6800 H         7 CUB7        0.0000 
     95 DU         25.7500   -9.9200  -17.0500 H         7 CUB7        0.0000 
     96 DU         30.9800  -15.2800  -17.4900 H         7 CUB7        0.0000 
     97 DU         27.8400   -5.6600  -18.5500 H         7 CUB7        0.0000 
     98 DU         26.5200   -5.3200  -17.9300 H         7 CUB7        0.0000 
     99 DU         27.8200   -6.9900  -17.8700 H         7 CUB7        0.0000 
    100 DU         25.1800   -6.3200  -16.6200 H         7 CUB7        0.0000 
    101 DU         28.5500   -5.0600  -17.3700 H         7 CUB7        0.0000 
    102 DU         27.2300   -4.7200  -16.7500 H         7 CUB7        0.0000 
    103 DU         25.8900   -5.7200  -15.4400 H         7 CUB7        0.0000 
    104 DU         25.8700   -7.0500  -14.7600 H         7 CUB7        0.0000 
    105 DU         26.6100   -3.7900  -14.9500 H         7 CUB7        0.0000 
@<TRIPOS>BOND
@<TRIPOS>SUBSTRUCTURE
     1 SER1        1 GROUP   
     2 ALA2        6 GROUP   
     3 ASP3       35 GROUP   
     4 LYS4       44 GROUP   
     5 PHE5       51 GROUP   
     6 GLY6       56 GROUP   
     7 CUB7       81 GROUP   
@<TRIPOS>SET

