#    Name: 6bh8_1_RDF
#    Modification time : Fri May 22 19:24:23 2020

@<TRIPOS>MOLECULE
6bh8_1_RDF
   37    39     1     0     0
SMALL
NO_CHARGES


@<TRIPOS>ATOM
      1 C1         -0.5130   18.3300  -43.7570 C.3       1 RDF502      0.0000 
      2 O1         -1.3990   17.3070  -43.4290 O.3       1 RDF502      0.0000 
      3 C2          0.5370   17.7890  -44.6880 C.3       1 RDF502      0.0000 
      4 O2          1.5610   18.7950  -44.8700 O.3       1 RDF502      0.0000 
      5 C3         -0.0320   17.4230  -46.0270 C.3       1 RDF502      0.0000 
      6 O3          1.0670   17.0630  -46.9270 O.3       1 RDF502      0.0000 
      7 C4         -0.7970   18.5460  -46.6340 C.3       1 RDF502      0.0000 
      8 O4         -1.4720   18.0650  -47.8640 O.3       1 RDF502      0.0000 
      9 C5         -1.8510   19.0930  -45.6900 C.3       1 RDF502      0.0000 
     10 O5         -1.2820   19.4560  -44.3700 O.3       1 RDF502      0.0000 
     11 C6         -2.4700   20.3230  -46.3180 C.3       1 RDF502      0.0000 
     12 P          -2.3480   17.4960  -42.0960 P.3       1 RDF502      0.0000 
     13 O1P        -3.2650   18.6750  -42.2970 O.co2     1 RDF502      0.0000 
     14 O2P        -3.1380   16.3030  -41.8950 O.co2     1 RDF502      0.0000 
     15 N          -1.3580   17.7670  -40.7140 N.3       1 RDF502      0.0000 
     16 CA         -1.8880   18.4940  -39.5780 C.3       1 RDF502      0.0000 
     17 C          -1.8320   19.9790  -39.8600 C.2       1 RDF502      0.0000 
     18 O          -2.7490   20.7000  -39.5100 O.2       1 RDF502      0.0000 
     19 CB         -1.0530   18.1770  -38.3370 C.3       1 RDF502      0.0000 
     20 CG         -1.3200   19.2580  -37.2430 C.3       1 RDF502      0.0000 
     21 CD1        -0.1470   19.3290  -36.3210 C.3       1 RDF502      0.0000 
     22 CD2        -2.6000   18.8740  -36.4360 C.3       1 RDF502      0.0000 
     23 N1         -0.6400   20.5660  -40.5740 N.am      1 RDF502      0.0000 
     24 CA1        -0.5910   21.9590  -40.8370 C.3       1 RDF502      0.0000 
     25 C7          0.4450   22.2350  -41.9910 C.2       1 RDF502      0.0000 
     26 O6          0.6330   21.3670  -42.8910 O.co2     1 RDF502      0.0000 
     27 CB1        -0.1590   22.7010  -39.5800 C.3       1 RDF502      0.0000 
     28 CG1         1.4000   22.5800  -39.4130 C.2       1 RDF502      0.0000 
     29 CD11        2.1070   21.4410  -39.0570 C.2       1 RDF502      0.0000 
     30 CD21        2.2960   23.6070  -39.5990 C.ar      1 RDF502      0.0000 
     31 NE1         3.4420   21.7710  -39.0250 N.pl3     1 RDF502      0.0000 
     32 CE2         3.5630   23.1080  -39.3590 C.ar      1 RDF502      0.0000 
     33 CE3         2.1200   24.9570  -39.9620 C.ar      1 RDF502      0.0000 
     34 CZ2         4.6830   23.9510  -39.4780 C.ar      1 RDF502      0.0000 
     35 CZ3         3.2390   25.7990  -40.0810 C.ar      1 RDF502      0.0000 
     36 CH2         4.5090   25.3030  -39.8420 C.ar      1 RDF502      0.0000 
     37 OXT         1.1100   23.3590  -42.0190 O.co2     1 RDF502      0.0000 
@<TRIPOS>BOND
     1   24   25 1    
     2   24   27 1    
     3   25   26 ar   
     4   25   37 ar   
     5   27   28 1    
     6   28   29 2    
     7   28   30 1    
     8   29   31 1    
     9   30   32 ar   
    10   30   33 ar   
    11   31   32 1    
    12   32   34 ar   
    13   33   35 ar   
    14   34   36 ar   
    15   35   36 ar   
    16    1    2 1    
    17    1    3 1    
    18    1   10 1    
    19    2   12 1    
    20    3    4 1    
    21    3    5 1    
    22    5    6 1    
    23    5    7 1    
    24    7    8 1    
    25    7    9 1    
    26    9   10 1    
    27    9   11 1    
    28   12   13 ar   
    29   12   14 ar   
    30   12   15 1    
    31   15   16 1    
    32   16   17 1    
    33   16   19 1    
    34   17   18 2    
    35   17   23 am   
    36   19   20 1    
    37   20   21 1    
    38   20   22 1    
    39   23   24 1    
@<TRIPOS>SUBSTRUCTURE
     1 RDF502      1 GROUP   
@<TRIPOS>SET

