#    Name: 6b0l_3_GDP_CAVITY_N1_6
#    Modification time : Fri May 22 19:31:07 2020

@<TRIPOS>MOLECULE
6b0l_3_GDP_CAVITY_N1_6
   98     0     6     0     0
SMALL
NO_CHARGES


@<TRIPOS>ATOM
      1 OG        164.1600  211.1700  299.3700 O.3       1 SER1        0.0000 
      2 OG        165.1900  211.4900  300.4200 O.3       1 SER1        0.0000 
      3 OG        164.3900  212.7000  300.8200 O.3       1 SER1        0.0000 
      4 OG        163.6000  213.9000  301.2300 O.3       1 SER1        0.0000 
      5 OG        162.8100  215.1100  301.6300 O.3       1 SER1        0.0000 
      6 OG        164.4600  208.6200  302.0100 O.3       1 SER1        0.0000 
      7 OG        163.6700  209.8300  302.4100 O.3       1 SER1        0.0000 
      8 OG        162.8800  211.0400  302.8100 O.3       1 SER1        0.0000 
      9 OG        164.6900  210.1500  303.4600 O.3       1 SER1        0.0000 
     10 OG        163.9000  211.3600  303.8600 O.3       1 SER1        0.0000 
     11 OG        169.5800  210.5400  300.7200 O.3       1 SER1        0.0000 
     12 OG        168.8200  209.7100  301.7100 O.3       1 SER1        0.0000 
     13 OG        168.0300  210.9200  302.1200 O.3       1 SER1        0.0000 
     14 OG        164.1600  210.8500  305.9000 O.3       1 SER1        0.0000 
     15 OG        169.0500  211.2400  303.1700 O.3       1 SER1        0.0000 
     16 N         163.1800  208.8100  298.9100 N.am      2 ALA2        0.0000 
     17 O         165.7500  208.7500  298.5700 O.2       2 ALA2        0.0000 
     18 O         165.7800  206.7100  299.1600 O.2       2 ALA2        0.0000 
     19 O         164.9900  207.9200  299.5600 O.2       2 ALA2        0.0000 
     20 N         163.4100  210.3400  300.3700 N.am      2 ALA2        0.0000 
     21 N         162.6100  211.5500  300.7700 N.am      2 ALA2        0.0000 
     22 N         162.6500  209.5100  301.3600 N.am      2 ALA2        0.0000 
     23 O         168.2900  210.7300  297.6300 O.2       2 ALA2        0.0000 
     24 N         167.5000  211.9400  298.0300 N.am      2 ALA2        0.0000 
     25 O         166.7400  211.1100  299.0200 O.2       2 ALA2        0.0000 
     26 O         165.9800  210.2800  300.0200 O.2       2 ALA2        0.0000 
     27 O         166.8100  207.0400  300.2100 O.2       2 ALA2        0.0000 
     28 O         166.0100  208.2400  300.6100 O.2       2 ALA2        0.0000 
     29 O         163.6400  211.8700  301.8200 O.2       2 ALA2        0.0000 
     30 N         170.0400  213.9200  297.0900 N.am      2 ALA2        0.0000 
     31 N         170.0700  211.8800  297.6800 N.am      2 ALA2        0.0000 
     32 N         169.2800  213.0900  298.0900 N.am      2 ALA2        0.0000 
     33 N         168.4900  214.3000  298.4900 N.am      2 ALA2        0.0000 
     34 O         169.3100  211.0500  298.6800 O.2       2 ALA2        0.0000 
     35 N         168.5200  212.2600  299.0800 N.am      2 ALA2        0.0000 
     36 O         168.5500  210.2200  299.6700 O.2       2 ALA2        0.0000 
     37 O         167.7600  211.4300  300.0700 O.2       2 ALA2        0.0000 
     38 O         165.3800  215.0500  301.2800 O.2       2 ALA2        0.0000 
     39 O         167.8000  209.3900  300.6600 O.2       2 ALA2        0.0000 
     40 N         163.8700  213.4000  303.2700 N.am      2 ALA2        0.0000 
     41 N         163.0700  214.6000  303.6700 N.am      2 ALA2        0.0000 
     42 N         163.1100  212.5700  304.2600 N.am      2 ALA2        0.0000 
     43 O         171.0600  214.2400  298.1400 O.2       2 ALA2        0.0000 
     44 O         167.2000  214.1700  301.9300 O.2       2 ALA2        0.0000 
     45 N         165.6500  214.5500  303.3200 N.am      2 ALA2        0.0000 
     46 N         164.8900  213.7200  304.3200 N.am      2 ALA2        0.0000 
     47 N         164.1000  214.9300  304.7200 N.am      2 ALA2        0.0000 
     48 N         163.3400  214.1000  305.7100 N.am      2 ALA2        0.0000 
     49 N         168.2200  214.4900  302.9800 N.am      2 ALA2        0.0000 
     50 N         167.4600  213.6600  303.9700 N.am      2 ALA2        0.0000 
     51 NZ        165.0300  205.8800  300.1500 N.4       3 LYS4        0.0000 
     52 NZ        164.2300  207.0900  300.5500 N.4       3 LYS4        0.0000 
     53 NZ        163.4400  208.3000  300.9600 N.4       3 LYS4        0.0000 
     54 CZ        171.0900  212.2000  298.7300 C.ar      4 PHE5        0.0000 
     55 CZ        170.3000  213.4100  299.1400 C.ar      4 PHE5        0.0000 
     56 CZ        170.3400  211.3700  299.7300 C.ar      4 PHE5        0.0000 
     57 CZ        169.5400  212.5800  300.1300 C.ar      4 PHE5        0.0000 
     58 CZ        168.7800  211.7500  301.1200 C.ar      4 PHE5        0.0000 
     59 CZ        170.5300  214.9400  300.5900 C.ar      4 PHE5        0.0000 
     60 CZ        169.7700  214.1100  301.5800 C.ar      4 PHE5        0.0000 
     61 CZ        169.8100  212.0700  302.1700 C.ar      4 PHE5        0.0000 
     62 CZ        169.0100  213.2800  302.5700 C.ar      4 PHE5        0.0000 
     63 CZ        171.5500  215.2600  301.6400 C.ar      4 PHE5        0.0000 
     64 CZ        170.8000  214.4300  302.6300 C.ar      4 PHE5        0.0000 
     65 CA        165.7200  210.7900  297.9800 C.3       5 GLY6        0.0000 
     66 CA        164.9600  209.9600  298.9700 C.3       5 GLY6        0.0000 
     67 CA        165.9500  212.3200  299.4300 C.3       5 GLY6        0.0000 
     68 CA        162.8400  213.0800  302.2200 C.3       5 GLY6        0.0000 
     69 CA        162.0500  214.2800  302.6200 C.3       5 GLY6        0.0000 
     70 CA        165.2600  207.4100  301.6000 C.3       5 GLY6        0.0000 
     71 CA        167.7300  213.4700  299.4800 C.3       5 GLY6        0.0000 
     72 CA        166.9700  212.6400  300.4800 C.3       5 GLY6        0.0000 
     73 CA        166.1800  213.8500  300.8800 C.3       5 GLY6        0.0000 
     74 CA        163.8300  215.4300  302.6800 C.3       5 GLY6        0.0000 
     75 CA        166.2400  209.7700  302.0600 C.3       5 GLY6        0.0000 
     76 CA        165.4900  208.9400  303.0500 C.3       5 GLY6        0.0000 
     77 CA        170.2700  215.4500  298.5500 C.3       5 GLY6        0.0000 
     78 CA        169.5100  214.6200  299.5400 C.3       5 GLY6        0.0000 
     79 CA        168.7200  215.8300  299.9400 C.3       5 GLY6        0.0000 
     80 CA        168.7500  213.7900  300.5300 C.3       5 GLY6        0.0000 
     81 CA        167.9600  215.0000  300.9400 C.3       5 GLY6        0.0000 
     82 CA        167.2700  210.0900  303.1100 C.3       5 GLY6        0.0000 
     83 CA        172.0800  214.5600  299.1900 C.3       5 GLY6        0.0000 
     84 CA        171.2900  215.7700  299.5900 C.3       5 GLY6        0.0000 
     85 CA        169.7400  216.1500  300.9900 C.3       5 GLY6        0.0000 
     86 CA        168.9800  215.3200  301.9800 C.3       5 GLY6        0.0000 
     87 DU        164.2000  209.1300  299.9600 H         6 CUB7        0.0000 
     88 DU        165.2200  209.4500  301.0100 H         6 CUB7        0.0000 
     89 DU        164.4300  210.6600  301.4100 H         6 CUB7        0.0000 
     90 DU        167.0000  210.6000  301.0700 H         6 CUB7        0.0000 
     91 DU        166.2100  211.8100  301.4700 H         6 CUB7        0.0000 
     92 DU        165.4200  213.0200  301.8700 H         6 CUB7        0.0000 
     93 DU        164.6200  214.2300  302.2800 H         6 CUB7        0.0000 
     94 DU        165.4500  210.9800  302.4600 H         6 CUB7        0.0000 
     95 DU        164.6600  212.1900  302.8700 H         6 CUB7        0.0000 
     96 DU        167.9900  212.9600  301.5300 H         6 CUB7        0.0000 
     97 DU        166.4400  213.3400  302.9200 H         6 CUB7        0.0000 
     98 DU        166.4700  211.3000  303.5100 H         6 CUB7        0.0000 
@<TRIPOS>BOND
@<TRIPOS>SUBSTRUCTURE
     1 SER1        1 GROUP   
     2 ALA2       16 GROUP   
     3 LYS4       51 GROUP   
     4 PHE5       54 GROUP   
     5 GLY6       65 GROUP   
     6 CUB7       87 GROUP   
@<TRIPOS>SET

