#    Name: 6b0l_1_TA1
#    Modification time : Fri May 22 19:30:45 2020

@<TRIPOS>MOLECULE
6b0l_1_TA1
   62    68     1     0     0
SMALL
NO_CHARGES


@<TRIPOS>ATOM
      1 O01       185.2820  214.2080  287.7880 O.3       1 TA1502      0.0000 
      2 C01       185.2270  213.8820  286.3940 C.3       1 TA1502      0.0000 
      3 C02       184.7610  212.3620  286.3510 C.3       1 TA1502      0.0000 
      4 O02       183.4950  212.3980  287.0710 O.3       1 TA1502      0.0000 
      5 C03       183.4070  211.8940  288.3260 C.2       1 TA1502      0.0000 
      6 O03       184.3110  211.3460  288.9030 O.2       1 TA1502      0.0000 
      7 C04       182.0610  212.1420  288.9060 C.ar      1 TA1502      0.0000 
      8 C05       181.9740  212.6810  290.1830 C.ar      1 TA1502      0.0000 
      9 C06       180.7330  212.9320  290.7460 C.ar      1 TA1502      0.0000 
     10 C07       179.5810  212.6520  290.0440 C.ar      1 TA1502      0.0000 
     11 C08       179.6610  212.1200  288.7720 C.ar      1 TA1502      0.0000 
     12 C09       180.8980  211.8650  288.2020 C.ar      1 TA1502      0.0000 
     13 C10       184.5100  211.6560  284.9460 C.3       1 TA1502      0.0000 
     14 C11       183.1750  210.8510  284.9240 C.3       1 TA1502      0.0000 
     15 O04       182.0210  211.7280  285.0990 O.3       1 TA1502      0.0000 
     16 C12       181.6640  212.6500  284.1860 C.2       1 TA1502      0.0000 
     17 O05       182.2580  212.8320  283.1540 O.2       1 TA1502      0.0000 
     18 C13       180.4550  213.4020  284.6380 C.3       1 TA1502      0.0000 
     19 C14       182.8860  209.7360  285.9310 C.3       1 TA1502      0.0000 
     20 O06       182.7220  208.7570  284.8770 O.3       1 TA1502      0.0000 
     21 C15       182.9630  209.7610  283.8390 C.3       1 TA1502      0.0000 
     22 C16       184.1070  209.4070  282.9110 C.3       1 TA1502      0.0000 
     23 C17       185.2390  210.4180  282.9040 C.3       1 TA1502      0.0000 
     24 O07       186.3120  209.9880  282.0640 O.3       1 TA1502      0.0000 
     25 C18       185.7030  210.7780  284.3740 C.3       1 TA1502      0.0000 
     26 C19       185.9650  209.4620  285.1710 C.3       1 TA1502      0.0000 
     27 C20       187.0900  211.4570  284.1950 C.2       1 TA1502      0.0000 
     28 O08       188.0920  210.9010  284.6260 O.2       1 TA1502      0.0000 
     29 C21       187.3250  212.8180  283.5310 C.3       1 TA1502      0.0000 
     30 O09       188.7450  213.1070  283.6020 O.3       1 TA1502      0.0000 
     31 C22       189.5100  213.1560  282.4880 C.2       1 TA1502      0.0000 
     32 O10       189.0790  212.9760  281.3820 O.2       1 TA1502      0.0000 
     33 C23       190.9280  213.4550  282.8250 C.3       1 TA1502      0.0000 
     34 C24       186.4880  213.8360  284.2330 C.2       1 TA1502      0.0000 
     35 C25       185.4990  214.4780  283.5550 C.2       1 TA1502      0.0000 
     36 C26       184.5860  215.3980  284.3590 C.3       1 TA1502      0.0000 
     37 O11       183.3260  215.7160  283.6560 O.3       1 TA1502      0.0000 
     38 C27       183.2600  216.8520  282.9400 C.2       1 TA1502      0.0000 
     39 O12       184.1640  217.6380  282.8170 O.2       1 TA1502      0.0000 
     40 C28       181.8850  217.0190  282.2890 C.3       1 TA1502      0.0000 
     41 O13       181.8050  218.2330  281.5740 O.3       1 TA1502      0.0000 
     42 C29       180.7830  217.0010  283.3620 C.3       1 TA1502      0.0000 
     43 N01       181.0740  218.0250  284.3590 N.am      1 TA1502      0.0000 
     44 C30       180.6720  217.9740  285.6310 C.2       1 TA1502      0.0000 
     45 O14       179.9670  217.0680  286.0750 O.2       1 TA1502      0.0000 
     46 C31       181.1630  219.0790  286.4960 C.ar      1 TA1502      0.0000 
     47 C32       180.8560  220.4030  286.2250 C.ar      1 TA1502      0.0000 
     48 C33       181.3460  221.4120  287.0350 C.ar      1 TA1502      0.0000 
     49 C34       182.1490  221.1080  288.1130 C.ar      1 TA1502      0.0000 
     50 C35       182.4620  219.7920  288.3890 C.ar      1 TA1502      0.0000 
     51 C36       181.9750  218.7790  287.5810 C.ar      1 TA1502      0.0000 
     52 C37       179.3790  217.1700  282.7950 C.ar      1 TA1502      0.0000 
     53 C38       178.6520  216.0460  282.4340 C.ar      1 TA1502      0.0000 
     54 C39       177.3730  216.1730  281.9150 C.ar      1 TA1502      0.0000 
     55 C40       176.8040  217.4160  281.7630 C.ar      1 TA1502      0.0000 
     56 C41       177.5130  218.5390  282.1210 C.ar      1 TA1502      0.0000 
     57 C42       178.7990  218.4200  282.6310 C.ar      1 TA1502      0.0000 
     58 C43       184.1550  214.7540  285.6960 C.3       1 TA1502      0.0000 
     59 C44       185.1390  214.2540  282.0970 C.3       1 TA1502      0.0000 
     60 C45       186.6530  214.1110  285.7720 C.3       1 TA1502      0.0000 
     61 C46       187.1030  215.5860  285.9440 C.3       1 TA1502      0.0000 
     62 C47       187.7240  213.3080  286.5530 C.3       1 TA1502      0.0000 
@<TRIPOS>BOND
     1    1    2 1    
     2    2    3 1    
     3    2   58 1    
     4    2   60 1    
     5    3    4 1    
     6    3   13 1    
     7    4    5 1    
     8    5    6 2    
     9    5    7 1    
    10    7    8 ar   
    11    7   12 ar   
    12    8    9 ar   
    13    9   10 ar   
    14   10   11 ar   
    15   11   12 ar   
    16   13   14 1    
    17   13   25 1    
    18   14   15 1    
    19   14   19 1    
    20   14   21 1    
    21   15   16 1    
    22   16   17 2    
    23   16   18 1    
    24   19   20 1    
    25   20   21 1    
    26   21   22 1    
    27   22   23 1    
    28   23   24 1    
    29   23   25 1    
    30   25   26 1    
    31   25   27 1    
    32   27   28 2    
    33   27   29 1    
    34   29   30 1    
    35   29   34 1    
    36   30   31 1    
    37   31   32 2    
    38   31   33 1    
    39   34   35 2    
    40   34   60 1    
    41   35   36 1    
    42   35   59 1    
    43   36   37 1    
    44   36   58 1    
    45   37   38 1    
    46   38   39 2    
    47   38   40 1    
    48   40   41 1    
    49   40   42 1    
    50   42   43 1    
    51   42   52 1    
    52   43   44 am   
    53   44   45 2    
    54   44   46 1    
    55   46   47 ar   
    56   46   51 ar   
    57   47   48 ar   
    58   48   49 ar   
    59   49   50 ar   
    60   50   51 ar   
    61   52   53 ar   
    62   52   57 ar   
    63   53   54 ar   
    64   54   55 ar   
    65   55   56 ar   
    66   56   57 ar   
    67   60   61 1    
    68   60   62 1    
@<TRIPOS>SUBSTRUCTURE
     1 TA1502      1 GROUP   
@<TRIPOS>SET

