#    Name: 6b0l_4_ANP_CAVITY_N1_6
#    Modification time : Fri May 22 19:31:13 2020

@<TRIPOS>MOLECULE
6b0l_4_ANP_CAVITY_N1_6
   47     0     5     0     0
SMALL
NO_CHARGES


@<TRIPOS>ATOM
      1 OG        119.5500  219.3200  265.3100 O.3       1 SER1        0.0000 
      2 OG        121.3600  218.4300  265.9600 O.3       1 SER1        0.0000 
      3 OG        120.5700  219.6400  266.3600 O.3       1 SER1        0.0000 
      4 OG        126.7700  217.8100  267.3100 O.3       1 SER1        0.0000 
      5 OG        125.9800  219.0200  267.7100 O.3       1 SER1        0.0000 
      6 OG        123.6000  222.6400  268.9200 O.3       1 SER1        0.0000 
      7 O         122.1200  219.2600  264.9600 O.2       2 ALA2        0.0000 
      8 O         123.9000  220.4100  265.0200 O.2       2 ALA2        0.0000 
      9 O         123.1400  219.5800  266.0100 O.2       2 ALA2        0.0000 
     10 O         125.1500  222.2600  267.5200 O.2       2 ALA2        0.0000 
     11 N         127.0000  219.3400  268.7600 N.am      2 ALA2        0.0000 
     12 N         126.2100  220.5500  269.1600 N.am      2 ALA2        0.0000 
     13 N         125.4200  221.7600  269.5600 N.am      2 ALA2        0.0000 
     14 N         126.2400  218.5100  269.7500 N.am      2 ALA2        0.0000 
     15 N         125.4500  219.7200  270.1500 N.am      2 ALA2        0.0000 
     16 N         124.6600  220.9300  270.5600 N.am      2 ALA2        0.0000 
     17 N         123.8700  222.1400  270.9600 N.am      2 ALA2        0.0000 
     18 N         123.1100  221.3100  271.9500 N.am      2 ALA2        0.0000 
     19 O         122.3100  222.5100  272.3600 O.2       2 ALA2        0.0000 
     20 OD1       121.3300  220.4700  265.3700 O.co2     3 ASP3        0.0000 
     21 OD1       124.1600  219.9100  267.0600 O.co2     3 ASP3        0.0000 
     22 OD1       123.3700  221.1100  267.4700 O.co2     3 ASP3        0.0000 
     23 OD1       124.3900  221.4400  268.5100 O.co2     3 ASP3        0.0000 
     24 OD1       123.6400  220.6100  269.5100 O.co2     3 ASP3        0.0000 
     25 CA        121.1000  218.9400  263.9200 C.3       4 GLY6        0.0000 
     26 CA        122.0900  221.3000  264.3700 C.3       4 GLY6        0.0000 
     27 CA        122.3800  218.7600  267.0100 C.3       4 GLY6        0.0000 
     28 CA        124.8900  222.7700  265.4800 C.3       4 GLY6        0.0000 
     29 CA        124.9200  220.7400  266.0700 C.3       4 GLY6        0.0000 
     30 CA        124.1300  221.9400  266.4700 C.3       4 GLY6        0.0000 
     31 CA        124.9600  218.7000  266.6600 C.3       4 GLY6        0.0000 
     32 CA        124.2000  217.8700  267.6500 C.3       4 GLY6        0.0000 
     33 CA        123.4100  219.0800  268.0600 C.3       4 GLY6        0.0000 
     34 CA        118.7500  220.2100  272.2400 C.3       4 GLY6        0.0000 
     35 CA        125.9500  221.0600  267.1200 C.3       4 GLY6        0.0000 
     36 CA        125.2200  218.1900  268.7000 C.3       4 GLY6        0.0000 
     37 CA        124.4300  219.4000  269.1100 C.3       4 GLY6        0.0000 
     38 CA        124.4600  217.3600  269.7000 C.3       4 GLY6        0.0000 
     39 CA        123.6700  218.5700  270.1000 C.3       4 GLY6        0.0000 
     40 CA        123.7000  216.5300  270.6900 C.3       4 GLY6        0.0000 
     41 CA        122.9100  217.7400  271.0900 C.3       4 GLY6        0.0000 
     42 CA        121.3300  220.1600  271.9000 C.3       4 GLY6        0.0000 
     43 CA        121.3600  218.1200  272.4900 C.3       4 GLY6        0.0000 
     44 CA        120.5700  219.3300  272.8900 C.3       4 GLY6        0.0000 
     45 CA        123.9000  220.1000  271.5500 C.3       4 GLY6        0.0000 
     46 DU        125.1900  220.2300  268.1100 H         5 CUB7        0.0000 
     47 DU        124.6900  218.8900  271.1500 H         5 CUB7        0.0000 
@<TRIPOS>BOND
@<TRIPOS>SUBSTRUCTURE
     1 SER1        1 GROUP   
     2 ALA2        7 GROUP   
     3 ASP3       20 GROUP   
     4 GLY6       25 GROUP   
     5 CUB7       46 GROUP   
@<TRIPOS>SET

