#    Name: 6b0l_3_GDP
#    Modification time : Fri May 22 19:31:05 2020

@<TRIPOS>MOLECULE
6b0l_3_GDP
   28    30     1     0     1
SMALL
NO_CHARGES


@<TRIPOS>ATOM
      1 PB        162.0620  217.0600  303.2220 P.3       1 GDP501      0.0000 
      2 O1B       161.5170  217.1150  301.8140 O.co2     1 GDP501      0.0000 
      3 O2B       163.0370  218.1590  303.5080 O.co2     1 GDP501      0.0000 
      4 O3B       160.8910  216.9810  304.1870 O.co2     1 GDP501      0.0000 
      5 O3A       162.7200  215.5940  303.3540 O.3       1 GDP501      0.0000 
      6 PA        163.9380  214.9880  302.4830 P.3       1 GDP501      0.0000 
      7 O1A       164.1330  215.7150  301.1830 O.co2     1 GDP501      0.0000 
      8 O2A       165.2280  215.0410  303.2720 O.co2     1 GDP501      0.0000 
      9 O5'       163.3100  213.5570  302.2930 O.3       1 GDP501      0.0000 
     10 C5'       163.9460  212.3250  302.6620 C.3       1 GDP501      0.0000 
     11 C4'       164.1450  211.5210  301.3770 C.3       1 GDP501      0.0000 
     12 O4'       165.0460  212.2300  300.5280 O.3       1 GDP501      0.0000 
     13 C3'       164.8220  210.2030  301.7010 C.3       1 GDP501      0.0000 
     14 O3'       164.3750  209.2050  300.7890 O.3       1 GDP501      0.0000 
     15 C2'       166.3050  210.4920  301.5780 C.3       1 GDP501      0.0000 
     16 O2'       167.0830  209.3380  301.2580 O.3       1 GDP501      0.0000 
     17 C1'       166.3020  211.4900  300.4470 C.3       1 GDP501      0.0000 
     18 N9        167.3160  212.5260  300.4560 N.pl3     1 GDP501      0.0000 
     19 C8        167.4910  213.5220  301.3550 C.2       1 GDP501      0.0000 
     20 N7        168.5030  214.3340  300.9400 N.2       1 GDP501      0.0000 
     21 C5        168.9200  213.8540  299.7490 C.2       1 GDP501      0.0000 
     22 C6        169.9330  214.2280  298.7600 C.2       1 GDP501      0.0000 
     23 O6        170.6340  215.2330  298.9660 O.2       1 GDP501      0.0000 
     24 N1        170.0660  213.4720  297.6710 N.am      1 GDP501      0.0000 
     25 C2        169.3180  212.3840  297.4380 C.2       1 GDP501      0.0000 
     26 N2        169.5130  211.6880  296.2920 N.pl3     1 GDP501      0.0000 
     27 N3        168.3560  211.9720  298.2910 N.2       1 GDP501      0.0000 
     28 C4        168.1390  212.6760  299.4380 C.2       1 GDP501      0.0000 
@<TRIPOS>BOND
     1    1    2 ar   
     2    1    3 ar   
     3    1    4 ar   
     4    1    5 1    
     5    5    6 1    
     6    6    7 ar   
     7    6    8 ar   
     8    6    9 1    
     9    9   10 1    
    10   10   11 1    
    11   11   12 1    
    12   11   13 1    
    13   12   17 1    
    14   13   14 1    
    15   13   15 1    
    16   15   16 1    
    17   15   17 1    
    18   17   18 1    
    19   18   19 1    
    20   18   28 1    
    21   19   20 2    
    22   20   21 1    
    23   21   22 1    
    24   21   28 2    
    25   22   23 2    
    26   22   24 am   
    27   24   25 1    
    28   25   26 1    
    29   25   27 2    
    30   27   28 1    
@<TRIPOS>SUBSTRUCTURE
     1 GDP501      1 GROUP   
@<TRIPOS>SET
ATOM$ORANGE STATIC     ATOMS   COLORGROUP SYSTEM 
20 10 10 11 11 13 13 15 15 17 17 19 19 21 21 22 22 25 \
25 28 28 

