#    Name: 6b0l_4_ANP
#    Modification time : Fri May 22 19:31:12 2020

@<TRIPOS>MOLECULE
6b0l_4_ANP
   31    33     1     0     1
SMALL
NO_CHARGES


@<TRIPOS>ATOM
      1 PG        122.8970  222.1400  265.7520 P.3       1 ANP702      0.0000 
      2 O1G       123.0630  223.3130  264.8230 O.co2     1 ANP702      0.0000 
      3 O2G       122.2660  222.5200  267.0820 O.co2     1 ANP702      0.0000 
      4 O3G       124.2690  221.4840  266.0280 O.co2     1 ANP702      0.0000 
      5 PB        121.1050  219.8130  265.5780 P.3       1 ANP702      0.0000 
      6 O1B       121.7560  218.4870  265.3260 O.co2     1 ANP702      0.0000 
      7 O2B       120.6270  220.0720  267.0000 O.co2     1 ANP702      0.0000 
      8 N3B       121.9540  221.0850  264.9400 N.3       1 ANP702      0.0000 
      9 PA        118.2520  219.8910  265.1190 P.3       1 ANP702      0.0000 
     10 O1A       117.9910  221.3290  265.4330 O.co2     1 ANP702      0.0000 
     11 O2A       117.9160  218.7690  266.0750 O.co2     1 ANP702      0.0000 
     12 O3A       119.7990  219.7820  264.6420 O.3       1 ANP702      0.0000 
     13 O5'       117.4970  219.5060  263.7530 O.3       1 ANP702      0.0000 
     14 C5'       117.5860  220.3180  262.5750 C.3       1 ANP702      0.0000 
     15 C4'       116.2680  220.2520  261.8020 C.3       1 ANP702      0.0000 
     16 O4'       116.0750  218.9080  261.3360 O.3       1 ANP702      0.0000 
     17 C3'       115.1010  220.6350  262.6900 C.3       1 ANP702      0.0000 
     18 O3'       114.1750  221.4790  261.9660 O.3       1 ANP702      0.0000 
     19 C2'       114.5160  219.2950  263.0600 C.3       1 ANP702      0.0000 
     20 O2'       113.1210  219.3490  263.4370 O.3       1 ANP702      0.0000 
     21 C1'       114.8150  218.4440  261.8330 C.3       1 ANP702      0.0000 
     22 N9        115.0070  217.0410  262.2140 N.pl3     1 ANP702      0.0000 
     23 C8        116.0690  216.5800  262.9210 C.2       1 ANP702      0.0000 
     24 N7        115.9520  215.2630  263.1210 N.2       1 ANP702      0.0000 
     25 C5        114.7930  214.8590  262.5250 C.ar      1 ANP702      0.0000 
     26 C6        114.0670  213.5900  262.3560 C.ar      1 ANP702      0.0000 
     27 N6        114.5350  212.4380  262.8360 N.pl3     1 ANP702      0.0000 
     28 N1        112.8950  213.6300  261.6690 N.ar      1 ANP702      0.0000 
     29 C2        112.3850  214.7540  261.1490 C.ar      1 ANP702      0.0000 
     30 N3        112.9950  215.9600  261.2650 N.ar      1 ANP702      0.0000 
     31 C4        114.2000  216.0320  261.9130 C.ar      1 ANP702      0.0000 
@<TRIPOS>BOND
     1    1    2 ar   
     2    1    3 ar   
     3    1    4 ar   
     4    1    8 1    
     5    5    6 ar   
     6    5    7 ar   
     7    5    8 1    
     8    5   12 1    
     9    9   10 ar   
    10    9   11 ar   
    11    9   12 1    
    12    9   13 1    
    13   13   14 1    
    14   14   15 1    
    15   15   16 1    
    16   15   17 1    
    17   16   21 1    
    18   17   18 1    
    19   17   19 1    
    20   19   20 1    
    21   19   21 1    
    22   21   22 1    
    23   22   23 1    
    24   22   31 1    
    25   23   24 2    
    26   24   25 1    
    27   25   26 ar   
    28   25   31 ar   
    29   26   27 1    
    30   26   28 ar   
    31   28   29 ar   
    32   29   30 ar   
    33   30   31 ar   
@<TRIPOS>SUBSTRUCTURE
     1 ANP702      1 GROUP   
@<TRIPOS>SET
ATOM$ORANGE STATIC     ATOMS   COLORGROUP SYSTEM 
20 14 14 15 15 17 17 19 19 21 21 23 23 25 25 26 26 29 \
29 31 31 

