#    Name: 6b0l_2_GTP
#    Modification time : Fri May 22 19:30:59 2020

@<TRIPOS>MOLECULE
6b0l_2_GTP
   32    34     1     0     1
SMALL
NO_CHARGES


@<TRIPOS>ATOM
      1 PG        160.1060  218.3650  263.5480 P.3       1 GTP501      0.0000 
      2 O1G       159.3740  219.6450  263.6420 O.co2     1 GTP501      0.0000 
      3 O2G       161.5060  218.4190  264.0020 O.co2     1 GTP501      0.0000 
      4 O3G       159.3720  217.2160  264.0260 O.co2     1 GTP501      0.0000 
      5 O3B       160.1350  218.0130  261.9760 O.3       1 GTP501      0.0000 
      6 PB        161.3880  217.9800  260.9730 P.3       1 GTP501      0.0000 
      7 O1B       160.8140  218.0200  259.6120 O.co2     1 GTP501      0.0000 
      8 O2B       162.3410  219.0370  261.3330 O.co2     1 GTP501      0.0000 
      9 O3A       162.0080  216.5380  261.2190 O.3       1 GTP501      0.0000 
     10 PA        163.2040  215.8520  260.4110 P.3       1 GTP501      0.0000 
     11 O1A       163.2260  216.4450  259.0580 O.co2     1 GTP501      0.0000 
     12 O2A       164.4250  215.8240  261.2300 O.co2     1 GTP501      0.0000 
     13 O5'       162.6060  214.3890  260.3170 O.3       1 GTP501      0.0000 
     14 C5'       163.2840  213.2610  260.8340 C.3       1 GTP501      0.0000 
     15 C4'       163.5490  212.2610  259.7220 C.3       1 GTP501      0.0000 
     16 O4'       164.2960  212.8950  258.7050 O.3       1 GTP501      0.0000 
     17 C3'       164.3730  211.0750  260.1830 C.3       1 GTP501      0.0000 
     18 O3'       163.9540  209.9340  259.4380 O.3       1 GTP501      0.0000 
     19 C2'       165.7870  211.4840  259.8520 C.3       1 GTP501      0.0000 
     20 O2'       166.7090  210.4300  259.6190 O.3       1 GTP501      0.0000 
     21 C1'       165.5740  212.2990  258.5980 C.3       1 GTP501      0.0000 
     22 N9        166.5320  213.3890  258.4180 N.pl3     1 GTP501      0.0000 
     23 C8        166.6520  214.4690  259.1830 C.2       1 GTP501      0.0000 
     24 N7        167.6070  215.2810  258.7060 N.2       1 GTP501      0.0000 
     25 C5        168.1000  214.7110  257.6090 C.2       1 GTP501      0.0000 
     26 C6        169.1340  215.0350  256.6190 C.2       1 GTP501      0.0000 
     27 O6        169.7810  216.0740  256.7140 O.2       1 GTP501      0.0000 
     28 N1        169.3390  214.1730  255.6310 N.am      1 GTP501      0.0000 
     29 C2        168.6400  213.0400  255.5180 C.2       1 GTP501      0.0000 
     30 N2        168.8870  212.2070  254.4940 N.pl3     1 GTP501      0.0000 
     31 N3        167.6820  212.6820  256.3830 N.2       1 GTP501      0.0000 
     32 C4        167.3810  213.4660  257.4230 C.2       1 GTP501      0.0000 
@<TRIPOS>BOND
     1    1    2 ar   
     2    1    3 ar   
     3    1    4 ar   
     4    1    5 1    
     5    5    6 1    
     6    6    7 ar   
     7    6    8 ar   
     8    6    9 1    
     9    9   10 1    
    10   10   11 ar   
    11   10   12 ar   
    12   10   13 1    
    13   13   14 1    
    14   14   15 1    
    15   15   16 1    
    16   15   17 1    
    17   16   21 1    
    18   17   18 1    
    19   17   19 1    
    20   19   20 1    
    21   19   21 1    
    22   21   22 1    
    23   22   23 1    
    24   22   32 1    
    25   23   24 2    
    26   24   25 1    
    27   25   26 1    
    28   25   32 2    
    29   26   27 2    
    30   26   28 am   
    31   28   29 1    
    32   29   30 1    
    33   29   31 2    
    34   31   32 1    
@<TRIPOS>SUBSTRUCTURE
     1 GTP501      1 GROUP   
@<TRIPOS>SET
ATOM$ORANGE STATIC     ATOMS   COLORGROUP SYSTEM 
20 14 14 15 15 17 17 19 19 21 21 23 23 25 25 26 26 29 \
29 32 32 

