#    Name: 6gxw_3_DMF
#    Modification time : Fri May 22 19:31:04 2020

@<TRIPOS>MOLECULE
6gxw_3_DMF
    5     4     1     0     0
SMALL
NO_CHARGES


@<TRIPOS>ATOM
      1 C1         53.4250    2.3440   64.2370 C.3       1 DMF801      0.0000 
      2 C2         54.3570    2.6140   66.5780 C.3       1 DMF801      0.0000 
      3 C          54.7660    4.2520   64.8220 C.2       1 DMF801      0.0000 
      4 O          55.1950    5.0440   65.6570 O.2       1 DMF801      0.0000 
      5 N          54.2040    3.1130   65.2030 N.am      1 DMF801      0.0000 
@<TRIPOS>BOND
     1    1    5 1    
     2    2    5 1    
     3    3    4 2    
     4    3    5 am   
@<TRIPOS>SUBSTRUCTURE
     1 DMF801      1 GROUP   
@<TRIPOS>SET

