#    Name: 6gxw_3_DMF_CAVITY_N1_12
#    Modification time : Fri May 22 19:31:05 2020

@<TRIPOS>MOLECULE
6gxw_3_DMF_CAVITY_N1_12
   83     0     5     0     0
SMALL
NO_CHARGES


@<TRIPOS>ATOM
      1 N          47.4800    0.5800   68.3700 N.am      1 ALA2        0.0000 
      2 N          48.1700    1.2100   69.5500 N.am      1 ALA2        0.0000 
      3 N          49.4900    0.7500   69.0300 N.am      1 ALA2        0.0000 
      4 N          50.1700    1.3800   70.2100 N.am      1 ALA2        0.0000 
      5 N          52.1800    1.5400   70.8700 N.am      1 ALA2        0.0000 
      6 N          51.0000    3.2900   70.6100 N.am      1 ALA2        0.0000 
      7 N          54.0400    0.4300   72.3000 N.am      1 ALA2        0.0000 
      8 N          52.8600    2.1800   72.0500 N.am      1 ALA2        0.0000 
      9 N          54.1900    1.7100   71.5300 N.am      1 ALA2        0.0000 
     10 N          57.0000    2.0500   69.7200 N.am      1 ALA2        0.0000 
     11 N          57.1500    3.3300   68.9500 N.am      1 ALA2        0.0000 
     12 N          58.4800    2.8600   68.4400 N.am      1 ALA2        0.0000 
     13 N          57.3000    4.6100   68.1800 N.am      1 ALA2        0.0000 
     14 N          59.9500    3.6700   67.1500 N.am      1 ALA2        0.0000 
     15 N          60.1000    4.9500   66.3700 N.am      1 ALA2        0.0000 
     16 N          56.3500    3.1500   71.4200 N.am      1 ALA2        0.0000 
     17 N          56.5000    4.4300   70.6500 N.am      1 ALA2        0.0000 
     18 OD1        46.5100   -2.6100   68.7300 O.co2     2 ASP3        0.0000 
     19 OD1        46.6600   -1.3300   67.9600 O.co2     2 ASP3        0.0000 
     20 OD1        47.3400   -0.7000   69.1400 O.co2     2 ASP3        0.0000 
     21 OD1        50.9700    1.5600   67.7400 O.co2     2 ASP3        0.0000 
     22 OD1        53.7800    1.9000   65.9400 O.co2     2 ASP3        0.0000 
     23 OD1        53.9300    3.1800   65.1600 O.co2     2 ASP3        0.0000 
     24 OD1        51.6500    2.1900   68.9200 O.co2     2 ASP3        0.0000 
     25 OD1        51.8000    3.4700   68.1500 O.co2     2 ASP3        0.0000 
     26 OD1        53.1300    3.0000   67.6300 O.co2     2 ASP3        0.0000 
     27 OD1        54.6100    3.8100   66.3400 O.co2     2 ASP3        0.0000 
     28 OD1        52.4800    4.1000   69.3200 O.co2     2 ASP3        0.0000 
     29 OD1        53.8100    3.6300   68.8100 O.co2     2 ASP3        0.0000 
     30 OD1        55.1400    3.1600   68.2900 O.co2     2 ASP3        0.0000 
     31 OD1        53.9600    4.9100   68.0300 O.co2     2 ASP3        0.0000 
     32 OD1        55.2900    4.4400   67.5200 O.co2     2 ASP3        0.0000 
     33 OD1        56.6200    3.9700   67.0000 O.co2     2 ASP3        0.0000 
     34 OD1        55.4400    5.7200   66.7500 O.co2     2 ASP3        0.0000 
     35 OD1        54.4900    4.2600   69.9800 O.co2     2 ASP3        0.0000 
     36 OD1        55.8200    3.8000   69.4700 O.co2     2 ASP3        0.0000 
     37 NZ         46.8000   -0.0500   67.1900 N.4       3 LYS4        0.0000 
     38 NZ         48.1300   -0.5200   66.6700 N.4       3 LYS4        0.0000 
     39 NZ         49.9900   -1.6300   68.1100 N.4       3 LYS4        0.0000 
     40 NZ         48.8100    0.1100   67.8500 N.4       3 LYS4        0.0000 
     41 NZ         50.1400   -0.3500   67.3300 N.4       3 LYS4        0.0000 
     42 NZ         47.6300    1.8600   67.6000 N.4       3 LYS4        0.0000 
     43 NZ         48.9600    1.3900   67.0800 N.4       3 LYS4        0.0000 
     44 NZ         50.2900    0.9200   66.5600 N.4       3 LYS4        0.0000 
     45 NZ         50.8200    0.2800   68.5100 N.4       3 LYS4        0.0000 
     46 NZ         52.3000    1.0900   67.2200 N.4       3 LYS4        0.0000 
     47 NZ         55.2600    2.7100   64.6500 N.4       3 LYS4        0.0000 
     48 NZ         51.5000    0.9100   69.6900 N.4       3 LYS4        0.0000 
     49 NZ         52.9800    1.7200   68.4000 N.4       3 LYS4        0.0000 
     50 NZ         54.4600    2.5300   67.1100 N.4       3 LYS4        0.0000 
     51 NZ         54.7600    5.0900   65.5700 N.4       3 LYS4        0.0000 
     52 NZ         56.0800    4.6200   65.0500 N.4       3 LYS4        0.0000 
     53 NZ         57.4100    4.1500   64.5400 N.4       3 LYS4        0.0000 
     54 NZ         53.3600   -0.2000   71.1200 N.4       3 LYS4        0.0000 
     55 NZ         53.5100    1.0800   70.3500 N.4       3 LYS4        0.0000 
     56 NZ         56.1700    0.1400   69.3200 N.4       3 LYS4        0.0000 
     57 NZ         53.6600    2.3500   69.5800 N.4       3 LYS4        0.0000 
     58 NZ         54.9900    1.8900   69.0600 N.4       3 LYS4        0.0000 
     59 NZ         56.3200    1.4200   68.5500 N.4       3 LYS4        0.0000 
     60 NZ         56.7600    5.2500   66.2300 N.4       3 LYS4        0.0000 
     61 NZ         58.0900    4.7800   65.7100 N.4       3 LYS4        0.0000 
     62 NZ         59.4200    4.3200   65.2000 N.4       3 LYS4        0.0000 
     63 NZ         55.5200    1.2400   71.0100 N.4       3 LYS4        0.0000 
     64 CA         47.8400   -3.0700   68.2200 C.3       4 GLY6        0.0000 
     65 CA         47.9800   -1.8000   67.4500 C.3       4 GLY6        0.0000 
     66 CA         48.6600   -1.1600   68.6200 C.3       4 GLY6        0.0000 
     67 CA         46.1600    1.0500   68.8800 C.3       4 GLY6        0.0000 
     68 CA         50.6700   -1.0000   69.2800 C.3       4 GLY6        0.0000 
     69 CA         55.7900    2.0600   66.6000 C.3       4 GLY6        0.0000 
     70 CA         55.9400    3.3400   65.8200 C.3       4 GLY6        0.0000 
     71 CA         52.0300    0.2700   71.6400 C.3       4 GLY6        0.0000 
     72 CA         50.8500    2.0100   71.3800 C.3       4 GLY6        0.0000 
     73 CA         57.6500    0.9500   68.0300 C.3       4 GLY6        0.0000 
     74 CA         56.4700    2.7000   67.7700 C.3       4 GLY6        0.0000 
     75 CA         57.8000    2.2300   67.2600 C.3       4 GLY6        0.0000 
     76 CA         57.9400    3.5100   66.4900 C.3       4 GLY6        0.0000 
     77 CA         53.8900   -0.8500   73.0700 C.3       4 GLY6        0.0000 
     78 CA         61.2800    3.2000   66.6300 C.3       4 GLY6        0.0000 
     79 DU         45.8300   -3.2400   67.5600 H         5 CUB7        0.0000 
     80 DU         45.9800   -1.9600   66.7800 H         5 CUB7        0.0000 
     81 DU         52.3300    2.8200   70.1000 H         5 CUB7        0.0000 
     82 DU         54.3400    2.9900   70.7600 H         5 CUB7        0.0000 
     83 DU         55.6700    2.5200   70.2400 H         5 CUB7        0.0000 
@<TRIPOS>BOND
@<TRIPOS>SUBSTRUCTURE
     1 ALA2        1 GROUP   
     2 ASP3       18 GROUP   
     3 LYS4       37 GROUP   
     4 GLY6       64 GROUP   
     5 CUB7       79 GROUP   
@<TRIPOS>SET

