#    Name: 6gxw_3_DMF_CAVITY_N1_4
#    Modification time : Fri May 22 19:31:05 2020

@<TRIPOS>MOLECULE
6gxw_3_DMF_CAVITY_N1_4
   37     0     5     0     0
SMALL
NO_CHARGES


@<TRIPOS>ATOM
      1 N          57.1500    3.3300   68.9500 N.am      1 ALA2        0.0000 
      2 N          57.3000    4.6100   68.1800 N.am      1 ALA2        0.0000 
      3 OD1        50.9700    1.5600   67.7400 O.co2     2 ASP3        0.0000 
      4 OD1        53.7800    1.9000   65.9400 O.co2     2 ASP3        0.0000 
      5 OD1        53.9300    3.1800   65.1600 O.co2     2 ASP3        0.0000 
      6 OD1        51.6500    2.1900   68.9200 O.co2     2 ASP3        0.0000 
      7 OD1        51.8000    3.4700   68.1500 O.co2     2 ASP3        0.0000 
      8 OD1        53.1300    3.0000   67.6300 O.co2     2 ASP3        0.0000 
      9 OD1        54.6100    3.8100   66.3400 O.co2     2 ASP3        0.0000 
     10 OD1        52.4800    4.1000   69.3200 O.co2     2 ASP3        0.0000 
     11 OD1        53.8100    3.6300   68.8100 O.co2     2 ASP3        0.0000 
     12 OD1        55.1400    3.1600   68.2900 O.co2     2 ASP3        0.0000 
     13 OD1        53.9600    4.9100   68.0300 O.co2     2 ASP3        0.0000 
     14 OD1        55.2900    4.4400   67.5200 O.co2     2 ASP3        0.0000 
     15 OD1        56.6200    3.9700   67.0000 O.co2     2 ASP3        0.0000 
     16 OD1        55.4400    5.7200   66.7500 O.co2     2 ASP3        0.0000 
     17 OD1        54.4900    4.2600   69.9800 O.co2     2 ASP3        0.0000 
     18 OD1        55.8200    3.8000   69.4700 O.co2     2 ASP3        0.0000 
     19 NZ         52.3000    1.0900   67.2200 N.4       3 LYS4        0.0000 
     20 NZ         55.2600    2.7100   64.6500 N.4       3 LYS4        0.0000 
     21 NZ         52.9800    1.7200   68.4000 N.4       3 LYS4        0.0000 
     22 NZ         54.4600    2.5300   67.1100 N.4       3 LYS4        0.0000 
     23 NZ         54.7600    5.0900   65.5700 N.4       3 LYS4        0.0000 
     24 NZ         56.0800    4.6200   65.0500 N.4       3 LYS4        0.0000 
     25 NZ         57.4100    4.1500   64.5400 N.4       3 LYS4        0.0000 
     26 NZ         53.6600    2.3500   69.5800 N.4       3 LYS4        0.0000 
     27 NZ         54.9900    1.8900   69.0600 N.4       3 LYS4        0.0000 
     28 NZ         56.3200    1.4200   68.5500 N.4       3 LYS4        0.0000 
     29 NZ         56.7600    5.2500   66.2300 N.4       3 LYS4        0.0000 
     30 NZ         58.0900    4.7800   65.7100 N.4       3 LYS4        0.0000 
     31 CA         55.7900    2.0600   66.6000 C.3       4 GLY6        0.0000 
     32 CA         55.9400    3.3400   65.8200 C.3       4 GLY6        0.0000 
     33 CA         57.6500    0.9500   68.0300 C.3       4 GLY6        0.0000 
     34 CA         56.4700    2.7000   67.7700 C.3       4 GLY6        0.0000 
     35 CA         57.8000    2.2300   67.2600 C.3       4 GLY6        0.0000 
     36 CA         57.9400    3.5100   66.4900 C.3       4 GLY6        0.0000 
     37 DU         55.6700    2.5200   70.2400 H         5 CUB7        0.0000 
@<TRIPOS>BOND
@<TRIPOS>SUBSTRUCTURE
     1 ALA2        1 GROUP   
     2 ASP3        3 GROUP   
     3 LYS4       19 GROUP   
     4 GLY6       31 GROUP   
     5 CUB7       37 GROUP   
@<TRIPOS>SET

