#    Name: 6quz_3_AGS
#    Modification time : Fri May 22 19:34:33 2020

@<TRIPOS>MOLECULE
6quz_3_AGS
   31    33     1     0     0
SMALL
NO_CHARGES


@<TRIPOS>ATOM
      1 PG        -25.7430   30.5710  106.0500 P.3       1 AGS600      0.0000 
      2 S1G       -24.7830   29.9240  107.5570 S.2       1 AGS600      0.0000 
      3 O2G       -24.9010   31.4080  105.0210 O.3       1 AGS600      0.0000 
      4 O3G       -26.3700   29.5640  105.0500 O.3       1 AGS600      0.0000 
      5 PB        -27.0050   33.1040  106.7300 P.3       1 AGS600      0.0000 
      6 O1B       -27.4140   33.4600  108.1100 O.co2     1 AGS600      0.0000 
      7 O2B       -25.6890   33.7130  106.2540 O.co2     1 AGS600      0.0000 
      8 O3B       -26.9000   31.5270  106.5340 O.3       1 AGS600      0.0000 
      9 PA        -28.2490   34.6290  104.5540 P.3       1 AGS600      0.0000 
     10 O1A       -27.9130   35.9470  105.1230 O.co2     1 AGS600      0.0000 
     11 O2A       -27.3680   34.2260  103.3730 O.co2     1 AGS600      0.0000 
     12 O3A       -28.1140   33.4840  105.6530 O.3       1 AGS600      0.0000 
     13 O5'       -29.7650   34.5740  104.0400 O.3       1 AGS600      0.0000 
     14 C5'       -30.9010   34.6340  104.9290 C.3       1 AGS600      0.0000 
     15 C4'       -32.1760   34.3920  104.1550 C.3       1 AGS600      0.0000 
     16 O4'       -32.2190   35.2460  102.9900 O.3       1 AGS600      0.0000 
     17 C3'       -32.4310   32.9640  103.6650 C.3       1 AGS600      0.0000 
     18 O3'       -33.7730   32.5610  103.9140 O.3       1 AGS600      0.0000 
     19 C2'       -32.0860   33.0350  102.1720 C.3       1 AGS600      0.0000 
     20 O2'       -32.8450   32.1190  101.3920 O.3       1 AGS600      0.0000 
     21 C1'       -32.4590   34.4780  101.8270 C.3       1 AGS600      0.0000 
     22 N9        -31.6940   35.0660  100.7290 N.pl3     1 AGS600      0.0000 
     23 C8        -30.3310   35.1870  100.6370 C.2       1 AGS600      0.0000 
     24 N7        -29.9200   35.8200   99.5640 N.2       1 AGS600      0.0000 
     25 C5        -31.0950   36.1380   98.9000 C.ar      1 AGS600      0.0000 
     26 C6        -31.3520   36.8320   97.6990 C.ar      1 AGS600      0.0000 
     27 N6        -30.3960   37.3480   96.9190 N.pl3     1 AGS600      0.0000 
     28 N1        -32.6430   36.9830   97.3220 N.ar      1 AGS600      0.0000 
     29 C2        -33.6060   36.4700   98.0970 C.ar      1 AGS600      0.0000 
     30 N3        -33.4840   35.8020   99.2500 N.ar      1 AGS600      0.0000 
     31 C4        -32.1970   35.6720   99.6020 C.ar      1 AGS600      0.0000 
@<TRIPOS>BOND
     1    1    2 2    
     2    1    3 1    
     3    1    4 1    
     4    1    8 1    
     5    5    6 ar   
     6    5    7 ar   
     7    5    8 1    
     8    5   12 1    
     9    9   10 ar   
    10    9   11 ar   
    11    9   12 1    
    12    9   13 1    
    13   13   14 1    
    14   14   15 1    
    15   15   16 1    
    16   15   17 1    
    17   16   21 1    
    18   17   18 1    
    19   17   19 1    
    20   19   20 1    
    21   19   21 1    
    22   21   22 1    
    23   22   23 1    
    24   22   31 1    
    25   23   24 2    
    26   24   25 1    
    27   25   26 ar   
    28   25   31 ar   
    29   26   27 1    
    30   26   28 ar   
    31   28   29 ar   
    32   29   30 ar   
    33   30   31 ar   
@<TRIPOS>SUBSTRUCTURE
     1 AGS600      1 GROUP   
@<TRIPOS>SET

