#    Name: 6quz_4_AGS
#    Modification time : Fri May 22 19:34:48 2020

@<TRIPOS>MOLECULE
6quz_4_AGS
   31    33     1     0     0
SMALL
NO_CHARGES


@<TRIPOS>ATOM
      1 PG         -8.9420   21.7090  100.4260 P.3       1 AGS600      0.0000 
      2 S1G        -9.5500   20.9770  102.0720 S.2       1 AGS600      0.0000 
      3 O2G        -8.3400   23.1500  100.5400 O.3       1 AGS600      0.0000 
      4 O3G        -9.9030   21.9510   99.2100 O.3       1 AGS600      0.0000 
      5 PB         -7.7570   19.2760   99.4060 P.3       1 AGS600      0.0000 
      6 O1B        -7.1890   18.3860  100.4430 O.co2     1 AGS600      0.0000 
      7 O2B        -9.1550   18.9300   98.9020 O.co2     1 AGS600      0.0000 
      8 O3B        -7.7930   20.7930   99.8840 O.3       1 AGS600      0.0000 
      9 PA         -7.1140   19.3870   96.5740 P.3       1 AGS600      0.0000 
     10 O1A        -7.3900   18.0190   96.1030 O.co2     1 AGS600      0.0000 
     11 O2A        -8.2720   20.3570   96.3350 O.co2     1 AGS600      0.0000 
     12 O3A        -6.8100   19.3800   98.1340 O.3       1 AGS600      0.0000 
     13 O5'        -5.7840   20.0190   95.9450 O.3       1 AGS600      0.0000 
     14 C5'        -4.4560   19.5530   96.2660 C.3       1 AGS600      0.0000 
     15 C4'        -3.4460   20.2330   95.3730 C.3       1 AGS600      0.0000 
     16 O4'        -3.8660   20.1510   93.9930 O.3       1 AGS600      0.0000 
     17 C3'        -3.1480   21.7070   95.6590 C.3       1 AGS600      0.0000 
     18 O3'        -1.7480   21.9640   95.6450 O.3       1 AGS600      0.0000 
     19 C2'        -3.8980   22.4460   94.5440 C.3       1 AGS600      0.0000 
     20 O2'        -3.2510   23.6590   94.1720 O.3       1 AGS600      0.0000 
     21 C1'        -3.8410   21.4350   93.3980 C.3       1 AGS600      0.0000 
     22 N9         -4.9510   21.5370   92.4510 N.pl3     1 AGS600      0.0000 
     23 C8         -6.2690   21.2350   92.6760 C.2       1 AGS600      0.0000 
     24 N7         -7.0500   21.4360   91.6420 N.2       1 AGS600      0.0000 
     25 C5         -6.1850   21.9020   90.6630 C.ar      1 AGS600      0.0000 
     26 C6         -6.3880   22.3000   89.3250 C.ar      1 AGS600      0.0000 
     27 N6         -7.5810   22.2930   88.7180 N.pl3     1 AGS600      0.0000 
     28 N1         -5.3100   22.7230   88.6240 N.ar      1 AGS600      0.0000 
     29 C2         -4.1150   22.7450   89.2290 C.ar      1 AGS600      0.0000 
     30 N3         -3.8030   22.3850   90.4790 N.ar      1 AGS600      0.0000 
     31 C4         -4.8870   21.9720   91.1490 C.ar      1 AGS600      0.0000 
@<TRIPOS>BOND
     1    1    2 2    
     2    1    3 1    
     3    1    4 1    
     4    1    8 1    
     5    5    6 ar   
     6    5    7 ar   
     7    5    8 1    
     8    5   12 1    
     9    9   10 ar   
    10    9   11 ar   
    11    9   12 1    
    12    9   13 1    
    13   13   14 1    
    14   14   15 1    
    15   15   16 1    
    16   15   17 1    
    17   16   21 1    
    18   17   18 1    
    19   17   19 1    
    20   19   20 1    
    21   19   21 1    
    22   21   22 1    
    23   22   23 1    
    24   22   31 1    
    25   23   24 2    
    26   24   25 1    
    27   25   26 ar   
    28   25   31 ar   
    29   26   27 1    
    30   26   28 ar   
    31   28   29 ar   
    32   29   30 ar   
    33   30   31 ar   
@<TRIPOS>SUBSTRUCTURE
     1 AGS600      1 GROUP   
@<TRIPOS>SET

