#    Name: 6quz_1_AGS
#    Modification time : Fri May 22 19:34:05 2020

@<TRIPOS>MOLECULE
6quz_1_AGS
   31    33     1     0     0
SMALL
NO_CHARGES


@<TRIPOS>ATOM
      1 PG         47.1730  -11.1970   83.9090 P.3       1 AGS600      0.0000 
      2 S1G        48.1500  -11.6890   85.4640 S.2       1 AGS600      0.0000 
      3 O2G        47.8710  -10.1160   83.0050 O.3       1 AGS600      0.0000 
      4 O3G        46.8970  -12.2540   82.8170 O.3       1 AGS600      0.0000 
      5 PB         45.2130   -9.1450   84.6940 P.3       1 AGS600      0.0000 
      6 O1B        44.7220   -9.0820   86.0860 O.co2     1 AGS600      0.0000 
      7 O2B        46.2950   -8.1280   84.3250 O.co2     1 AGS600      0.0000 
      8 O3B        45.7600  -10.5950   84.3210 O.3       1 AGS600      0.0000 
      9 PA         43.6330   -7.7940   82.6530 P.3       1 AGS600      0.0000 
     10 O1A        43.7490   -6.5050   83.3520 O.co2     1 AGS600      0.0000 
     11 O2A        44.5410   -7.9100   81.4250 O.co2     1 AGS600      0.0000 
     12 O3A        44.0290   -8.9720   83.6470 O.3       1 AGS600      0.0000 
     13 O5'        42.1300   -8.0720   82.1660 O.3       1 AGS600      0.0000 
     14 C5'        41.0630   -8.5020   83.0380 C.3       1 AGS600      0.0000 
     15 C4'        39.9600   -9.1350   82.2210 C.3       1 AGS600      0.0000 
     16 O4'        39.6380   -8.3020   81.0860 O.3       1 AGS600      0.0000 
     17 C3'        40.2210  -10.5420   81.6790 C.3       1 AGS600      0.0000 
     18 O3'        39.1090  -11.4020   81.9030 O.3       1 AGS600      0.0000 
     19 C2'        40.5240  -10.3070   80.1930 C.3       1 AGS600      0.0000 
     20 O2'        40.0480  -11.3600   79.3650 O.3       1 AGS600      0.0000 
     21 C1'        39.7220   -9.0420   79.8830 C.3       1 AGS600      0.0000 
     22 N9         40.3200   -8.1870   78.8580 N.pl3     1 AGS600      0.0000 
     23 C8         41.5500   -7.5810   78.8970 C.2       1 AGS600      0.0000 
     24 N7         41.8070   -6.8220   77.8600 N.2       1 AGS600      0.0000 
     25 C5         40.6650   -6.9340   77.0800 C.ar      1 AGS600      0.0000 
     26 C6         40.2880   -6.3480   75.8530 C.ar      1 AGS600      0.0000 
     27 N6         41.0580   -5.4930   75.1690 N.pl3     1 AGS600      0.0000 
     28 N1         39.0730   -6.6670   75.3500 N.ar      1 AGS600      0.0000 
     29 C2         38.2940   -7.5150   76.0330 C.ar      1 AGS600      0.0000 
     30 N3         38.5370   -8.1180   77.2020 N.ar      1 AGS600      0.0000 
     31 C4         39.7450   -7.7830   77.6780 C.ar      1 AGS600      0.0000 
@<TRIPOS>BOND
     1    1    2 2    
     2    1    3 1    
     3    1    4 1    
     4    1    8 1    
     5    5    6 ar   
     6    5    7 ar   
     7    5    8 1    
     8    5   12 1    
     9    9   10 ar   
    10    9   11 ar   
    11    9   12 1    
    12    9   13 1    
    13   13   14 1    
    14   14   15 1    
    15   15   16 1    
    16   15   17 1    
    17   16   21 1    
    18   17   18 1    
    19   17   19 1    
    20   19   20 1    
    21   19   21 1    
    22   21   22 1    
    23   22   23 1    
    24   22   31 1    
    25   23   24 2    
    26   24   25 1    
    27   25   26 ar   
    28   25   31 ar   
    29   26   27 1    
    30   26   28 ar   
    31   28   29 ar   
    32   29   30 ar   
    33   30   31 ar   
@<TRIPOS>SUBSTRUCTURE
     1 AGS600      1 GROUP   
@<TRIPOS>SET

