#    Name: 6quz_2_AGS
#    Modification time : Fri May 22 19:34:19 2020

@<TRIPOS>MOLECULE
6quz_2_AGS
   31    33     1     0     0
SMALL
NO_CHARGES


@<TRIPOS>ATOM
      1 PG         65.8530  -14.3540   77.9530 P.3       1 AGS600      0.0000 
      2 S1G        65.2360  -15.2770   79.4930 S.2       1 AGS600      0.0000 
      3 O2G        66.0570  -12.8200   78.1620 O.3       1 AGS600      0.0000 
      4 O3G        64.9850  -14.3330   76.6560 O.3       1 AGS600      0.0000 
      5 PB         67.7440  -16.3250   76.9460 P.3       1 AGS600      0.0000 
      6 O1B        68.5720  -17.0730   77.9130 O.co2     1 AGS600      0.0000 
      7 O2B        66.5010  -17.0440   76.4220 O.co2     1 AGS600      0.0000 
      8 O3B        67.2630  -14.9280   77.5400 O.3       1 AGS600      0.0000 
      9 PA         68.2820  -15.8580   74.1260 P.3       1 AGS600      0.0000 
     10 O1A        68.4680  -17.1980   73.5490 O.co2     1 AGS600      0.0000 
     11 O2A        66.8690  -15.2990   73.9470 O.co2     1 AGS600      0.0000 
     12 O3A        68.5960  -15.8630   75.6850 O.3       1 AGS600      0.0000 
     13 O5'        69.3030  -14.7980   73.5130 O.3       1 AGS600      0.0000 
     14 C5'        70.7340  -14.8930   73.6670 C.3       1 AGS600      0.0000 
     15 C4'        71.3980  -13.8580   72.7910 C.3       1 AGS600      0.0000 
     16 O4'        70.9270  -13.9870   71.4320 O.3       1 AGS600      0.0000 
     17 C3'        71.2050  -12.3910   73.1930 C.3       1 AGS600      0.0000 
     18 O3'        72.4420  -11.6870   73.2130 O.3       1 AGS600      0.0000 
     19 C2'        70.2280  -11.8540   72.1390 C.3       1 AGS600      0.0000 
     20 O2'        70.4390  -10.4760   71.8520 O.3       1 AGS600      0.0000 
     21 C1'        70.5720  -12.7160   70.9250 C.3       1 AGS600      0.0000 
     22 N9         69.4820  -12.8820   69.9630 N.pl3     1 AGS600      0.0000 
     23 C8         68.2980  -13.5470   70.1540 C.2       1 AGS600      0.0000 
     24 N7         67.5090  -13.5490   69.1060 N.2       1 AGS600      0.0000 
     25 C5         68.2230  -12.8360   68.1550 C.ar      1 AGS600      0.0000 
     26 C6         67.9400  -12.4810   66.8200 C.ar      1 AGS600      0.0000 
     27 N6         66.8250  -12.8410   66.1760 N.pl3     1 AGS600      0.0000 
     28 N1         68.8610  -11.7430   66.1560 N.ar      1 AGS600      0.0000 
     29 C2         69.9880  -11.3940   66.7900 C.ar      1 AGS600      0.0000 
     30 N3         70.3710  -11.6870   68.0370 N.ar      1 AGS600      0.0000 
     31 C4         69.4400  -12.4120   68.6720 C.ar      1 AGS600      0.0000 
@<TRIPOS>BOND
     1    1    2 2    
     2    1    3 1    
     3    1    4 1    
     4    1    8 1    
     5    5    6 ar   
     6    5    7 ar   
     7    5    8 1    
     8    5   12 1    
     9    9   10 ar   
    10    9   11 ar   
    11    9   12 1    
    12    9   13 1    
    13   13   14 1    
    14   14   15 1    
    15   15   16 1    
    16   15   17 1    
    17   16   21 1    
    18   17   18 1    
    19   17   19 1    
    20   19   20 1    
    21   19   21 1    
    22   21   22 1    
    23   22   23 1    
    24   22   31 1    
    25   23   24 2    
    26   24   25 1    
    27   25   26 ar   
    28   25   31 ar   
    29   26   27 1    
    30   26   28 ar   
    31   28   29 ar   
    32   29   30 ar   
    33   30   31 ar   
@<TRIPOS>SUBSTRUCTURE
     1 AGS600      1 GROUP   
@<TRIPOS>SET

