#    Name: 6fh2_1_AN2
#    Modification time : Fri May 22 19:28:08 2020

@<TRIPOS>MOLECULE
6fh2_1_AN2
   27    29     1     0     0
SMALL
NO_CHARGES


@<TRIPOS>ATOM
      1 N3B       -27.5690  -34.5960  345.6050 N.3       1 AN2401      0.0000 
      2 PB        -27.0900  -36.0550  344.8510 P.3       1 AN2401      0.0000 
      3 O2B       -25.9280  -36.5360  345.5210 O.co2     1 AN2401      0.0000 
      4 O1B       -28.1680  -37.1580  345.0740 O.co2     1 AN2401      0.0000 
      5 O3A       -26.7980  -35.8840  343.3190 O.3       1 AN2401      0.0000 
      6 PA        -26.8760  -34.5070  342.5570 P.3       1 AN2401      0.0000 
      7 O1A       -27.3840  -34.7900  341.2060 O.co2     1 AN2401      0.0000 
      8 O2A       -27.5510  -33.5070  343.4120 O.co2     1 AN2401      0.0000 
      9 O5'       -25.3770  -34.1100  342.4120 O.3       1 AN2401      0.0000 
     10 C5'       -24.7280  -33.6040  343.5510 C.3       1 AN2401      0.0000 
     11 C4'       -23.3370  -33.2510  343.1370 C.3       1 AN2401      0.0000 
     12 O4'       -22.7640  -34.4140  342.6220 O.3       1 AN2401      0.0000 
     13 C3'       -23.4580  -32.3030  341.9940 C.3       1 AN2401      0.0000 
     14 O3'       -23.0650  -31.0550  342.5110 O.3       1 AN2401      0.0000 
     15 C2'       -22.5700  -32.8410  340.9010 C.3       1 AN2401      0.0000 
     16 O2'       -21.5560  -31.9080  340.5450 O.3       1 AN2401      0.0000 
     17 C1'       -21.9350  -34.0390  341.5510 C.3       1 AN2401      0.0000 
     18 N9        -21.7630  -35.2320  340.7160 N.pl3     1 AN2401      0.0000 
     19 C8        -22.6350  -36.1990  340.4740 C.2       1 AN2401      0.0000 
     20 N7        -22.0880  -37.1550  339.7060 N.2       1 AN2401      0.0000 
     21 C5        -20.8420  -36.7900  339.4610 C.ar      1 AN2401      0.0000 
     22 C4        -20.6370  -35.5340  340.1410 C.ar      1 AN2401      0.0000 
     23 N3        -19.4620  -34.9330  340.0640 N.ar      1 AN2401      0.0000 
     24 C2        -18.4890  -35.4810  339.3700 C.ar      1 AN2401      0.0000 
     25 N1        -18.5860  -36.6280  338.7170 N.ar      1 AN2401      0.0000 
     26 C6        -19.7050  -37.3240  338.7230 C.ar      1 AN2401      0.0000 
     27 N6        -19.7640  -38.4700  338.0750 N.pl3     1 AN2401      0.0000 
@<TRIPOS>BOND
     1    1    2 1    
     2    2    3 ar   
     3    2    4 ar   
     4    2    5 1    
     5    5    6 1    
     6    6    7 ar   
     7    6    8 ar   
     8    6    9 1    
     9    9   10 1    
    10   10   11 1    
    11   11   12 1    
    12   11   13 1    
    13   12   17 1    
    14   13   14 1    
    15   13   15 1    
    16   15   16 1    
    17   15   17 1    
    18   17   18 1    
    19   18   19 1    
    20   18   22 1    
    21   19   20 2    
    22   20   21 1    
    23   21   22 ar   
    24   21   26 ar   
    25   22   23 ar   
    26   23   24 ar   
    27   24   25 ar   
    28   25   26 ar   
    29   26   27 1    
@<TRIPOS>SUBSTRUCTURE
     1 AN2401      1 GROUP   
@<TRIPOS>SET

