#    Name: 6fh2_1_AN2_CAVITY_N1_12
#    Modification time : Fri May 22 19:28:10 2020

@<TRIPOS>MOLECULE
6fh2_1_AN2_CAVITY_N1_12
  111     0     7     0     0
SMALL
NO_CHARGES


@<TRIPOS>ATOM
      1 OG        -32.2600  -35.9400  345.2900 O.3       1 SER1        0.0000 
      2 OG        -34.0000  -34.7500  345.0800 O.3       1 SER1        0.0000 
      3 OG        -31.7800  -36.8000  347.1700 O.3       1 SER1        0.0000 
      4 OG        -33.5300  -35.6100  346.9600 O.3       1 SER1        0.0000 
      5 OG        -32.0700  -35.4100  346.6800 O.3       1 SER1        0.0000 
      6 N         -25.3300  -35.9800  341.1300 N.am      2 ALA2        0.0000 
      7 N         -23.8700  -35.7800  340.8600 N.am      2 ALA2        0.0000 
      8 N         -22.4100  -35.5800  340.5800 N.am      2 ALA2        0.0000 
      9 N         -25.6100  -34.5900  340.6400 N.am      2 ALA2        0.0000 
     10 N         -25.4200  -34.0700  342.0400 N.am      2 ALA2        0.0000 
     11 N         -23.9600  -33.8700  341.7600 N.am      2 ALA2        0.0000 
     12 N         -22.5000  -33.6700  341.4900 N.am      2 ALA2        0.0000 
     13 O         -28.6300  -33.0800  342.1000 O.2       2 ALA2        0.0000 
     14 N         -24.2500  -32.4800  341.2700 N.am      2 ALA2        0.0000 
     15 O         -27.4500  -31.4900  341.3400 O.2       2 ALA2        0.0000 
     16 N         -20.8500  -32.9400  342.6000 N.am      2 ALA2        0.0000 
     17 N         -25.5200  -32.1500  342.9400 N.am      2 ALA2        0.0000 
     18 N         -24.0600  -31.9500  342.6700 N.am      2 ALA2        0.0000 
     19 N         -27.2600  -30.9600  342.7300 N.am      2 ALA2        0.0000 
     20 N         -25.8000  -30.7600  342.4600 N.am      2 ALA2        0.0000 
     21 N         -29.0000  -29.7700  342.5200 N.am      2 ALA2        0.0000 
     22 N         -27.5400  -29.5700  342.2400 N.am      2 ALA2        0.0000 
     23 N         -33.8100  -34.2200  346.4700 N.am      2 ALA2        0.0000 
     24 N         -22.1200  -32.6200  344.2700 N.am      2 ALA2        0.0000 
     25 N         -28.8100  -29.2500  343.9100 N.am      2 ALA2        0.0000 
     26 N         -33.6200  -33.7000  347.8600 N.am      2 ALA2        0.0000 
     27 N         -33.9000  -32.3100  347.3800 N.am      2 ALA2        0.0000 
     28 OD1       -28.2500  -36.3900  341.6800 O.co2     3 ASP3        0.0000 
     29 OD1       -28.5400  -35.0000  341.2000 O.co2     3 ASP3        0.0000 
     30 OD1       -29.5200  -36.0600  343.3500 O.co2     3 ASP3        0.0000 
     31 OD1       -28.0600  -35.8600  343.0700 O.co2     3 ASP3        0.0000 
     32 OD1       -25.1400  -35.4600  342.5200 O.co2     3 ASP3        0.0000 
     33 OD1       -23.6800  -35.2600  342.2500 O.co2     3 ASP3        0.0000 
     34 OD1       -29.8100  -34.6700  342.8600 O.co2     3 ASP3        0.0000 
     35 OD1       -29.0500  -36.9300  345.2300 O.co2     3 ASP3        0.0000 
     36 OD1       -30.8000  -35.7400  345.0200 O.co2     3 ASP3        0.0000 
     37 OD1       -29.3300  -35.5400  344.7400 O.co2     3 ASP3        0.0000 
     38 OD1       -27.8700  -35.3300  344.4700 O.co2     3 ASP3        0.0000 
     39 OD1       -26.4100  -35.1300  344.1900 O.co2     3 ASP3        0.0000 
     40 OD1       -24.9500  -34.9300  343.9100 O.co2     3 ASP3        0.0000 
     41 OD1       -20.5700  -34.3300  343.0900 O.co2     3 ASP3        0.0000 
     42 OD1       -23.7700  -33.3400  343.1500 O.co2     3 ASP3        0.0000 
     43 OD1       -22.3100  -33.1400  342.8800 O.co2     3 ASP3        0.0000 
     44 OD1       -30.3200  -36.6000  346.8900 O.co2     3 ASP3        0.0000 
     45 OD1       -30.6000  -35.2100  346.4100 O.co2     3 ASP3        0.0000 
     46 OD1       -29.1400  -35.0100  346.1300 O.co2     3 ASP3        0.0000 
     47 OD1       -27.6800  -34.8100  345.8600 O.co2     3 ASP3        0.0000 
     48 OD1       -26.2200  -34.6100  345.5800 O.co2     3 ASP3        0.0000 
     49 OD1       -24.7600  -34.4100  345.3100 O.co2     3 ASP3        0.0000 
     50 OD1       -27.9700  -33.4200  345.3700 O.co2     3 ASP3        0.0000 
     51 OD1       -30.4100  -34.6900  347.8000 O.co2     3 ASP3        0.0000 
     52 OD1       -26.0300  -34.0800  346.9700 O.co2     3 ASP3        0.0000 
     53 OD1       -23.1100  -33.6800  346.4200 O.co2     3 ASP3        0.0000 
     54 OD1       -29.2400  -33.0900  347.0400 O.co2     3 ASP3        0.0000 
     55 NZ        -31.0800  -34.3500  344.5300 N.4       4 LYS4        0.0000 
     56 NZ        -29.6200  -34.1500  344.2500 N.4       4 LYS4        0.0000 
     57 NZ        -32.3500  -34.0200  346.2000 N.4       4 LYS4        0.0000 
     58 NZ        -30.8900  -33.8200  345.9200 N.4       4 LYS4        0.0000 
     59 NZ        -29.4300  -33.6200  345.6500 N.4       4 LYS4        0.0000 
     60 NZ        -34.0900  -32.8300  345.9900 N.4       4 LYS4        0.0000 
     61 NZ        -29.7100  -32.2300  345.1600 N.4       4 LYS4        0.0000 
     62 NZ        -28.2500  -32.0300  344.8800 N.4       4 LYS4        0.0000 
     63 NZ        -28.5300  -30.6400  344.4000 N.4       4 LYS4        0.0000 
     64 NZ        -30.2800  -29.4500  344.1900 N.4       4 LYS4        0.0000 
     65 NZ        -27.7800  -32.8900  346.7600 N.4       4 LYS4        0.0000 
     66 NZ        -26.3200  -32.6900  346.4900 N.4       4 LYS4        0.0000 
     67 NZ        -32.4400  -32.1100  347.1000 N.4       4 LYS4        0.0000 
     68 NZ        -30.9800  -31.9000  346.8300 N.4       4 LYS4        0.0000 
     69 NZ        -29.5200  -31.7000  346.5500 N.4       4 LYS4        0.0000 
     70 NZ        -28.0600  -31.5000  346.2800 N.4       4 LYS4        0.0000 
     71 NZ        -26.6000  -31.3000  346.0000 N.4       4 LYS4        0.0000 
     72 NZ        -31.2600  -30.5100  346.3400 N.4       4 LYS4        0.0000 
     73 NZ        -31.5500  -29.1200  345.8500 N.4       4 LYS4        0.0000 
     74 NZ        -29.0500  -32.5700  348.4300 N.4       4 LYS4        0.0000 
     75 NZ        -30.7900  -31.3800  348.2200 N.4       4 LYS4        0.0000 
     76 NZ        -29.3300  -31.1800  347.9400 N.4       4 LYS4        0.0000 
     77 NZ        -32.5300  -30.1900  348.0100 N.4       4 LYS4        0.0000 
     78 CZ        -21.0400  -33.4700  341.2100 C.ar      5 PHE5        0.0000 
     79 CZ        -31.0700  -29.9900  347.7300 C.ar      5 PHE5        0.0000 
     80 CA        -26.7900  -36.1900  341.4100 C.3       6 GLY6        0.0000 
     81 CA        -27.0800  -34.7900  340.9200 C.3       6 GLY6        0.0000 
     82 CA        -26.6000  -35.6600  342.8000 C.3       6 GLY6        0.0000 
     83 CA        -22.2200  -35.0600  341.9700 C.3       6 GLY6        0.0000 
     84 CA        -20.7600  -34.8600  341.7000 C.3       6 GLY6        0.0000 
     85 CA        -27.1700  -32.8800  341.8300 C.3       6 GLY6        0.0000 
     86 CA        -25.7100  -32.6800  341.5500 C.3       6 GLY6        0.0000 
     87 CA        -22.7900  -32.2800  341.0000 C.3       6 GLY6        0.0000 
     88 CA        -28.4400  -32.5500  343.4900 C.3       6 GLY6        0.0000 
     89 CA        -22.6000  -31.7500  342.3900 C.3       6 GLY6        0.0000 
     90 CA        -28.7200  -31.1600  343.0100 C.3       6 GLY6        0.0000 
     91 CA        -26.5100  -33.2200  345.1000 C.3       6 GLY6        0.0000 
     92 CA        -25.0400  -33.0200  344.8200 C.3       6 GLY6        0.0000 
     93 CA        -23.5800  -32.8200  344.5500 C.3       6 GLY6        0.0000 
     94 CA        -26.7900  -31.8300  344.6100 C.3       6 GLY6        0.0000 
     95 CA        -22.4100  -31.2300  343.7800 C.3       6 GLY6        0.0000 
     96 CA        -27.0700  -30.4400  344.1200 C.3       6 GLY6        0.0000 
     97 CA        -27.3500  -29.0500  343.6400 C.3       6 GLY6        0.0000 
     98 CA        -31.8800  -34.8900  348.0800 C.3       6 GLY6        0.0000 
     99 CA        -32.1600  -33.5000  347.5900 C.3       6 GLY6        0.0000 
    100 CA        -30.7000  -33.2900  347.3100 C.3       6 GLY6        0.0000 
    101 CA        -24.8500  -32.4900  346.2100 C.3       6 GLY6        0.0000 
    102 CA        -29.8000  -30.3100  346.0700 C.3       6 GLY6        0.0000 
    103 CA        -28.3400  -30.1100  345.7900 C.3       6 GLY6        0.0000 
    104 CA        -26.8800  -29.9100  345.5200 C.3       6 GLY6        0.0000 
    105 CA        -30.0900  -28.9200  345.5800 C.3       6 GLY6        0.0000 
    106 DU        -28.3500  -34.4700  342.5900 H         7 CUB7        0.0000 
    107 DU        -26.8900  -34.2700  342.3100 H         7 CUB7        0.0000 
    108 DU        -28.1600  -33.9400  343.9800 H         7 CUB7        0.0000 
    109 DU        -26.7000  -33.7400  343.7000 H         7 CUB7        0.0000 
    110 DU        -25.2300  -33.5400  343.4300 H         7 CUB7        0.0000 
    111 DU        -26.9800  -32.3500  343.2200 H         7 CUB7        0.0000 
@<TRIPOS>BOND
@<TRIPOS>SUBSTRUCTURE
     1 SER1        1 GROUP   
     2 ALA2        6 GROUP   
     3 ASP3       28 GROUP   
     4 LYS4       55 GROUP   
     5 PHE5       78 GROUP   
     6 GLY6       80 GROUP   
     7 CUB7      106 GROUP   
@<TRIPOS>SET

