#    Name: 6dpu_4_G2P
#    Modification time : Fri May 22 19:25:37 2020

@<TRIPOS>MOLECULE
6dpu_4_G2P
   32    34     1     0     0
SMALL
NO_CHARGES


@<TRIPOS>ATOM
      1 PG        225.7670  387.4460  155.4160 P.3       1 G2P501      0.0000 
      2 O1G       224.4760  386.7740  155.0180 O.co2     1 G2P501      0.0000 
      3 O2G       227.0030  386.7290  154.9210 O.co2     1 G2P501      0.0000 
      4 O3G       225.7900  388.9350  155.2010 O.co2     1 G2P501      0.0000 
      5 O3B       225.7680  387.3470  157.0230 O.3       1 G2P501      0.0000 
      6 PB        227.0160  386.7590  157.8480 P.3       1 G2P501      0.0000 
      7 O1B       226.6360  386.7590  159.2740 O.co2     1 G2P501      0.0000 
      8 O2B       227.4540  385.3800  157.1400 O.co2     1 G2P501      0.0000 
      9 C3A       228.3540  387.9500  157.6520 C.3       1 G2P501      0.0000 
     10 PA        229.8890  387.2200  158.2570 P.3       1 G2P501      0.0000 
     11 O1A       229.6190  386.5650  159.5570 O.co2     1 G2P501      0.0000 
     12 O2A       230.4460  386.0620  157.2860 O.co2     1 G2P501      0.0000 
     13 O5'       230.9490  388.3880  158.5560 O.3       1 G2P501      0.0000 
     14 C5'       232.0810  388.7440  157.7660 C.3       1 G2P501      0.0000 
     15 C4'       232.8420  389.6280  158.7490 C.3       1 G2P501      0.0000 
     16 O4'       233.2290  388.9280  159.9340 O.3       1 G2P501      0.0000 
     17 C3'       234.2470  390.0190  158.3010 C.3       1 G2P501      0.0000 
     18 O3'       234.7930  391.1580  158.9890 O.3       1 G2P501      0.0000 
     19 C2'       234.9940  388.7020  158.4560 C.3       1 G2P501      0.0000 
     20 O2'       236.3260  389.1110  158.1480 O.3       1 G2P501      0.0000 
     21 C1'       234.5790  388.4240  159.9010 C.3       1 G2P501      0.0000 
     22 N9        234.6370  386.9610  160.1680 N.pl3     1 G2P501      0.0000 
     23 C8        234.0940  385.9640  159.4360 C.2       1 G2P501      0.0000 
     24 N7        234.3490  384.7540  159.9910 N.2       1 G2P501      0.0000 
     25 C5        235.0560  384.9600  161.1090 C.2       1 G2P501      0.0000 
     26 C6        235.6450  384.1130  162.1690 C.2       1 G2P501      0.0000 
     27 O6        235.5330  382.8750  162.1340 O.2       1 G2P501      0.0000 
     28 N1        236.3260  384.7140  163.1530 N.am      1 G2P501      0.0000 
     29 C2        236.4740  386.0520  163.2200 C.2       1 G2P501      0.0000 
     30 N2        237.1770  386.5680  164.2590 N.pl3     1 G2P501      0.0000 
     31 N3        235.9570  386.8950  162.2790 N.2       1 G2P501      0.0000 
     32 C4        235.2540  386.4140  161.2180 C.2       1 G2P501      0.0000 
@<TRIPOS>BOND
     1    1    2 ar   
     2    1    3 ar   
     3    1    4 ar   
     4    1    5 1    
     5    5    6 1    
     6    6    7 ar   
     7    6    8 ar   
     8    6    9 1    
     9    9   10 1    
    10   10   11 ar   
    11   10   12 ar   
    12   10   13 1    
    13   13   14 1    
    14   14   15 1    
    15   15   16 1    
    16   15   17 1    
    17   16   21 1    
    18   17   18 1    
    19   17   19 1    
    20   19   20 1    
    21   19   21 1    
    22   21   22 1    
    23   22   23 1    
    24   22   32 1    
    25   23   24 2    
    26   24   25 1    
    27   25   26 1    
    28   25   32 2    
    29   26   27 2    
    30   26   28 am   
    31   28   29 1    
    32   29   30 1    
    33   29   31 2    
    34   31   32 1    
@<TRIPOS>SUBSTRUCTURE
     1 G2P501      1 GROUP   
@<TRIPOS>SET

