#    Name: 6dpu_11_GTP
#    Modification time : Fri May 22 19:27:13 2020

@<TRIPOS>MOLECULE
6dpu_11_GTP
   32    34     1     0     1
SMALL
NO_CHARGES


@<TRIPOS>ATOM
      1 PG        278.7380  401.0700  290.0920 P.3       1 GTP501      0.0000 
      2 O1G       279.4370  402.2430  289.4520 O.co2     1 GTP501      0.0000 
      3 O2G       277.2400  401.1510  290.1130 O.co2     1 GTP501      0.0000 
      4 O3G       279.1710  399.7260  289.5640 O.co2     1 GTP501      0.0000 
      5 O3B       279.1700  401.2360  291.6280 O.3       1 GTP501      0.0000 
      6 PB        279.7170  400.0440  292.5390 P.3       1 GTP501      0.0000 
      7 O1B       279.1400  398.7080  292.1490 O.co2     1 GTP501      0.0000 
      8 O2B       279.4930  400.4180  293.9780 O.co2     1 GTP501      0.0000 
      9 O3A       281.2690  399.9930  292.1690 O.3       1 GTP501      0.0000 
     10 PA        282.3890  399.1570  292.9450 P.3       1 GTP501      0.0000 
     11 O1A       282.8070  398.0630  291.9930 O.co2     1 GTP501      0.0000 
     12 O2A       281.9110  398.7170  294.3050 O.co2     1 GTP501      0.0000 
     13 O5'       283.4960  400.3040  293.1070 O.3       1 GTP501      0.0000 
     14 C5'       284.8240  400.1810  292.6190 C.3       1 GTP501      0.0000 
     15 C4'       285.7600  400.3320  293.8010 C.3       1 GTP501      0.0000 
     16 O4'       285.5360  399.2720  294.7280 O.3       1 GTP501      0.0000 
     17 C3'       287.1960  400.1970  293.3620 C.3       1 GTP501      0.0000 
     18 O3'       288.0280  401.0010  294.2050 O.3       1 GTP501      0.0000 
     19 C2'       287.4620  398.7250  293.5510 C.3       1 GTP501      0.0000 
     20 O2'       288.8470  398.4480  293.7340 O.3       1 GTP501      0.0000 
     21 C1'       286.6900  398.4410  294.8140 C.3       1 GTP501      0.0000 
     22 N9        286.2590  397.0380  294.9380 N.pl3     1 GTP501      0.0000 
     23 C8        285.3880  396.3690  294.1720 C.2       1 GTP501      0.0000 
     24 N7        285.2030  395.1080  294.6450 N.2       1 GTP501      0.0000 
     25 C5        285.9390  394.9840  295.7520 C.2       1 GTP501      0.0000 
     26 C6        286.2090  393.9400  296.7570 C.2       1 GTP501      0.0000 
     27 O6        285.6760  392.8220  296.6640 O.2       1 GTP501      0.0000 
     28 N1        287.0430  394.2230  297.7660 N.am      1 GTP501      0.0000 
     29 C2        287.6480  395.4160  297.8870 C.2       1 GTP501      0.0000 
     30 N2        288.4750  395.6280  298.9370 N.pl3     1 GTP501      0.0000 
     31 N3        287.4410  396.4240  297.0070 N.2       1 GTP501      0.0000 
     32 C4        286.6150  396.2660  295.9490 C.2       1 GTP501      0.0000 
@<TRIPOS>BOND
     1    1    2 ar   
     2    1    3 ar   
     3    1    4 ar   
     4    1    5 1    
     5    5    6 1    
     6    6    7 ar   
     7    6    8 ar   
     8    6    9 1    
     9    9   10 1    
    10   10   11 ar   
    11   10   12 ar   
    12   10   13 1    
    13   13   14 1    
    14   14   15 1    
    15   15   16 1    
    16   15   17 1    
    17   16   21 1    
    18   17   18 1    
    19   17   19 1    
    20   19   20 1    
    21   19   21 1    
    22   21   22 1    
    23   22   23 1    
    24   22   32 1    
    25   23   24 2    
    26   24   25 1    
    27   25   26 1    
    28   25   32 2    
    29   26   27 2    
    30   26   28 am   
    31   28   29 1    
    32   29   30 1    
    33   29   31 2    
    34   31   32 1    
@<TRIPOS>SUBSTRUCTURE
     1 GTP501      1 GROUP   
@<TRIPOS>SET
ATOM$ORANGE STATIC     ATOMS   COLORGROUP SYSTEM 
20 14 14 15 15 17 17 19 19 21 21 23 23 25 25 26 26 29 \
29 32 32 

