#    Name: 6dpu_6_G2P
#    Modification time : Fri May 22 19:25:54 2020

@<TRIPOS>MOLECULE
6dpu_6_G2P
   32    34     1     0     0
SMALL
NO_CHARGES


@<TRIPOS>ATOM
      1 PG        330.1230  389.9350  173.3940 P.3       1 G2P501      0.0000 
      2 O1G       328.8060  390.5650  173.0110 O.co2     1 G2P501      0.0000 
      3 O2G       330.2730  388.5070  172.9170 O.co2     1 G2P501      0.0000 
      4 O3G       331.3350  390.7900  173.1400 O.co2     1 G2P501      0.0000 
      5 O3B       330.0640  389.9040  175.0050 O.3       1 G2P501      0.0000 
      6 PB        330.3480  388.5650  175.8450 P.3       1 G2P501      0.0000 
      7 O1B       330.1410  388.8740  177.2740 O.co2     1 G2P501      0.0000 
      8 O2B       329.4880  387.3850  175.1620 O.co2     1 G2P501      0.0000 
      9 C3A       332.1100  388.2340  175.6290 C.3       1 G2P501      0.0000 
     10 PA        332.5060  386.5780  176.2290 P.3       1 G2P501      0.0000 
     11 O1A       331.8440  386.3800  177.5390 O.co2     1 G2P501      0.0000 
     12 O2A       331.9350  385.4200  175.2680 O.co2     1 G2P501      0.0000 
     13 O5'       334.0840  386.4960  176.5140 O.3       1 G2P501      0.0000 
     14 C5'       335.0780  385.8440  175.7250 C.3       1 G2P501      0.0000 
     15 C4'       336.2400  385.8100  176.7130 C.3       1 G2P501      0.0000 
     16 O4'       335.9430  385.0620  177.8980 O.3       1 G2P501      0.0000 
     17 C3'       337.4330  384.9690  176.2740 C.3       1 G2P501      0.0000 
     18 O3'       338.6530  385.2730  176.9730 O.3       1 G2P501      0.0000 
     19 C2'       336.9040  383.5510  176.4360 C.3       1 G2P501      0.0000 
     20 O2'       338.0600  382.7690  176.1430 O.3       1 G2P501      0.0000 
     21 C1'       336.4080  383.6970  177.8740 C.3       1 G2P501      0.0000 
     22 N9        335.2800  382.7570  178.1190 N.pl3     1 G2P501      0.0000 
     23 C8        334.1700  382.5620  177.3740 C.2       1 G2P501      0.0000 
     24 N7        333.3680  381.6180  177.9290 N.2       1 G2P501      0.0000 
     25 C5        333.9510  381.2040  179.0610 C.2       1 G2P501      0.0000 
     26 C6        333.6360  380.2320  180.1320 C.2       1 G2P501      0.0000 
     27 O6        332.5910  379.5560  180.0920 O.2       1 G2P501      0.0000 
     28 N1        334.5180  380.0810  181.1310 N.am      1 G2P501      0.0000 
     29 C2        335.6610  380.7940  181.2020 C.2       1 G2P501      0.0000 
     30 N2        336.4920  380.5790  182.2520 N.pl3     1 G2P501      0.0000 
     31 N3        336.0140  381.7070  180.2520 N.2       1 G2P501      0.0000 
     32 C4        335.2150  381.9470  179.1780 C.2       1 G2P501      0.0000 
@<TRIPOS>BOND
     1    1    2 ar   
     2    1    3 ar   
     3    1    4 ar   
     4    1    5 1    
     5    5    6 1    
     6    6    7 ar   
     7    6    8 ar   
     8    6    9 1    
     9    9   10 1    
    10   10   11 ar   
    11   10   12 ar   
    12   10   13 1    
    13   13   14 1    
    14   14   15 1    
    15   15   16 1    
    16   15   17 1    
    17   16   21 1    
    18   17   18 1    
    19   17   19 1    
    20   19   20 1    
    21   19   21 1    
    22   21   22 1    
    23   22   23 1    
    24   22   32 1    
    25   23   24 2    
    26   24   25 1    
    27   25   26 1    
    28   25   32 2    
    29   26   27 2    
    30   26   28 am   
    31   28   29 1    
    32   29   30 1    
    33   29   31 2    
    34   31   32 1    
@<TRIPOS>SUBSTRUCTURE
     1 G2P501      1 GROUP   
@<TRIPOS>SET

