#    Name: 6dpu_5_G2P
#    Modification time : Fri May 22 19:25:45 2020

@<TRIPOS>MOLECULE
6dpu_5_G2P
   32    34     1     0     0
SMALL
NO_CHARGES


@<TRIPOS>ATOM
      1 PG        277.6780  400.6090  164.4030 P.3       1 G2P501      0.0000 
      2 O1G       276.2160  400.5890  164.0250 O.co2     1 G2P501      0.0000 
      3 O2G       278.4460  399.3960  163.9270 O.co2     1 G2P501      0.0000 
      4 O3G       278.3810  401.9140  164.1470 O.co2     1 G2P501      0.0000 
      5 O3B       277.6460  400.5570  166.0140 O.3       1 G2P501      0.0000 
      6 PB        278.4990  399.4850  166.8520 P.3       1 G2P501      0.0000 
      7 O1B       278.1770  399.6800  168.2800 O.co2     1 G2P501      0.0000 
      8 O2B       278.2540  398.0440  166.1730 O.co2     1 G2P501      0.0000 
      9 C3A       280.2260  399.9530  166.6340 C.3       1 G2P501      0.0000 
     10 PA        281.2920  398.6310  167.2430 P.3       1 G2P501      0.0000 
     11 O1A       280.7760  398.1740  168.5530 O.co2     1 G2P501      0.0000 
     12 O2A       281.2750  397.3370  166.2870 O.co2     1 G2P501      0.0000 
     13 O5'       282.7540  399.2320  167.5290 O.3       1 G2P501      0.0000 
     14 C5'       283.9310  399.0640  166.7420 C.3       1 G2P501      0.0000 
     15 C4'       284.9960  399.5360  167.7270 C.3       1 G2P501      0.0000 
     16 O4'       285.0520  398.7370  168.9140 O.3       1 G2P501      0.0000 
     17 C3'       286.4320  399.2940  167.2810 C.3       1 G2P501      0.0000 
     18 O3'       287.4050  400.0960  167.9740 O.3       1 G2P501      0.0000 
     19 C2'       286.5680  397.7880  167.4460 C.3       1 G2P501      0.0000 
     20 O2'       287.9470  397.5830  167.1480 O.3       1 G2P501      0.0000 
     21 C1'       286.0630  397.7070  168.8860 C.3       1 G2P501      0.0000 
     22 N9        285.4540  396.3720  169.1360 N.pl3     1 G2P501      0.0000 
     23 C8        284.5320  395.7180  168.3950 C.2       1 G2P501      0.0000 
     24 N7        284.2200  394.5200  168.9510 N.2       1 G2P501      0.0000 
     25 C5        284.9320  394.3930  170.0770 C.2       1 G2P501      0.0000 
     26 C6        285.0750  393.3760  171.1440 C.2       1 G2P501      0.0000 
     27 O6        284.4250  392.3160  171.1060 O.2       1 G2P501      0.0000 
     28 N1        285.9420  393.6160  172.1370 N.am      1 G2P501      0.0000 
     29 C2        286.6660  394.7520  172.2060 C.2       1 G2P501      0.0000 
     30 N2        287.5140  394.9090  173.2520 N.pl3     1 G2P501      0.0000 
     31 N3        286.5840  395.7320  171.2610 N.2       1 G2P501      0.0000 
     32 C4        285.7520  395.6090  170.1910 C.2       1 G2P501      0.0000 
@<TRIPOS>BOND
     1    1    2 ar   
     2    1    3 ar   
     3    1    4 ar   
     4    1    5 1    
     5    5    6 1    
     6    6    7 ar   
     7    6    8 ar   
     8    6    9 1    
     9    9   10 1    
    10   10   11 ar   
    11   10   12 ar   
    12   10   13 1    
    13   13   14 1    
    14   14   15 1    
    15   15   16 1    
    16   15   17 1    
    17   16   21 1    
    18   17   18 1    
    19   17   19 1    
    20   19   20 1    
    21   19   21 1    
    22   21   22 1    
    23   22   23 1    
    24   22   32 1    
    25   23   24 2    
    26   24   25 1    
    27   25   26 1    
    28   25   32 2    
    29   26   27 2    
    30   26   28 am   
    31   28   29 1    
    32   29   30 1    
    33   29   31 2    
    34   31   32 1    
@<TRIPOS>SUBSTRUCTURE
     1 G2P501      1 GROUP   
@<TRIPOS>SET

