#    Name: 6dpu_7_GTP
#    Modification time : Fri May 22 19:26:09 2020

@<TRIPOS>MOLECULE
6dpu_7_GTP
   32    34     1     0     1
SMALL
NO_CHARGES


@<TRIPOS>ATOM
      1 PG        278.0810  401.0940  206.0810 P.3       1 GTP501      0.0000 
      2 O1G       278.7870  402.2640  205.4430 O.co2     1 GTP501      0.0000 
      3 O2G       276.5830  401.2270  206.1120 O.co2     1 GTP501      0.0000 
      4 O3G       278.4740  399.7320  205.5650 O.co2     1 GTP501      0.0000 
      5 O3B       278.5170  401.2520  207.6190 O.3       1 GTP501      0.0000 
      6 PB        279.0070  400.0340  208.5350 P.3       1 GTP501      0.0000 
      7 O1B       278.4010  398.6970  208.1850 O.co2     1 GTP501      0.0000 
      8 O2B       278.7800  400.4530  209.9650 O.co2     1 GTP501      0.0000 
      9 O3A       280.5690  399.9930  208.1940 O.3       1 GTP501      0.0000 
     10 PA        281.6790  399.2060  209.0290 P.3       1 GTP501      0.0000 
     11 O1A       282.1210  398.0770  208.1340 O.co2     1 GTP501      0.0000 
     12 O2A       281.1750  398.8320  210.4010 O.co2     1 GTP501      0.0000 
     13 O5'       282.7950  400.3540  209.1280 O.3       1 GTP501      0.0000 
     14 C5'       284.1360  400.2430  208.6730 C.3       1 GTP501      0.0000 
     15 C4'       285.0540  400.3990  209.8750 C.3       1 GTP501      0.0000 
     16 O4'       284.8380  399.3280  210.7930 O.3       1 GTP501      0.0000 
     17 C3'       286.5020  400.2990  209.4560 C.3       1 GTP501      0.0000 
     18 O3'       287.3070  401.1110  210.3190 O.3       1 GTP501      0.0000 
     19 C2'       286.7960  398.8320  209.6270 C.3       1 GTP501      0.0000 
     20 O2'       288.1850  398.5780  209.8210 O.3       1 GTP501      0.0000 
     21 C1'       286.0110  398.5160  210.8770 C.3       1 GTP501      0.0000 
     22 N9        285.5830  397.1050  210.9700 N.pl3     1 GTP501      0.0000 
     23 C8        284.7170  396.4420  210.1830 C.2       1 GTP501      0.0000 
     24 N7        284.5350  395.1740  210.6380 N.2       1 GTP501      0.0000 
     25 C5        285.2690  395.0310  211.7470 C.2       1 GTP501      0.0000 
     26 C6        285.5420  393.9690  212.7350 C.2       1 GTP501      0.0000 
     27 O6        285.0170  392.8490  212.6240 O.2       1 GTP501      0.0000 
     28 N1        286.3710  394.2360  213.7530 N.am      1 GTP501      0.0000 
     29 C2        286.9680  395.4280  213.9020 C.2       1 GTP501      0.0000 
     30 N2        287.7880  395.6200  214.9610 N.pl3     1 GTP501      0.0000 
     31 N3        286.7600  396.4520  213.0400 N.2       1 GTP501      0.0000 
     32 C4        285.9390  396.3120  211.9720 C.2       1 GTP501      0.0000 
@<TRIPOS>BOND
     1    1    2 ar   
     2    1    3 ar   
     3    1    4 ar   
     4    1    5 1    
     5    5    6 1    
     6    6    7 ar   
     7    6    8 ar   
     8    6    9 1    
     9    9   10 1    
    10   10   11 ar   
    11   10   12 ar   
    12   10   13 1    
    13   13   14 1    
    14   14   15 1    
    15   15   16 1    
    16   15   17 1    
    17   16   21 1    
    18   17   18 1    
    19   17   19 1    
    20   19   20 1    
    21   19   21 1    
    22   21   22 1    
    23   22   23 1    
    24   22   32 1    
    25   23   24 2    
    26   24   25 1    
    27   25   26 1    
    28   25   32 2    
    29   26   27 2    
    30   26   28 am   
    31   28   29 1    
    32   29   30 1    
    33   29   31 2    
    34   31   32 1    
@<TRIPOS>SUBSTRUCTURE
     1 GTP501      1 GROUP   
@<TRIPOS>SET
ATOM$ORANGE STATIC     ATOMS   COLORGROUP SYSTEM 
20 14 14 15 15 17 17 19 19 21 21 23 23 25 25 26 26 29 \
29 32 32 

