#    Name: 6dpu_5_G2P_CAVITY_N1_4
#    Modification time : Fri May 22 19:25:47 2020

@<TRIPOS>MOLECULE
6dpu_5_G2P_CAVITY_N1_4
  128     0     7     0     0
SMALL
NO_CHARGES


@<TRIPOS>ATOM
      1 OG        284.3100  399.7300  163.7500 O.3       1 SER1        0.0000 
      2 OG        279.4100  399.5800  169.6200 O.3       1 SER1        0.0000 
      3 OG        280.5800  399.6300  168.6800 O.3       1 SER1        0.0000 
      4 OG        281.7400  399.6700  167.7400 O.3       1 SER1        0.0000 
      5 OG        284.0000  401.2600  165.8300 O.3       1 SER1        0.0000 
      6 OG        285.2500  399.8100  164.9200 O.3       1 SER1        0.0000 
      7 OG        282.6800  399.7500  168.9100 O.3       1 SER1        0.0000 
      8 OG        283.8500  399.7900  167.9700 O.3       1 SER1        0.0000 
      9 OG        285.1800  396.8400  167.0900 O.3       1 SER1        0.0000 
     10 OG        286.1000  401.3800  166.0500 O.3       1 SER1        0.0000 
     11 OG        286.1800  399.8800  166.0800 O.3       1 SER1        0.0000 
     12 OG        286.3500  396.8900  166.1500 O.3       1 SER1        0.0000 
     13 OG        287.5200  396.9400  165.2000 O.3       1 SER1        0.0000 
     14 OG        284.7900  399.8700  169.1300 O.3       1 SER1        0.0000 
     15 OG        284.8700  398.3700  169.1600 O.3       1 SER1        0.0000 
     16 OG        286.1200  396.9200  168.2500 O.3       1 SER1        0.0000 
     17 OG        287.2100  398.4600  167.2800 O.3       1 SER1        0.0000 
     18 OG        289.6200  397.0600  165.4300 O.3       1 SER1        0.0000 
     19 OG        289.3100  398.5900  167.5100 O.3       1 SER1        0.0000 
     20 OG        290.5600  397.1400  166.6000 O.3       1 SER1        0.0000 
     21 O         276.9700  400.7800  161.8700 O.2       2 ALA2        0.0000 
     22 O         277.9100  400.8600  163.0400 O.2       2 ALA2        0.0000 
     23 N         279.1600  399.4100  162.1300 N.am      2 ALA2        0.0000 
     24 O         277.6800  400.8900  165.1500 O.2       2 ALA2        0.0000 
     25 N         278.8500  400.9400  164.2100 N.am      2 ALA2        0.0000 
     26 N         280.1000  399.4900  163.3000 N.am      2 ALA2        0.0000 
     27 O         278.6200  400.9700  166.3100 O.2       2 ALA2        0.0000 
     28 N         281.0300  399.5600  164.4600 N.am      2 ALA2        0.0000 
     29 N         282.2000  399.6100  163.5200 N.am      2 ALA2        0.0000 
     30 O         278.3900  401.0000  168.4200 O.2       2 ALA2        0.0000 
     31 O         279.7200  398.0500  167.5400 O.2       2 ALA2        0.0000 
     32 N         282.0600  398.1400  165.6600 N.am      2 ALA2        0.0000 
     33 N         282.1400  396.6500  165.6900 N.am      2 ALA2        0.0000 
     34 N         283.0600  401.1800  164.6600 N.am      2 ALA2        0.0000 
     35 N         283.1400  399.6900  164.6900 N.am      2 ALA2        0.0000 
     36 O         280.6600  398.1300  168.7100 O.2       2 ALA2        0.0000 
     37 O         281.6600  401.1700  167.7100 O.2       2 ALA2        0.0000 
     38 O         281.9100  396.6800  167.8000 O.2       2 ALA2        0.0000 
     39 O         282.8300  401.2100  166.7700 O.2       2 ALA2        0.0000 
     40 N         283.0800  396.7200  166.8600 N.am      2 ALA2        0.0000 
     41 O         283.1600  395.2200  166.8900 O.2       2 ALA2        0.0000 
     42 N         283.9100  402.7600  165.7900 N.am      2 ALA2        0.0000 
     43 O         283.7700  401.2900  167.9300 O.2       2 ALA2        0.0000 
     44 O         284.1000  395.3000  168.0600 O.2       2 ALA2        0.0000 
     45 N         284.1900  393.8000  168.0900 N.am      2 ALA2        0.0000 
     46 N         283.9600  393.8400  170.2000 N.am      2 ALA2        0.0000 
     47 N         284.8100  395.4100  171.3400 N.am      2 ALA2        0.0000 
     48 N         284.8900  393.9100  171.3700 N.am      2 ALA2        0.0000 
     49 N         285.6400  401.4400  170.2700 N.am      2 ALA2        0.0000 
     50 O         285.8900  396.9500  170.3600 O.2       2 ALA2        0.0000 
     51 O         285.9800  395.4600  170.3900 O.2       2 ALA2        0.0000 
     52 O         286.9800  398.5000  169.3900 O.2       2 ALA2        0.0000 
     53 O         287.0600  397.0000  169.4200 O.2       2 ALA2        0.0000 
     54 O         288.1500  398.5400  168.4500 O.2       2 ALA2        0.0000 
     55 N         289.2300  400.0800  167.4800 N.am      2 ALA2        0.0000 
     56 N         285.7500  395.4900  172.5000 N.am      2 ALA2        0.0000 
     57 N         285.8300  393.9900  172.5300 N.am      2 ALA2        0.0000 
     58 O         286.9200  395.5300  171.5600 O.2       2 ALA2        0.0000 
     59 N         287.7500  401.5700  170.5000 N.am      2 ALA2        0.0000 
     60 O         287.8300  400.0700  170.5300 O.2       2 ALA2        0.0000 
     61 O         289.0000  400.1200  169.5900 O.2       2 ALA2        0.0000 
     62 N         290.1700  400.1600  168.6500 N.am      2 ALA2        0.0000 
     63 O         290.2500  398.6600  168.6800 O.2       2 ALA2        0.0000 
     64 N         286.6900  395.5600  173.6700 N.am      2 ALA2        0.0000 
     65 N         287.9400  394.1100  172.7600 N.am      2 ALA2        0.0000 
     66 OD1       278.9300  399.4400  164.2400 O.co2     3 ASP3        0.0000 
     67 OD1       280.1800  397.9900  163.3300 O.co2     3 ASP3        0.0000 
     68 OD1       278.7000  399.4700  166.3500 O.co2     3 ASP3        0.0000 
     69 OD1       279.8700  399.5200  165.4000 O.co2     3 ASP3        0.0000 
     70 OD1       279.9500  398.0200  165.4400 O.co2     3 ASP3        0.0000 
     71 OD1       281.1200  398.0700  164.4900 O.co2     3 ASP3        0.0000 
     72 NZ        277.0500  399.2900  161.9000 N.4       4 LYS4        0.0000 
     73 NZ        278.2200  399.3300  160.9600 N.4       4 LYS4        0.0000 
     74 NZ        285.3300  398.3100  164.9500 N.4       4 LYS4        0.0000 
     75 NZ        284.9300  401.3400  166.9900 N.4       4 LYS4        0.0000 
     76 NZ        285.7900  402.9100  168.1300 N.4       4 LYS4        0.0000 
     77 NZ        285.8700  401.4100  168.1600 N.4       4 LYS4        0.0000 
     78 NZ        287.1200  399.9600  167.2500 N.4       4 LYS4        0.0000 
     79 NZ        286.8100  401.4900  169.3300 N.4       4 LYS4        0.0000 
     80 NZ        288.0600  400.0400  168.4200 N.4       4 LYS4        0.0000 
     81 CZ        285.2700  395.3500  167.1200 C.ar      5 PHE5        0.0000 
     82 CZ        285.1200  393.8800  169.2600 C.ar      5 PHE5        0.0000 
     83 CZ        286.2100  395.4200  168.2900 C.ar      5 PHE5        0.0000 
     84 CZ        286.0600  393.9600  170.4300 C.ar      5 PHE5        0.0000 
     85 CZ        287.1500  395.5000  169.4500 C.ar      5 PHE5        0.0000 
     86 CZ        287.0000  394.0300  171.5900 C.ar      5 PHE5        0.0000 
     87 CA        278.1400  400.8300  160.9300 C.3       6 GLY6        0.0000 
     88 CA        279.7800  401.0100  165.3700 C.3       6 GLY6        0.0000 
     89 CA        278.4700  399.5000  168.4500 C.3       6 GLY6        0.0000 
     90 CA        279.5600  401.0500  167.4800 C.3       6 GLY6        0.0000 
     91 CA        280.7200  401.0900  166.5400 C.3       6 GLY6        0.0000 
     92 CA        280.8900  398.1000  166.6000 C.3       6 GLY6        0.0000 
     93 CA        280.9700  396.6000  166.6300 C.3       6 GLY6        0.0000 
     94 CA        281.8900  401.1400  165.6000 C.3       6 GLY6        0.0000 
     95 CA        284.2200  401.2300  163.7200 C.3       6 GLY6        0.0000 
     96 CA        280.4900  401.1200  168.6500 C.3       6 GLY6        0.0000 
     97 CA        281.8300  398.1700  167.7700 C.3       6 GLY6        0.0000 
     98 CA        282.6000  401.2500  168.8800 C.3       6 GLY6        0.0000 
     99 CA        282.7700  398.2500  168.9400 C.3       6 GLY6        0.0000 
    100 CA        282.9300  395.2600  169.0000 C.3       6 GLY6        0.0000 
    101 CA        284.0200  396.8000  168.0300 C.3       6 GLY6        0.0000 
    102 CA        284.8500  402.8300  166.9600 C.3       6 GLY6        0.0000 
    103 CA        286.2700  398.3900  166.1100 C.3       6 GLY6        0.0000 
    104 CA        283.8700  395.3300  170.1700 C.3       6 GLY6        0.0000 
    105 CA        284.7000  401.3700  169.1000 C.3       6 GLY6        0.0000 
    106 CA        284.9600  396.8800  169.2000 C.3       6 GLY6        0.0000 
    107 CA        285.0400  395.3800  169.2300 C.3       6 GLY6        0.0000 
    108 CA        288.2900  400.0100  166.3100 C.3       6 GLY6        0.0000 
    109 CA        288.3700  398.5100  166.3400 C.3       6 GLY6        0.0000 
    110 CA        285.7300  399.9500  170.3000 C.3       6 GLY6        0.0000 
    111 CA        285.8100  398.4500  170.3300 C.3       6 GLY6        0.0000 
    112 CA        290.4800  398.6300  166.5700 C.3       6 GLY6        0.0000 
    113 CA        286.7500  398.5300  171.5000 C.3       6 GLY6        0.0000 
    114 CA        288.9200  401.6100  169.5600 C.3       6 GLY6        0.0000 
    115 DU        279.6400  399.5500  167.5100 H         7 CUB7        0.0000 
    116 DU        280.8100  399.5900  166.5700 H         7 CUB7        0.0000 
    117 DU        281.9700  399.6400  165.6300 H         7 CUB7        0.0000 
    118 DU        283.2200  398.1900  164.7200 H         7 CUB7        0.0000 
    119 DU        282.9100  399.7200  166.8000 H         7 CUB7        0.0000 
    120 DU        283.0000  398.2200  166.8300 H         7 CUB7        0.0000 
    121 DU        284.0800  399.7600  165.8600 H         7 CUB7        0.0000 
    122 DU        284.2500  396.7700  165.9200 H         7 CUB7        0.0000 
    123 DU        283.9300  398.3000  168.0000 H         7 CUB7        0.0000 
    124 DU        285.0200  399.8400  167.0200 H         7 CUB7        0.0000 
    125 DU        285.1000  398.3400  167.0600 H         7 CUB7        0.0000 
    126 DU        285.9600  399.9200  168.1900 H         7 CUB7        0.0000 
    127 DU        286.0400  398.4200  168.2200 H         7 CUB7        0.0000 
    128 DU        286.8900  399.9900  169.3600 H         7 CUB7        0.0000 
@<TRIPOS>BOND
@<TRIPOS>SUBSTRUCTURE
     1 SER1        1 GROUP   
     2 ALA2       21 GROUP   
     3 ASP3       66 GROUP   
     4 LYS4       72 GROUP   
     5 PHE5       81 GROUP   
     6 GLY6       87 GROUP   
     7 CUB7      115 GROUP   
@<TRIPOS>SET

