#    Name: 6dpu_2_G2P
#    Modification time : Fri May 22 19:25:13 2020

@<TRIPOS>MOLECULE
6dpu_2_G2P
   32    34     1     0     0
SMALL
NO_CHARGES


@<TRIPOS>ATOM
      1 PG        330.7730  389.6850  257.3850 P.3       1 G2P501      0.0000 
      2 O1G       329.4740  390.3700  257.0420 O.co2     1 G2P501      0.0000 
      3 O2G       330.8270  388.2380  256.9460 O.co2     1 G2P501      0.0000 
      4 O3G       332.0120  390.4740  257.0650 O.co2     1 G2P501      0.0000 
      5 O3B       330.7860  389.6870  258.9940 O.3       1 G2P501      0.0000 
      6 PB        331.0380  388.3560  259.8520 P.3       1 G2P501      0.0000 
      7 O1B       330.9090  388.7200  261.2750 O.co2     1 G2P501      0.0000 
      8 O2B       330.1000  387.2000  259.2400 O.co2     1 G2P501      0.0000 
      9 C3A       332.7570  387.9050  259.5420 C.3       1 G2P501      0.0000 
     10 PA        333.1530  386.2520  260.1490 P.3       1 G2P501      0.0000 
     11 O1A       332.5530  386.1030  261.4910 O.co2     1 G2P501      0.0000 
     12 O2A       332.5350  385.0530  259.2680 O.co2     1 G2P501      0.0000 
     13 O5'       334.7140  386.2370  260.5090 O.3       1 G2P501      0.0000 
     14 C5'       335.7040  385.5370  259.7540 C.3       1 G2P501      0.0000 
     15 C4'       336.8570  385.4610  260.7450 C.3       1 G2P501      0.0000 
     16 O4'       336.4950  384.7020  261.9060 O.3       1 G2P501      0.0000 
     17 C3'       338.0260  384.5630  260.3640 C.3       1 G2P501      0.0000 
     18 O3'       339.2390  384.8020  261.1040 O.3       1 G2P501      0.0000 
     19 C2'       337.4200  383.1750  260.4370 C.3       1 G2P501      0.0000 
     20 O2'       338.5670  382.3790  260.1550 O.3       1 G2P501      0.0000 
     21 C1'       336.9190  383.3190  261.8720 C.3       1 G2P501      0.0000 
     22 N9        335.8030  382.3720  262.1250 N.pl3     1 G2P501      0.0000 
     23 C8        334.6960  382.1610  261.3900 C.2       1 G2P501      0.0000 
     24 N7        333.9090  381.2070  261.9550 N.2       1 G2P501      0.0000 
     25 C5        334.5050  380.8050  263.0800 C.2       1 G2P501      0.0000 
     26 C6        334.2190  379.8390  264.1610 C.2       1 G2P501      0.0000 
     27 O6        333.1880  379.1470  264.1430 O.2       1 G2P501      0.0000 
     28 N1        335.1140  379.7080  265.1480 N.am      1 G2P501      0.0000 
     29 C2        336.2480  380.4350  265.2010 C.2       1 G2P501      0.0000 
     30 N2        337.0960  380.2430  266.2380 N.pl3     1 G2P501      0.0000 
     31 N3        336.5740  381.3410  264.2430 N.2       1 G2P501      0.0000 
     32 C4        335.7590  381.5610  263.1790 C.2       1 G2P501      0.0000 
@<TRIPOS>BOND
     1    1    2 ar   
     2    1    3 ar   
     3    1    4 ar   
     4    1    5 1    
     5    5    6 1    
     6    6    7 ar   
     7    6    8 ar   
     8    6    9 1    
     9    9   10 1    
    10   10   11 ar   
    11   10   12 ar   
    12   10   13 1    
    13   13   14 1    
    14   14   15 1    
    15   15   16 1    
    16   15   17 1    
    17   16   21 1    
    18   17   18 1    
    19   17   19 1    
    20   19   20 1    
    21   19   21 1    
    22   21   22 1    
    23   22   23 1    
    24   22   32 1    
    25   23   24 2    
    26   24   25 1    
    27   25   26 1    
    28   25   32 2    
    29   26   27 2    
    30   26   28 am   
    31   28   29 1    
    32   29   30 1    
    33   29   31 2    
    34   31   32 1    
@<TRIPOS>SUBSTRUCTURE
     1 G2P501      1 GROUP   
@<TRIPOS>SET

