#    Name: 6dpu_8_GTP
#    Modification time : Fri May 22 19:26:26 2020

@<TRIPOS>MOLECULE
6dpu_8_GTP
   32    34     1     0     1
SMALL
NO_CHARGES


@<TRIPOS>ATOM
      1 PG        330.7150  390.2150  215.0710 P.3       1 GTP501      0.0000 
      2 O1G       331.8690  390.9540  214.4390 O.co2     1 GTP501      0.0000 
      3 O2G       329.4240  390.9860  215.0840 O.co2     1 GTP501      0.0000 
      4 O3G       330.4730  388.8200  214.5580 O.co2     1 GTP501      0.0000 
      5 O3B       331.1590  390.1770  216.6160 O.3       1 GTP501      0.0000 
      6 PB        331.0570  388.8750  217.5460 P.3       1 GTP501      0.0000 
      7 O1B       329.9210  387.9550  217.1680 O.co2     1 GTP501      0.0000 
      8 O2B       331.0140  389.3200  218.9850 O.co2     1 GTP501      0.0000 
      9 O3A       332.4380  388.1440  217.1970 O.3       1 GTP501      0.0000 
     10 PA        333.0990  386.9100  217.9670 P.3       1 GTP501      0.0000 
     11 O1A       333.0030  385.7570  216.9990 O.co2     1 GTP501      0.0000 
     12 O2A       332.4780  386.7120  219.3290 O.co2     1 GTP501      0.0000 
     13 O5'       334.5930  387.4700  218.1460 O.3       1 GTP501      0.0000 
     14 C5'       335.7570  386.8100  217.6670 C.3       1 GTP501      0.0000 
     15 C4'       336.6720  386.5600  218.8550 C.3       1 GTP501      0.0000 
     16 O4'       336.0230  385.6870  219.7790 O.3       1 GTP501      0.0000 
     17 C3'       337.9320  385.8410  218.4230 C.3       1 GTP501      0.0000 
     18 O3'       339.0170  386.2280  219.2740 O.3       1 GTP501      0.0000 
     19 C2'       337.5630  384.3920  218.6110 C.3       1 GTP501      0.0000 
     20 O2'       338.7070  383.5590  218.7990 O.3       1 GTP501      0.0000 
     21 C1'       336.7270  384.4510  219.8640 C.3       1 GTP501      0.0000 
     22 N9        335.7260  383.3690  219.9600 N.pl3     1 GTP501      0.0000 
     23 C8        334.6610  383.1550  219.1700 C.2       1 GTP501      0.0000 
     24 N7        333.9360  382.0950  219.6180 N.2       1 GTP501      0.0000 
     25 C5        334.5280  381.6460  220.7300 C.2       1 GTP501      0.0000 
     26 C6        334.3000  380.5740  221.7180 C.2       1 GTP501      0.0000 
     27 O6        333.3350  379.8000  221.6000 O.2       1 GTP501      0.0000 
     28 N1        335.1580  380.4520  222.7420 N.am      1 GTP501      0.0000 
     29 C2        336.2220  381.2550  222.8900 C.2       1 GTP501      0.0000 
     30 N2        337.0380  381.0710  223.9530 N.pl3     1 GTP501      0.0000 
     31 N3        336.4860  382.2680  222.0320 N.2       1 GTP501      0.0000 
     32 C4        335.6930  382.5010  220.9600 C.2       1 GTP501      0.0000 
@<TRIPOS>BOND
     1    1    2 ar   
     2    1    3 ar   
     3    1    4 ar   
     4    1    5 1    
     5    5    6 1    
     6    6    7 ar   
     7    6    8 ar   
     8    6    9 1    
     9    9   10 1    
    10   10   11 ar   
    11   10   12 ar   
    12   10   13 1    
    13   13   14 1    
    14   14   15 1    
    15   15   16 1    
    16   15   17 1    
    17   16   21 1    
    18   17   18 1    
    19   17   19 1    
    20   19   20 1    
    21   19   21 1    
    22   21   22 1    
    23   22   23 1    
    24   22   32 1    
    25   23   24 2    
    26   24   25 1    
    27   25   26 1    
    28   25   32 2    
    29   26   27 2    
    30   26   28 am   
    31   28   29 1    
    32   29   30 1    
    33   29   31 2    
    34   31   32 1    
@<TRIPOS>SUBSTRUCTURE
     1 GTP501      1 GROUP   
@<TRIPOS>SET
ATOM$ORANGE STATIC     ATOMS   COLORGROUP SYSTEM 
20 14 14 15 15 17 17 19 19 21 21 23 23 25 25 26 26 29 \
29 32 32 

