#    Name: 6dpu_9_GTP
#    Modification time : Fri May 22 19:26:42 2020

@<TRIPOS>MOLECULE
6dpu_9_GTP
   32    34     1     0     1
SMALL
NO_CHARGES


@<TRIPOS>ATOM
      1 PG        225.8990  388.1160  197.1060 P.3       1 GTP501      0.0000 
      2 O1G       226.0180  389.4830  196.4810 O.co2     1 GTP501      0.0000 
      3 O2G       224.4900  387.5870  197.1340 O.co2     1 GTP501      0.0000 
      4 O3G       226.8520  387.0710  196.5780 O.co2     1 GTP501      0.0000 
      5 O3B       226.2310  388.4260  198.6470 O.3       1 GTP501      0.0000 
      6 PB        227.2090  387.5180  199.5320 P.3       1 GTP501      0.0000 
      7 O1B       227.2330  386.0580  199.1500 O.co2     1 GTP501      0.0000 
      8 O2B       226.8390  387.7700  200.9720 O.co2     1 GTP501      0.0000 
      9 O3A       228.6370  388.1430  199.1870 O.3       1 GTP501      0.0000 
     10 PA        229.9870  387.8800  199.9990 P.3       1 GTP501      0.0000 
     11 O1A       230.8580  387.0740  199.0660 O.co2     1 GTP501      0.0000 
     12 O2A       229.7130  387.2880  201.3600 O.co2     1 GTP501      0.0000 
     13 O5'       230.4910  389.3940  200.1700 O.3       1 GTP501      0.0000 
     14 C5'       231.7450  389.8820  199.7140 C.3       1 GTP501      0.0000 
     15 C4'       232.5110  390.4230  200.9060 C.3       1 GTP501      0.0000 
     16 O4'       232.7820  389.3690  201.8290 O.3       1 GTP501      0.0000 
     17 C3'       233.8570  390.9510  200.4680 C.3       1 GTP501      0.0000 
     18 O3'       234.2380  392.0380  201.3210 O.3       1 GTP501      0.0000 
     19 C2'       234.7570  389.7560  200.6500 C.3       1 GTP501      0.0000 
     20 O2'       236.1220  390.1260  200.8320 O.3       1 GTP501      0.0000 
     21 C1'       234.1910  389.1430  201.9060 C.3       1 GTP501      0.0000 
     22 N9        234.4310  387.6860  201.9920 N.pl3     1 GTP501      0.0000 
     23 C8        233.9450  386.7120  201.2020 C.2       1 GTP501      0.0000 
     24 N7        234.3460  385.4910  201.6480 N.2       1 GTP501      0.0000 
     25 C5        235.0720  385.6820  202.7570 C.2       1 GTP501      0.0000 
     26 C6        235.7920  384.8450  203.7380 C.2       1 GTP501      0.0000 
     27 O6        235.8220  383.6090  203.6240 O.2       1 GTP501      0.0000 
     28 N1        236.4180  385.4510  204.7560 N.am      1 GTP501      0.0000 
     29 C2        236.4210  386.7850  204.9100 C.2       1 GTP501      0.0000 
     30 N2        237.0740  387.3220  205.9680 N.pl3     1 GTP501      0.0000 
     31 N3        235.7790  387.6130  204.0530 N.2       1 GTP501      0.0000 
     32 C4        235.1030  387.1270  202.9880 C.2       1 GTP501      0.0000 
@<TRIPOS>BOND
     1    1    2 ar   
     2    1    3 ar   
     3    1    4 ar   
     4    1    5 1    
     5    5    6 1    
     6    6    7 ar   
     7    6    8 ar   
     8    6    9 1    
     9    9   10 1    
    10   10   11 ar   
    11   10   12 ar   
    12   10   13 1    
    13   13   14 1    
    14   14   15 1    
    15   15   16 1    
    16   15   17 1    
    17   16   21 1    
    18   17   18 1    
    19   17   19 1    
    20   19   20 1    
    21   19   21 1    
    22   21   22 1    
    23   22   23 1    
    24   22   32 1    
    25   23   24 2    
    26   24   25 1    
    27   25   26 1    
    28   25   32 2    
    29   26   27 2    
    30   26   28 am   
    31   28   29 1    
    32   29   30 1    
    33   29   31 2    
    34   31   32 1    
@<TRIPOS>SUBSTRUCTURE
     1 GTP501      1 GROUP   
@<TRIPOS>SET
ATOM$ORANGE STATIC     ATOMS   COLORGROUP SYSTEM 
20 14 14 15 15 17 17 19 19 21 21 23 23 25 25 26 26 29 \
29 32 32 

