#    Name: 6dpu_3_G2P
#    Modification time : Fri May 22 19:25:29 2020

@<TRIPOS>MOLECULE
6dpu_3_G2P
   32    34     1     0     0
SMALL
NO_CHARGES


@<TRIPOS>ATOM
      1 PG        226.4010  387.8300  239.3870 P.3       1 G2P501      0.0000 
      2 O1G       225.0820  387.2150  238.9970 O.co2     1 G2P501      0.0000 
      3 O2G       227.6060  387.0510  238.9070 O.co2     1 G2P501      0.0000 
      4 O3G       226.4940  389.3090  239.1650 O.co2     1 G2P501      0.0000 
      5 O3B       226.3970  387.7490  240.9900 O.3       1 G2P501      0.0000 
      6 PB        227.6160  387.1150  241.8160 P.3       1 G2P501      0.0000 
      7 O1B       227.2250  387.1490  243.2360 O.co2     1 G2P501      0.0000 
      8 O2B       227.9990  385.7130  241.1230 O.co2     1 G2P501      0.0000 
      9 C3A       228.9960  388.2520  241.6300 C.3       1 G2P501      0.0000 
     10 PA        230.4990  387.4840  242.2610 P.3       1 G2P501      0.0000 
     11 O1A       230.2190  386.8500  243.5660 O.co2     1 G2P501      0.0000 
     12 O2A       231.0470  386.3030  241.3130 O.co2     1 G2P501      0.0000 
     13 O5'       231.5620  388.6450  242.5600 O.3       1 G2P501      0.0000 
     14 C5'       232.7010  388.9770  241.7720 C.3       1 G2P501      0.0000 
     15 C4'       233.4720  389.8520  242.7480 C.3       1 G2P501      0.0000 
     16 O4'       233.8680  389.1630  243.9360 O.3       1 G2P501      0.0000 
     17 C3'       234.8660  390.2400  242.2820 C.3       1 G2P501      0.0000 
     18 O3'       235.4180  391.3830  242.9590 O.3       1 G2P501      0.0000 
     19 C2'       235.6220  388.9310  242.4470 C.3       1 G2P501      0.0000 
     20 O2'       236.9520  389.3340  242.1250 O.3       1 G2P501      0.0000 
     21 C1'       235.2170  388.6550  243.8960 C.3       1 G2P501      0.0000 
     22 N9        235.2620  387.1870  244.1410 N.pl3     1 G2P501      0.0000 
     23 C8        234.7270  386.1850  243.4150 C.2       1 G2P501      0.0000 
     24 N7        234.9890  384.9770  243.9780 N.2       1 G2P501      0.0000 
     25 C5        235.6840  385.1890  245.0970 C.2       1 G2P501      0.0000 
     26 C6        236.2720  384.3580  246.1690 C.2       1 G2P501      0.0000 
     27 O6        236.1780  383.1220  246.1570 O.2       1 G2P501      0.0000 
     28 N1        236.9410  384.9720  247.1490 N.am      1 G2P501      0.0000 
     29 C2        237.0790  386.3120  247.2040 C.2       1 G2P501      0.0000 
     30 N2        237.7700  386.8440  248.2400 N.pl3     1 G2P501      0.0000 
     31 N3        236.5640  387.1380  246.2540 N.2       1 G2P501      0.0000 
     32 C4        235.8730  386.6430  245.1950 C.2       1 G2P501      0.0000 
@<TRIPOS>BOND
     1    1    2 ar   
     2    1    3 ar   
     3    1    4 ar   
     4    1    5 1    
     5    5    6 1    
     6    6    7 ar   
     7    6    8 ar   
     8    6    9 1    
     9    9   10 1    
    10   10   11 ar   
    11   10   12 ar   
    12   10   13 1    
    13   13   14 1    
    14   14   15 1    
    15   15   16 1    
    16   15   17 1    
    17   16   21 1    
    18   17   18 1    
    19   17   19 1    
    20   19   20 1    
    21   19   21 1    
    22   21   22 1    
    23   22   23 1    
    24   22   32 1    
    25   23   24 2    
    26   24   25 1    
    27   25   26 1    
    28   25   32 2    
    29   26   27 2    
    30   26   28 am   
    31   28   29 1    
    32   29   30 1    
    33   29   31 2    
    34   31   32 1    
@<TRIPOS>SUBSTRUCTURE
     1 G2P501      1 GROUP   
@<TRIPOS>SET

