#    Name: 6dpu_12_GTP
#    Modification time : Fri May 22 19:27:30 2020

@<TRIPOS>MOLECULE
6dpu_12_GTP
   32    34     1     0     1
SMALL
NO_CHARGES


@<TRIPOS>ATOM
      1 PG        331.3230  389.9170  299.0830 P.3       1 GTP501      0.0000 
      2 O1G       332.4780  390.6610  298.4580 O.co2     1 GTP501      0.0000 
      3 O2G       330.0160  390.6540  299.0860 O.co2     1 GTP501      0.0000 
      4 O3G       331.1140  388.5230  298.5530 O.co2     1 GTP501      0.0000 
      5 O3B       331.7620  389.8700  300.6270 O.3       1 GTP501      0.0000 
      6 PB        331.6980  388.5560  301.5370 P.3       1 GTP501      0.0000 
      7 O1B       330.5830  387.6260  301.1310 O.co2     1 GTP501      0.0000 
      8 O2B       331.6440  388.9790  302.9800 O.co2     1 GTP501      0.0000 
      9 O3A       333.0770  387.8260  301.1810 O.3       1 GTP501      0.0000 
     10 PA        333.7290  386.5740  301.9380 P.3       1 GTP501      0.0000 
     11 O1A       333.6330  385.4260  300.9620 O.co2     1 GTP501      0.0000 
     12 O2A       333.1080  386.3530  303.2940 O.co2     1 GTP501      0.0000 
     13 O5'       335.2210  387.1390  302.1080 O.3       1 GTP501      0.0000 
     14 C5'       336.3690  386.4700  301.6060 C.3       1 GTP501      0.0000 
     15 C4'       337.2850  386.2000  302.7860 C.3       1 GTP501      0.0000 
     16 O4'       336.6240  385.3340  303.7070 O.3       1 GTP501      0.0000 
     17 C3'       338.5260  385.4580  302.3490 C.3       1 GTP501      0.0000 
     18 O3'       339.6220  385.8210  303.1950 O.3       1 GTP501      0.0000 
     19 C2'       338.1270  384.0140  302.5360 C.3       1 GTP501      0.0000 
     20 O2'       339.2550  383.1630  302.7210 O.3       1 GTP501      0.0000 
     21 C1'       337.3020  384.0850  303.7930 C.3       1 GTP501      0.0000 
     22 N9        336.2990  383.0150  303.9110 N.pl3     1 GTP501      0.0000 
     23 C8        335.2280  382.7960  303.1380 C.2       1 GTP501      0.0000 
     24 N7        334.5010  381.7470  303.6040 N.2       1 GTP501      0.0000 
     25 C5        335.0990  381.3150  304.7160 C.2       1 GTP501      0.0000 
     26 C6        334.8740  380.2610  305.7210 C.2       1 GTP501      0.0000 
     27 O6        333.9020  379.4930  305.6210 O.2       1 GTP501      0.0000 
     28 N1        335.7410  380.1520  306.7370 N.am      1 GTP501      0.0000 
     29 C2        336.8080  380.9570  306.8640 C.2       1 GTP501      0.0000 
     30 N2        337.6370  380.7870  307.9190 N.pl3     1 GTP501      0.0000 
     31 N3        337.0730  381.9510  305.9840 N.2       1 GTP501      0.0000 
     32 C4        336.2700  382.1680  304.9200 C.2       1 GTP501      0.0000 
@<TRIPOS>BOND
     1    1    2 ar   
     2    1    3 ar   
     3    1    4 ar   
     4    1    5 1    
     5    5    6 1    
     6    6    7 ar   
     7    6    8 ar   
     8    6    9 1    
     9    9   10 1    
    10   10   11 ar   
    11   10   12 ar   
    12   10   13 1    
    13   13   14 1    
    14   14   15 1    
    15   15   16 1    
    16   15   17 1    
    17   16   21 1    
    18   17   18 1    
    19   17   19 1    
    20   19   20 1    
    21   19   21 1    
    22   21   22 1    
    23   22   23 1    
    24   22   32 1    
    25   23   24 2    
    26   24   25 1    
    27   25   26 1    
    28   25   32 2    
    29   26   27 2    
    30   26   28 am   
    31   28   29 1    
    32   29   30 1    
    33   29   31 2    
    34   31   32 1    
@<TRIPOS>SUBSTRUCTURE
     1 GTP501      1 GROUP   
@<TRIPOS>SET
ATOM$ORANGE STATIC     ATOMS   COLORGROUP SYSTEM 
20 14 14 15 15 17 17 19 19 21 21 23 23 25 25 26 26 29 \
29 32 32 

