#    Name: 6dpu_1_G2P_CAVITY_N1_12
#    Modification time : Fri May 22 19:24:58 2020

@<TRIPOS>MOLECULE
6dpu_1_G2P_CAVITY_N1_12
  135     0     7     0     0
SMALL
NO_CHARGES


@<TRIPOS>ATOM
      1 OG        284.7500  401.5200  248.0600 O.3       1 SER1        0.0000 
      2 OG        284.8300  400.0200  248.0900 O.3       1 SER1        0.0000 
      3 OG        286.0000  400.0600  247.1500 O.3       1 SER1        0.0000 
      4 OG        281.1000  399.9100  253.0300 O.3       1 SER1        0.0000 
      5 OG        282.2700  399.9600  252.0800 O.3       1 SER1        0.0000 
      6 OG        285.7700  400.1000  249.2600 O.3       1 SER1        0.0000 
      7 OG        286.9400  400.1400  248.3200 O.3       1 SER1        0.0000 
      8 OG        284.3800  400.0800  252.3100 O.3       1 SER1        0.0000 
      9 OG        284.4600  398.5800  252.3400 O.3       1 SER1        0.0000 
     10 OG        286.8800  397.1800  250.4900 O.3       1 SER1        0.0000 
     11 OG        288.0500  397.2200  249.5500 O.3       1 SER1        0.0000 
     12 OG        285.3100  400.1600  253.4800 O.3       1 SER1        0.0000 
     13 OG        285.4000  398.6600  253.5100 O.3       1 SER1        0.0000 
     14 OG        286.6500  397.2100  252.6000 O.3       1 SER1        0.0000 
     15 OG        287.8200  397.2500  251.6600 O.3       1 SER1        0.0000 
     16 OG        290.1500  397.3500  249.7800 O.3       1 SER1        0.0000 
     17 OG        289.9200  397.3800  251.8900 O.3       1 SER1        0.0000 
     18 OG        291.0900  397.4200  250.9400 O.3       1 SER1        0.0000 
     19 N         280.6200  399.7700  247.6400 N.am      2 ALA2        0.0000 
     20 O         279.1400  401.2600  250.6600 O.2       2 ALA2        0.0000 
     21 N         281.5600  399.8500  248.8100 N.am      2 ALA2        0.0000 
     22 N         282.7300  399.9000  247.8700 N.am      2 ALA2        0.0000 
     23 N         282.8100  398.4000  247.9000 N.am      2 ALA2        0.0000 
     24 N         282.9000  396.9000  247.9300 N.am      2 ALA2        0.0000 
     25 N         283.9000  399.9400  246.9300 N.am      2 ALA2        0.0000 
     26 O         280.2500  398.3400  251.8900 O.2       2 ALA2        0.0000 
     27 N         282.6700  396.9300  250.0400 N.am      2 ALA2        0.0000 
     28 N         283.5800  401.4700  249.0000 N.am      2 ALA2        0.0000 
     29 N         283.6700  399.9700  249.0300 N.am      2 ALA2        0.0000 
     30 N         283.8300  396.9800  249.1000 N.am      2 ALA2        0.0000 
     31 N         283.9200  395.4800  249.1300 N.am      2 ALA2        0.0000 
     32 O         281.1900  398.4200  253.0600 O.2       2 ALA2        0.0000 
     33 O         282.1900  401.4600  252.0500 O.2       2 ALA2        0.0000 
     34 O         283.3500  401.5000  251.1100 O.2       2 ALA2        0.0000 
     35 N         283.6100  397.0100  251.2100 N.am      2 ALA2        0.0000 
     36 N         283.6900  395.5100  251.2400 N.am      2 ALA2        0.0000 
     37 O         284.5200  401.5500  250.1700 O.2       2 ALA2        0.0000 
     38 O         284.9400  394.0600  250.3300 O.2       2 ALA2        0.0000 
     39 O         284.2900  401.5800  252.2800 O.2       2 ALA2        0.0000 
     40 N         284.7100  394.0900  252.4400 N.am      2 ALA2        0.0000 
     41 N         285.6500  394.1700  253.6000 N.am      2 ALA2        0.0000 
     42 N         285.4200  394.2000  255.7100 N.am      2 ALA2        0.0000 
     43 N         285.5000  392.7000  255.7400 N.am      2 ALA2        0.0000 
     44 N         286.1700  401.7300  254.6200 N.am      2 ALA2        0.0000 
     45 N         286.4200  397.2400  254.7100 N.am      2 ALA2        0.0000 
     46 N         286.5000  395.7400  254.7400 N.am      2 ALA2        0.0000 
     47 O         287.5000  398.7800  253.7400 O.2       2 ALA2        0.0000 
     48 O         287.5900  397.2900  253.7700 O.2       2 ALA2        0.0000 
     49 O         287.6700  395.7900  253.8000 O.2       2 ALA2        0.0000 
     50 O         288.6700  398.8300  252.8000 O.2       2 ALA2        0.0000 
     51 N         289.7500  400.3700  251.8200 N.am      2 ALA2        0.0000 
     52 O         289.8400  398.8700  251.8500 O.2       2 ALA2        0.0000 
     53 N         291.0100  398.9200  250.9100 N.am      2 ALA2        0.0000 
     54 N         286.2800  395.7700  256.8500 N.am      2 ALA2        0.0000 
     55 N         286.3600  394.2800  256.8800 N.am      2 ALA2        0.0000 
     56 N         287.4400  395.8200  255.9100 N.am      2 ALA2        0.0000 
     57 N         287.5300  394.3200  255.9400 N.am      2 ALA2        0.0000 
     58 N         287.6100  392.8300  255.9700 N.am      2 ALA2        0.0000 
     59 N         288.2800  401.8500  254.8400 N.am      2 ALA2        0.0000 
     60 N         288.3600  400.3600  254.8700 N.am      2 ALA2        0.0000 
     61 O         288.4400  398.8600  254.9000 O.2       2 ALA2        0.0000 
     62 O         289.5300  400.4000  253.9300 O.2       2 ALA2        0.0000 
     63 N         290.6900  400.4500  252.9900 N.am      2 ALA2        0.0000 
     64 N         287.2100  395.8500  258.0200 N.am      2 ALA2        0.0000 
     65 N         287.3000  394.3500  258.0500 N.am      2 ALA2        0.0000 
     66 N         288.4700  394.4000  257.1100 N.am      2 ALA2        0.0000 
     67 N         288.5500  392.9000  257.1400 N.am      2 ALA2        0.0000 
     68 OD1       278.2900  399.6800  249.5200 O.co2     3 ASP3        0.0000 
     69 OD1       279.4600  399.7300  248.5800 O.co2     3 ASP3        0.0000 
     70 OD1       280.7100  398.2800  247.6700 O.co2     3 ASP3        0.0000 
     71 OD1       279.2300  399.7600  250.6900 O.co2     3 ASP3        0.0000 
     72 OD1       279.3100  398.2600  250.7200 O.co2     3 ASP3        0.0000 
     73 OD1       280.3900  399.8100  249.7500 O.co2     3 ASP3        0.0000 
     74 OD1       280.4800  398.3100  249.7800 O.co2     3 ASP3        0.0000 
     75 OD1       281.6400  398.3500  248.8400 O.co2     3 ASP3        0.0000 
     76 NZ        281.8700  398.3200  246.7300 N.4       4 LYS4        0.0000 
     77 NZ        286.0800  398.5700  247.1800 N.4       4 LYS4        0.0000 
     78 NZ        287.0200  398.6400  248.3500 N.4       4 LYS4        0.0000 
     79 NZ        285.4600  401.6200  251.3400 N.4       4 LYS4        0.0000 
     80 NZ        286.6300  401.6700  250.4000 N.4       4 LYS4        0.0000 
     81 NZ        286.7100  400.1700  250.4300 N.4       4 LYS4        0.0000 
     82 NZ        286.4000  401.7000  252.5100 N.4       4 LYS4        0.0000 
     83 NZ        287.6500  400.2500  251.6000 N.4       4 LYS4        0.0000 
     84 NZ        288.8200  400.3000  250.6600 N.4       4 LYS4        0.0000 
     85 NZ        287.3400  401.7800  253.6700 N.4       4 LYS4        0.0000 
     86 NZ        288.5900  400.3300  252.7600 N.4       4 LYS4        0.0000 
     87 CZ        285.7900  395.6300  251.4600 C.ar      5 PHE5        0.0000 
     88 CZ        285.8800  394.1400  251.5000 C.ar      5 PHE5        0.0000 
     89 CZ        285.7300  392.6700  253.6400 C.ar      5 PHE5        0.0000 
     90 CZ        286.7300  395.7100  252.6300 C.ar      5 PHE5        0.0000 
     91 CZ        286.5900  394.2500  254.7700 C.ar      5 PHE5        0.0000 
     92 CZ        286.6700  392.7500  254.8000 C.ar      5 PHE5        0.0000 
     93 CA        280.3100  401.3000  249.7200 C.3       6 GLY6        0.0000 
     94 CA        280.5600  396.8100  249.8100 C.3       6 GLY6        0.0000 
     95 CA        283.9800  398.4400  246.9600 C.3       6 GLY6        0.0000 
     96 CA        284.0600  396.9500  246.9900 C.3       6 GLY6        0.0000 
     97 CA        280.0800  401.3300  251.8300 C.3       6 GLY6        0.0000 
     98 CA        281.3300  399.8800  250.9200 C.3       6 GLY6        0.0000 
     99 CA        281.4200  398.3800  250.9500 C.3       6 GLY6        0.0000 
    100 CA        281.5000  396.8900  250.9800 C.3       6 GLY6        0.0000 
    101 CA        282.5000  399.9300  249.9800 C.3       6 GLY6        0.0000 
    102 CA        284.9200  398.5200  248.1200 C.3       6 GLY6        0.0000 
    103 CA        282.3500  398.4600  252.1200 C.3       6 GLY6        0.0000 
    104 CA        284.7700  397.0600  250.2600 C.3       6 GLY6        0.0000 
    105 CA        284.8600  395.5600  250.3000 C.3       6 GLY6        0.0000 
    106 CA        285.8600  398.6000  249.2900 C.3       6 GLY6        0.0000 
    107 CA        285.9400  397.1000  249.3200 C.3       6 GLY6        0.0000 
    108 CA        284.5400  397.0900  252.3700 C.3       6 GLY6        0.0000 
    109 CA        284.6300  395.5900  252.4000 C.3       6 GLY6        0.0000 
    110 CA        287.8800  400.2200  249.4900 C.3       6 GLY6        0.0000 
    111 CA        287.9600  398.7200  249.5200 C.3       6 GLY6        0.0000 
    112 CA        284.4800  394.1200  254.5400 C.3       6 GLY6        0.0000 
    113 CA        285.2300  401.6600  253.4500 C.3       6 GLY6        0.0000 
    114 CA        285.4800  397.1600  253.5400 C.3       6 GLY6        0.0000 
    115 CA        285.5700  395.6700  253.5700 C.3       6 GLY6        0.0000 
    116 CA        286.3100  403.2000  252.4800 C.3       6 GLY6        0.0000 
    117 CA        288.9000  398.8000  250.6900 C.3       6 GLY6        0.0000 
    118 CA        286.2500  400.2400  254.6500 C.3       6 GLY6        0.0000 
    119 CA        286.3400  398.7400  254.6800 C.3       6 GLY6        0.0000 
    120 CA        287.4200  400.2800  253.7100 C.3       6 GLY6        0.0000 
    121 CA        289.4400  401.9000  253.9000 C.3       6 GLY6        0.0000 
    122 DU        280.1700  399.8400  251.8600 H         7 CUB7        0.0000 
    123 DU        282.5800  398.4300  250.0100 H         7 CUB7        0.0000 
    124 DU        283.7500  398.4800  249.0700 H         7 CUB7        0.0000 
    125 DU        283.4400  400.0000  251.1400 H         7 CUB7        0.0000 
    126 DU        283.5200  398.5100  251.1700 H         7 CUB7        0.0000 
    127 DU        284.6100  400.0500  250.2000 H         7 CUB7        0.0000 
    128 DU        284.6900  398.5500  250.2300 H         7 CUB7        0.0000 
    129 DU        285.5400  400.1300  251.3700 H         7 CUB7        0.0000 
    130 DU        285.6300  398.6300  251.4000 H         7 CUB7        0.0000 
    131 DU        285.7100  397.1300  251.4300 H         7 CUB7        0.0000 
    132 DU        286.7900  398.6800  250.4600 H         7 CUB7        0.0000 
    133 DU        286.4800  400.2000  252.5400 H         7 CUB7        0.0000 
    134 DU        286.5700  398.7100  252.5700 H         7 CUB7        0.0000 
    135 DU        287.7300  398.7500  251.6300 H         7 CUB7        0.0000 
@<TRIPOS>BOND
@<TRIPOS>SUBSTRUCTURE
     1 SER1        1 GROUP   
     2 ALA2       19 GROUP   
     3 ASP3       68 GROUP   
     4 LYS4       76 GROUP   
     5 PHE5       87 GROUP   
     6 GLY6       93 GROUP   
     7 CUB7      122 GROUP   
@<TRIPOS>SET

