#    Name: 6dpu_10_GTP
#    Modification time : Fri May 22 19:26:58 2020

@<TRIPOS>MOLECULE
6dpu_10_GTP
   32    34     1     0     1
SMALL
NO_CHARGES


@<TRIPOS>ATOM
      1 PG        226.5300  388.3430  281.0970 P.3       1 GTP501      0.0000 
      2 O1G       226.6240  389.7140  280.4750 O.co2     1 GTP501      0.0000 
      3 O2G       225.1500  387.7550  281.1120 O.co2     1 GTP501      0.0000 
      4 O3G       227.5280  387.3480  280.5610 O.co2     1 GTP501      0.0000 
      5 O3B       226.8520  388.6510  282.6380 O.3       1 GTP501      0.0000 
      6 PB        227.8740  387.7860  283.5100 P.3       1 GTP501      0.0000 
      7 O1B       227.9580  386.3350  283.1120 O.co2     1 GTP501      0.0000 
      8 O2B       227.4950  388.0200  284.9470 O.co2     1 GTP501      0.0000 
      9 O3A       229.2930  388.4270  283.1590 O.3       1 GTP501      0.0000 
     10 PA        230.6480  388.1770  283.9740 P.3       1 GTP501      0.0000 
     11 O1A       231.5360  387.3690  283.0580 O.co2     1 GTP501      0.0000 
     12 O2A       230.3780  387.5900  285.3360 O.co2     1 GTP501      0.0000 
     13 O5'       231.1350  389.7000  284.1180 O.3       1 GTP501      0.0000 
     14 C5'       232.3950  390.1600  283.6470 C.3       1 GTP501      0.0000 
     15 C4'       233.1750  390.6870  284.8320 C.3       1 GTP501      0.0000 
     16 O4'       233.4240  389.6310  285.7580 O.3       1 GTP501      0.0000 
     17 C3'       234.5310  391.1780  284.3910 C.3       1 GTP501      0.0000 
     18 O3'       234.9370  392.2570  285.2400 O.3       1 GTP501      0.0000 
     19 C2'       235.4020  389.9600  284.5720 C.3       1 GTP501      0.0000 
     20 O2'       236.7720  390.3010  284.7530 O.3       1 GTP501      0.0000 
     21 C1'       234.8240  389.3720  285.8360 C.3       1 GTP501      0.0000 
     22 N9        235.0570  387.9210  285.9420 N.pl3     1 GTP501      0.0000 
     23 C8        234.5750  386.9380  285.1680 C.2       1 GTP501      0.0000 
     24 N7        234.9750  385.7240  285.6330 N.2       1 GTP501      0.0000 
     25 C5        235.6920  385.9320  286.7400 C.2       1 GTP501      0.0000 
     26 C6        236.4050  385.1110  287.7390 C.2       1 GTP501      0.0000 
     27 O6        236.4310  383.8730  287.6440 O.2       1 GTP501      0.0000 
     28 N1        237.0240  385.7330  288.7500 N.am      1 GTP501      0.0000 
     29 C2        237.0300  387.0720  288.8770 C.2       1 GTP501      0.0000 
     30 N2        237.6740  387.6300  289.9290 N.pl3     1 GTP501      0.0000 
     31 N3        236.3890  387.8860  288.0050 N.2       1 GTP501      0.0000 
     32 C4        235.7230  387.3800  286.9460 C.2       1 GTP501      0.0000 
@<TRIPOS>BOND
     1    1    2 ar   
     2    1    3 ar   
     3    1    4 ar   
     4    1    5 1    
     5    5    6 1    
     6    6    7 ar   
     7    6    8 ar   
     8    6    9 1    
     9    9   10 1    
    10   10   11 ar   
    11   10   12 ar   
    12   10   13 1    
    13   13   14 1    
    14   14   15 1    
    15   15   16 1    
    16   15   17 1    
    17   16   21 1    
    18   17   18 1    
    19   17   19 1    
    20   19   20 1    
    21   19   21 1    
    22   21   22 1    
    23   22   23 1    
    24   22   32 1    
    25   23   24 2    
    26   24   25 1    
    27   25   26 1    
    28   25   32 2    
    29   26   27 2    
    30   26   28 am   
    31   28   29 1    
    32   29   30 1    
    33   29   31 2    
    34   31   32 1    
@<TRIPOS>SUBSTRUCTURE
     1 GTP501      1 GROUP   
@<TRIPOS>SET
ATOM$ORANGE STATIC     ATOMS   COLORGROUP SYSTEM 
20 14 14 15 15 17 17 19 19 21 21 23 23 25 25 26 26 29 \
29 32 32 

