#    Name: 6dpu_1_G2P
#    Modification time : Fri May 22 19:24:56 2020

@<TRIPOS>MOLECULE
6dpu_1_G2P
   32    34     1     0     0
SMALL
NO_CHARGES


@<TRIPOS>ATOM
      1 PG        278.3690  400.6920  248.3910 P.3       1 G2P501      0.0000 
      2 O1G       276.8980  400.6700  248.0590 O.co2     1 G2P501      0.0000 
      3 O2G       279.1200  399.4690  247.9130 O.co2     1 G2P501      0.0000 
      4 O3G       278.9900  402.0260  248.1040 O.co2     1 G2P501      0.0000 
      5 O3B       278.3690  400.6630  249.9980 O.3       1 G2P501      0.0000 
      6 PB        279.2100  399.5950  250.8510 P.3       1 G2P501      0.0000 
      7 O1B       278.9190  399.8700  252.2700 O.co2     1 G2P501      0.0000 
      8 O2B       278.9180  398.1350  250.2400 O.co2     1 G2P501      0.0000 
      9 C3A       280.9480  399.9280  250.5200 C.3       1 G2P501      0.0000 
     10 PA        282.0070  398.6190  251.1560 P.3       1 G2P501      0.0000 
     11 O1A       281.5240  398.2670  252.5070 O.co2     1 G2P501      0.0000 
     12 O2A       281.9620  397.2500  250.3100 O.co2     1 G2P501      0.0000 
     13 O5'       283.4240  399.2800  251.5060 O.3       1 G2P501      0.0000 
     14 C5'       284.6240  399.0580  250.7660 C.3       1 G2P501      0.0000 
     15 C4'       285.6940  399.4930  251.7560 C.3       1 G2P501      0.0000 
     16 O4'       285.6970  398.6610  252.9240 O.3       1 G2P501      0.0000 
     17 C3'       287.1330  399.1920  251.3700 C.3       1 G2P501      0.0000 
     18 O3'       288.1260  399.9380  252.1020 O.3       1 G2P501      0.0000 
     19 C2'       287.1890  397.6800  251.4490 C.3       1 G2P501      0.0000 
     20 O2'       288.5670  397.4610  251.1610 O.3       1 G2P501      0.0000 
     21 C1'       286.6830  397.5970  252.8870 C.3       1 G2P501      0.0000 
     22 N9        286.0890  396.2590  253.1470 N.pl3     1 G2P501      0.0000 
     23 C8        285.1750  395.5900  252.4200 C.2       1 G2P501      0.0000 
     24 N7        284.8830  394.3900  252.9870 N.2       1 G2P501      0.0000 
     25 C5        285.6030  394.2810  254.1050 C.2       1 G2P501      0.0000 
     26 C6        285.7720  393.2830  255.1810 C.2       1 G2P501      0.0000 
     27 O6        285.1450  392.2130  255.1720 O.2       1 G2P501      0.0000 
     28 N1        286.6450  393.5490  256.1600 N.am      1 G2P501      0.0000 
     29 C2        287.3540  394.6930  256.2110 C.2       1 G2P501      0.0000 
     30 N2        288.2100  394.8780  257.2420 N.pl3     1 G2P501      0.0000 
     31 N3        287.2480  395.6540  255.2570 N.2       1 G2P501      0.0000 
     32 C4        286.4080  395.5050  254.1990 C.2       1 G2P501      0.0000 
@<TRIPOS>BOND
     1    1    2 ar   
     2    1    3 ar   
     3    1    4 ar   
     4    1    5 1    
     5    5    6 1    
     6    6    7 ar   
     7    6    8 ar   
     8    6    9 1    
     9    9   10 1    
    10   10   11 ar   
    11   10   12 ar   
    12   10   13 1    
    13   13   14 1    
    14   14   15 1    
    15   15   16 1    
    16   15   17 1    
    17   16   21 1    
    18   17   18 1    
    19   17   19 1    
    20   19   20 1    
    21   19   21 1    
    22   21   22 1    
    23   22   23 1    
    24   22   32 1    
    25   23   24 2    
    26   24   25 1    
    27   25   26 1    
    28   25   32 2    
    29   26   27 2    
    30   26   28 am   
    31   28   29 1    
    32   29   30 1    
    33   29   31 2    
    34   31   32 1    
@<TRIPOS>SUBSTRUCTURE
     1 G2P501      1 GROUP   
@<TRIPOS>SET

