#    Name: 6jha_1_NDP
#    Modification time : Fri May 22 19:35:55 2020

@<TRIPOS>MOLECULE
6jha_1_NDP
   48    52     1     0     1
SMALL
NO_CHARGES


@<TRIPOS>ATOM
      1 PA         22.2520   43.1350   -0.8360 P.3       1 NDP301      0.0000 
      2 O1A        21.8650   41.9090   -1.6460 O.co2     1 NDP301      0.0000 
      3 O2A        23.4510   44.0010   -1.1990 O.co2     1 NDP301      0.0000 
      4 O5B        22.5100   42.6120    0.6790 O.3       1 NDP301      0.0000 
      5 C5B        21.5240   41.7440    1.2120 C.3       1 NDP301      0.0000 
      6 C4B        22.0400   41.1510    2.5010 C.3       1 NDP301      0.0000 
      7 O4B        20.9110   40.5040    3.0640 O.3       1 NDP301      0.0000 
      8 C3B        23.0870   40.0730    2.3280 C.3       1 NDP301      0.0000 
      9 O3B        23.8440   40.0260    3.5540 O.3       1 NDP301      0.0000 
     10 C2B        22.2940   38.7840    2.1600 C.3       1 NDP301      0.0000 
     11 O2B        23.0260   37.6330    2.6110 O.3       1 NDP301      0.0000 
     12 C1B        21.1240   39.0830    3.0840 C.3       1 NDP301      0.0000 
     13 N9A        19.8530   38.4150    2.7600 N.pl3     1 NDP301      0.0000 
     14 C8A        19.0500   38.6250    1.6820 C.2       1 NDP301      0.0000 
     15 N7A        17.9400   37.8190    1.7660 N.2       1 NDP301      0.0000 
     16 C5A        18.0360   37.0970    2.9120 C.ar      1 NDP301      0.0000 
     17 C6A        17.2420   36.0530    3.6100 C.ar      1 NDP301      0.0000 
     18 N6A        16.0810   35.6350    3.0620 N.pl3     1 NDP301      0.0000 
     19 N1A        17.6810   35.5690    4.8100 N.ar      1 NDP301      0.0000 
     20 C2A        18.8360   35.9870    5.3380 C.ar      1 NDP301      0.0000 
     21 N3A        19.6230   36.9310    4.7590 N.ar      1 NDP301      0.0000 
     22 C4A        19.2870   37.5080    3.5670 C.ar      1 NDP301      0.0000 
     23 O3         20.8710   43.9730   -0.7360 O.3       1 NDP301      0.0000 
     24 PN         20.8630   45.5320   -0.3080 P.3       1 NDP301      0.0000 
     25 O1N        21.9760   45.6430    0.7910 O.co2     1 NDP301      0.0000 
     26 O2N        20.9800   46.3700   -1.5900 O.co2     1 NDP301      0.0000 
     27 O5D        19.3060   45.6630    0.1030 O.3       1 NDP301      0.0000 
     28 C5D        18.8110   45.5610    1.4370 C.3       1 NDP301      0.0000 
     29 C4D        17.3330   45.9750    1.5050 C.3       1 NDP301      0.0000 
     30 O4D        17.0590   47.2000    0.7890 O.3       1 NDP301      0.0000 
     31 C3D        16.3960   44.9420    0.9180 C.3       1 NDP301      0.0000 
     32 O3D        15.2970   44.8230    1.8270 O.3       1 NDP301      0.0000 
     33 C2D        16.0050   45.5460   -0.4250 C.3       1 NDP301      0.0000 
     34 O2D        14.7800   44.9920   -0.9080 O.3       1 NDP301      0.0000 
     35 C1D        15.9500   47.0410   -0.1040 C.3       1 NDP301      0.0000 
     36 N1N        16.1000   48.0060   -1.2230 N.pl3     1 NDP301      0.0000 
     37 C2N        17.3450   48.3660   -1.5910 C.2       1 NDP301      0.0000 
     38 C3N        17.5840   49.2830   -2.6180 C.2       1 NDP301      0.0000 
     39 C7N        19.0060   49.6400   -2.9470 C.2       1 NDP301      0.0000 
     40 O7N        19.2040   50.6930   -3.5230 O.2       1 NDP301      0.0000 
     41 N7N        20.0360   48.8480   -2.6060 N.am      1 NDP301      0.0000 
     42 C4N        16.4330   49.9350   -3.3730 C.3       1 NDP301      0.0000 
     43 C5N        15.1250   49.4680   -2.8950 C.2       1 NDP301      0.0000 
     44 C6N        15.0170   48.5360   -1.8430 C.2       1 NDP301      0.0000 
     45 P2B        22.7310   36.1260    2.1080 P.3       1 NDP301      0.0000 
     46 O1X        23.8930   35.3210    2.6120 O.co2     1 NDP301      0.0000 
     47 O2X        21.4230   35.7080    2.7890 O.co2     1 NDP301      0.0000 
     48 O3X        22.6860   36.3190    0.6070 O.co2     1 NDP301      0.0000 
@<TRIPOS>BOND
     1    1    2 ar   
     2    1    3 ar   
     3    1    4 1    
     4    1   23 1    
     5    4    5 1    
     6    5    6 1    
     7    6    7 1    
     8    6    8 1    
     9    7   12 1    
    10    8    9 1    
    11    8   10 1    
    12   10   11 1    
    13   10   12 1    
    14   11   45 1    
    15   12   13 1    
    16   13   14 1    
    17   13   22 1    
    18   14   15 2    
    19   15   16 1    
    20   16   17 ar   
    21   16   22 ar   
    22   17   18 1    
    23   17   19 ar   
    24   19   20 ar   
    25   20   21 ar   
    26   21   22 ar   
    27   23   24 1    
    28   24   25 ar   
    29   24   26 ar   
    30   24   27 1    
    31   27   28 1    
    32   28   29 1    
    33   29   30 1    
    34   29   31 1    
    35   30   35 1    
    36   31   32 1    
    37   31   33 1    
    38   33   34 1    
    39   33   35 1    
    40   35   36 1    
    41   36   37 1    
    42   36   44 1    
    43   37   38 2    
    44   38   39 1    
    45   38   42 1    
    46   39   40 2    
    47   39   41 am   
    48   42   43 1    
    49   43   44 2    
    50   45   46 ar   
    51   45   47 ar   
    52   45   48 ar   
@<TRIPOS>SUBSTRUCTURE
     1 NDP301      1 GROUP   
@<TRIPOS>SET
ATOM$ORANGE STATIC     ATOMS   COLORGROUP SYSTEM 
42 5 5 6 6 8 8 10 10 12 12 14 14 16 16 17 17 20 \
20 22 22 28 28 29 29 31 31 33 33 35 35 37 37 38 38 39 \
39 42 42 43 43 44 44 

