#    Name: 6jha_2_NDP_CAVITY_N1_4
#    Modification time : Fri May 22 19:36:00 2020

@<TRIPOS>MOLECULE
6jha_2_NDP_CAVITY_N1_4
   83     0     5     0     0
SMALL
NO_CHARGES


@<TRIPOS>ATOM
      1 OG          0.1300   72.6000   20.5100 O.3       1 SER1        0.0000 
      2 OG         -0.2600   75.3200   14.3900 O.3       1 SER1        0.0000 
      3 OG          0.2800   75.6400   13.0300 O.3       1 SER1        0.0000 
      4 OG          2.5300   73.4900   20.0100 O.3       1 SER1        0.0000 
      5 OG          0.8600   76.9200   13.5600 O.3       1 SER1        0.0000 
      6 OG          4.9200   74.3700   19.5200 O.3       1 SER1        0.0000 
      7 OG          3.6400   75.0900   19.1800 O.3       1 SER1        0.0000 
      8 OG          5.4900   75.6500   20.0500 O.3       1 SER1        0.0000 
      9 N          -0.4800   70.3600   18.0900 N.am      2 ALA2        0.0000 
     10 N          -1.2200   71.4000   16.3900 N.am      2 ALA2        0.0000 
     11 N           3.1900   70.5400   17.9300 N.am      2 ALA2        0.0000 
     12 N           1.3700   70.9300   18.9500 N.am      2 ALA2        0.0000 
     13 N           1.9100   71.2500   17.5900 N.am      2 ALA2        0.0000 
     14 N           2.4500   71.5700   16.2300 N.am      2 ALA2        0.0000 
     15 N           0.1000   71.6400   18.6200 N.am      2 ALA2        0.0000 
     16 N           0.6400   71.9700   17.2600 N.am      2 ALA2        0.0000 
     17 N           1.1700   72.2900   15.8900 N.am      2 ALA2        0.0000 
     18 O           3.2200   71.4900   19.8200 O.2       2 ALA2        0.0000 
     19 O           3.7600   71.8100   18.4600 O.2       2 ALA2        0.0000 
     20 N           1.9500   72.2100   19.4800 N.am      2 ALA2        0.0000 
     21 N           2.8300   74.2100   13.7000 N.am      2 ALA2        0.0000 
     22 N           1.5500   74.9200   13.3600 N.am      2 ALA2        0.0000 
     23 N           3.8000   72.7700   20.3500 N.am      2 ALA2        0.0000 
     24 N           4.6800   74.7700   14.5700 N.am      2 ALA2        0.0000 
     25 O           1.8300   75.4800   20.2100 O.2       2 ALA2        0.0000 
     26 N           6.5700   76.3000   17.3300 N.am      2 ALA2        0.0000 
     27 N           7.1100   76.6200   15.9600 N.am      2 ALA2        0.0000 
     28 N           5.8400   77.3300   15.6300 N.am      2 ALA2        0.0000 
     29 N           7.1500   77.5700   17.8600 N.am      2 ALA2        0.0000 
     30 OD1         3.4100   75.4900   14.2300 O.co2     3 ASP3        0.0000 
     31 OD1         2.1300   76.2000   13.8900 O.co2     3 ASP3        0.0000 
     32 OD1         3.9800   76.7700   14.7600 O.co2     3 ASP3        0.0000 
     33 CA         -1.0200   70.0400   19.4500 C.3       4 GLY6        0.0000 
     34 CA          0.8300   70.6100   20.3200 C.3       4 GLY6        0.0000 
     35 CA          2.9900   71.8900   14.8700 C.3       4 GLY6        0.0000 
     36 CA         -0.4400   71.3200   19.9800 C.3       4 GLY6        0.0000 
     37 CA          1.7100   72.6100   14.5300 C.3       4 GLY6        0.0000 
     38 CA          4.3000   72.1400   17.1000 C.3       4 GLY6        0.0000 
     39 CA          1.4100   71.8900   20.8500 C.3       4 GLY6        0.0000 
     40 CA          3.0300   72.8500   16.7600 C.3       4 GLY6        0.0000 
     41 CA          3.5700   73.1700   15.4000 C.3       4 GLY6        0.0000 
     42 CA          4.3400   73.0900   18.9900 C.3       4 GLY6        0.0000 
     43 CA          4.8800   73.4200   17.6300 C.3       4 GLY6        0.0000 
     44 CA          5.4200   73.7400   16.2600 C.3       4 GLY6        0.0000 
     45 CA          5.9600   74.0600   14.9000 C.3       4 GLY6        0.0000 
     46 CA          1.2500   74.2000   19.6800 C.3       4 GLY6        0.0000 
     47 CA          0.5100   75.2400   17.9800 C.3       4 GLY6        0.0000 
     48 CA          5.4600   74.6900   18.1600 C.3       4 GLY6        0.0000 
     49 CA          6.0000   75.0200   16.7900 C.3       4 GLY6        0.0000 
     50 CA          6.5300   75.3400   15.4300 C.3       4 GLY6        0.0000 
     51 CA          2.3700   75.8000   18.8500 C.3       4 GLY6        0.0000 
     52 CA          2.9100   76.1200   17.4900 C.3       4 GLY6        0.0000 
     53 CA          1.6300   76.8400   17.1500 C.3       4 GLY6        0.0000 
     54 CA          7.3100   75.2600   19.0200 C.3       4 GLY6        0.0000 
     55 CA          7.8500   75.5800   17.6600 C.3       4 GLY6        0.0000 
     56 CA          6.0300   75.9700   18.6900 C.3       4 GLY6        0.0000 
     57 CA          4.2200   76.3700   19.7100 C.3       4 GLY6        0.0000 
     58 CA          4.7600   76.6900   18.3500 C.3       4 GLY6        0.0000 
     59 CA          3.4800   77.4000   18.0200 C.3       4 GLY6        0.0000 
     60 DU         -1.1800   72.3600   18.2800 H         5 CUB7        0.0000 
     61 DU         -0.6400   72.6800   16.9200 H         5 CUB7        0.0000 
     62 DU         -0.1000   73.0000   15.5600 H         5 CUB7        0.0000 
     63 DU          2.4900   72.5300   18.1200 H         5 CUB7        0.0000 
     64 DU          0.6700   72.9200   19.1500 H         5 CUB7        0.0000 
     65 DU          1.2100   73.2400   17.7900 H         5 CUB7        0.0000 
     66 DU          1.7500   73.5700   16.4200 H         5 CUB7        0.0000 
     67 DU          2.2900   73.8900   15.0600 H         5 CUB7        0.0000 
     68 DU         -0.6000   73.6400   18.8100 H         5 CUB7        0.0000 
     69 DU         -0.0600   73.9600   17.4500 H         5 CUB7        0.0000 
     70 DU          1.0200   74.6000   14.7300 H         5 CUB7        0.0000 
     71 DU          3.0600   73.8100   18.6500 H         5 CUB7        0.0000 
     72 DU          3.6000   74.1300   17.2900 H         5 CUB7        0.0000 
     73 DU          4.1400   74.4500   15.9300 H         5 CUB7        0.0000 
     74 DU          1.7900   74.5200   18.3200 H         5 CUB7        0.0000 
     75 DU          2.8700   75.1700   15.5900 H         5 CUB7        0.0000 
     76 DU          1.0500   75.5600   16.6200 H         5 CUB7        0.0000 
     77 DU          0.3200   76.6000   14.9200 H         5 CUB7        0.0000 
     78 DU          4.1800   75.4100   17.8200 H         5 CUB7        0.0000 
     79 DU          4.7200   75.7300   16.4600 H         5 CUB7        0.0000 
     80 DU          5.2600   76.0500   15.1000 H         5 CUB7        0.0000 
     81 DU          3.4400   76.4500   16.1200 H         5 CUB7        0.0000 
     82 DU          5.3000   77.0100   16.9900 H         5 CUB7        0.0000 
     83 DU          6.6100   77.2500   19.2200 H         5 CUB7        0.0000 
@<TRIPOS>BOND
@<TRIPOS>SUBSTRUCTURE
     1 SER1        1 GROUP   
     2 ALA2        9 GROUP   
     3 ASP3       30 GROUP   
     4 GLY6       33 GROUP   
     5 CUB7       60 GROUP   
@<TRIPOS>SET

