#    Name: 6jha_2_NDP
#    Modification time : Fri May 22 19:35:58 2020

@<TRIPOS>MOLECULE
6jha_2_NDP
   48    52     1     0     1
SMALL
NO_CHARGES


@<TRIPOS>ATOM
      1 PA          6.2680   78.9390   20.9820 P.3       1 NDP301      0.0000 
      2 O1A         5.3650   80.1910   20.8410 O.co2     1 NDP301      0.0000 
      3 O2A         6.2410   78.0920   22.2220 O.co2     1 NDP301      0.0000 
      4 O5B         7.7630   79.5230   20.7490 O.3       1 NDP301      0.0000 
      5 C5B         7.9340   80.3860   19.6270 C.3       1 NDP301      0.0000 
      6 C4B         9.3070   81.0510   19.7260 C.3       1 NDP301      0.0000 
      7 O4B         9.5750   81.7110   18.5070 O.3       1 NDP301      0.0000 
      8 C3B         9.4030   82.1150   20.7720 C.3       1 NDP301      0.0000 
      9 O3B        10.8120   82.2550   21.1020 O.3       1 NDP301      0.0000 
     10 C2B         8.9380   83.3630   20.0130 C.3       1 NDP301      0.0000 
     11 O2B         9.4530   84.5250   20.6360 O.3       1 NDP301      0.0000 
     12 C1B         9.5620   83.1460   18.6610 C.3       1 NDP301      0.0000 
     13 N9A         8.8990   83.7210   17.4600 N.pl3     1 NDP301      0.0000 
     14 C8A         7.6580   83.4520   17.0440 C.2       1 NDP301      0.0000 
     15 N7A         7.3980   84.1140   15.9130 N.2       1 NDP301      0.0000 
     16 C5A         8.4920   84.8520   15.6040 C.ar      1 NDP301      0.0000 
     17 C6A         8.8690   85.8210   14.5730 C.ar      1 NDP301      0.0000 
     18 N6A         8.0280   86.1990   13.5630 N.pl3     1 NDP301      0.0000 
     19 N1A        10.0910   86.3450   14.6450 N.ar      1 NDP301      0.0000 
     20 C2A        10.9430   86.0040   15.6060 C.ar      1 NDP301      0.0000 
     21 N3A        10.6600   85.1820   16.6150 N.ar      1 NDP301      0.0000 
     22 C4A         9.4570   84.5830   16.6390 C.ar      1 NDP301      0.0000 
     23 O3          5.9370   78.1540   19.5960 O.3       1 NDP301      0.0000 
     24 PN          6.1960   76.5440   19.3430 P.3       1 NDP301      0.0000 
     25 O1N         7.5840   76.1550   19.8500 O.co2     1 NDP301      0.0000 
     26 O2N         4.9820   75.7680   19.8990 O.co2     1 NDP301      0.0000 
     27 O5D         6.1260   76.5230   17.7370 O.3       1 NDP301      0.0000 
     28 C5D         7.2580   76.4610   16.9030 C.3       1 NDP301      0.0000 
     29 C4D         6.8610   76.1230   15.4750 C.3       1 NDP301      0.0000 
     30 O4D         6.2280   74.8140   15.4750 O.3       1 NDP301      0.0000 
     31 C3D         5.8500   77.0750   14.8670 C.3       1 NDP301      0.0000 
     32 O3D         6.1870   77.2040   13.4790 O.3       1 NDP301      0.0000 
     33 C2D         4.5300   76.3700   15.0210 C.3       1 NDP301      0.0000 
     34 O2D         3.5500   76.7350   14.0450 O.3       1 NDP301      0.0000 
     35 C1D         4.9700   74.9050   14.8370 C.3       1 NDP301      0.0000 
     36 N1N         4.0710   73.9230   15.4870 N.pl3     1 NDP301      0.0000 
     37 C2N         4.1380   73.6270   16.8110 C.2       1 NDP301      0.0000 
     38 C3N         3.2750   72.7080   17.4020 C.2       1 NDP301      0.0000 
     39 C7N         3.3200   72.3180   18.8580 C.2       1 NDP301      0.0000 
     40 O7N         2.7520   71.2920   19.2470 O.2       1 NDP301      0.0000 
     41 N7N         3.9950   73.0650   19.7380 N.am      1 NDP301      0.0000 
     42 C4N         2.2560   71.9850   16.5510 C.3       1 NDP301      0.0000 
     43 C5N         2.2980   72.3920   15.1630 C.2       1 NDP301      0.0000 
     44 C6N         3.1540   73.3530   14.6770 C.2       1 NDP301      0.0000 
     45 P2B         8.7210   85.9630   20.5020 P.3       1 NDP301      0.0000 
     46 O1X         7.2820   85.7810   20.6640 O.co2     1 NDP301      0.0000 
     47 O2X         9.4120   86.8960   21.5050 O.co2     1 NDP301      0.0000 
     48 O3X         9.1500   86.3470   19.1070 O.co2     1 NDP301      0.0000 
@<TRIPOS>BOND
     1    1    2 ar   
     2    1    3 ar   
     3    1    4 1    
     4    1   23 1    
     5    4    5 1    
     6    5    6 1    
     7    6    7 1    
     8    6    8 1    
     9    7   12 1    
    10    8    9 1    
    11    8   10 1    
    12   10   11 1    
    13   10   12 1    
    14   11   45 1    
    15   12   13 1    
    16   13   14 1    
    17   13   22 1    
    18   14   15 2    
    19   15   16 1    
    20   16   17 ar   
    21   16   22 ar   
    22   17   18 1    
    23   17   19 ar   
    24   19   20 ar   
    25   20   21 ar   
    26   21   22 ar   
    27   23   24 1    
    28   24   25 ar   
    29   24   26 ar   
    30   24   27 1    
    31   27   28 1    
    32   28   29 1    
    33   29   30 1    
    34   29   31 1    
    35   30   35 1    
    36   31   32 1    
    37   31   33 1    
    38   33   34 1    
    39   33   35 1    
    40   35   36 1    
    41   36   37 1    
    42   36   44 1    
    43   37   38 2    
    44   38   39 1    
    45   38   42 1    
    46   39   40 2    
    47   39   41 am   
    48   42   43 1    
    49   43   44 2    
    50   45   46 ar   
    51   45   47 ar   
    52   45   48 ar   
@<TRIPOS>SUBSTRUCTURE
     1 NDP301      1 GROUP   
@<TRIPOS>SET
ATOM$ORANGE STATIC     ATOMS   COLORGROUP SYSTEM 
42 5 5 6 6 8 8 10 10 12 12 14 14 16 16 17 17 20 \
20 22 22 28 28 29 29 31 31 33 33 35 35 37 37 38 38 39 \
39 42 42 43 43 44 44 

