#    Name: 6jwp_1_GNP
#    Modification time : Fri May 22 19:33:41 2020

@<TRIPOS>MOLECULE
6jwp_1_GNP
   32    34     1     0     1
SMALL
NO_CHARGES


@<TRIPOS>ATOM
      1 PG         38.1800  110.6430   12.3500 P.3       1 GNP401      0.0000 
      2 O1G        39.5420  110.1310   12.7010 O.co2     1 GNP401      0.0000 
      3 O2G        37.8330  110.1110   10.9810 O.co2     1 GNP401      0.0000 
      4 O3G        37.2050  110.0850   13.3590 O.co2     1 GNP401      0.0000 
      5 N3B        38.1910  112.2770   12.4160 N.3       1 GNP401      0.0000 
      6 PB         38.1120  113.1400   13.8060 P.3       1 GNP401      0.0000 
      7 O1B        36.7540  113.7460   13.9920 O.co2     1 GNP401      0.0000 
      8 O2B        38.6960  112.3270   14.9330 O.co2     1 GNP401      0.0000 
      9 O3A        39.0930  114.3960   13.6420 O.3       1 GNP401      0.0000 
     10 PA         40.5870  114.5200   14.2080 P.3       1 GNP401      0.0000 
     11 O1A        40.5530  115.1620   15.5550 O.co2     1 GNP401      0.0000 
     12 O2A        41.2000  113.1630   14.0990 O.co2     1 GNP401      0.0000 
     13 O5'        41.2980  115.5020   13.1570 O.3       1 GNP401      0.0000 
     14 C5'        40.6280  116.6880   12.6650 C.3       1 GNP401      0.0000 
     15 C4'        41.6630  117.6370   12.1120 C.3       1 GNP401      0.0000 
     16 O4'        41.0460  118.9270   11.8780 O.3       1 GNP401      0.0000 
     17 C3'        42.8760  117.8700   13.0180 C.3       1 GNP401      0.0000 
     18 O3'        44.0700  117.4430   12.3730 O.3       1 GNP401      0.0000 
     19 C2'        42.8940  119.3710   13.3250 C.3       1 GNP401      0.0000 
     20 O2'        44.1010  119.9920   12.9340 O.3       1 GNP401      0.0000 
     21 C1'        41.7010  119.9630   12.5790 C.3       1 GNP401      0.0000 
     22 N9         40.7470  120.6260   13.4720 N.pl3     1 GNP401      0.0000 
     23 C8         40.0220  120.0150   14.4630 C.2       1 GNP401      0.0000 
     24 N7         39.2530  120.8460   15.1280 N.2       1 GNP401      0.0000 
     25 C5         39.4840  122.0900   14.5540 C.2       1 GNP401      0.0000 
     26 C6         38.9350  123.3720   14.8590 C.2       1 GNP401      0.0000 
     27 O6         38.1040  123.6590   15.7310 O.2       1 GNP401      0.0000 
     28 N1         39.4400  124.3780   14.0360 N.am      1 GNP401      0.0000 
     29 C2         40.3610  124.1770   13.0390 C.2       1 GNP401      0.0000 
     30 N2         40.7360  125.2580   12.3390 N.pl3     1 GNP401      0.0000 
     31 N3         40.8780  122.9750   12.7460 N.2       1 GNP401      0.0000 
     32 C4         40.4080  121.9690   13.5310 C.2       1 GNP401      0.0000 
@<TRIPOS>BOND
     1    1    2 ar   
     2    1    3 ar   
     3    1    4 ar   
     4    1    5 1    
     5    5    6 1    
     6    6    7 ar   
     7    6    8 ar   
     8    6    9 1    
     9    9   10 1    
    10   10   11 ar   
    11   10   12 ar   
    12   10   13 1    
    13   13   14 1    
    14   14   15 1    
    15   15   16 1    
    16   15   17 1    
    17   16   21 1    
    18   17   18 1    
    19   17   19 1    
    20   19   20 1    
    21   19   21 1    
    22   21   22 1    
    23   22   23 1    
    24   22   32 1    
    25   23   24 2    
    26   24   25 1    
    27   25   26 1    
    28   25   32 2    
    29   26   27 2    
    30   26   28 am   
    31   28   29 1    
    32   29   30 1    
    33   29   31 2    
    34   31   32 1    
@<TRIPOS>SUBSTRUCTURE
     1 GNP401      1 GROUP   
@<TRIPOS>SET
ATOM$ORANGE STATIC     ATOMS   COLORGROUP SYSTEM 
20 14 14 15 15 17 17 19 19 21 21 23 23 25 25 26 26 29 \
29 32 32 

