#    Name: 6jwp_3_GNP
#    Modification time : Fri May 22 19:33:49 2020

@<TRIPOS>MOLECULE
6jwp_3_GNP
   32    34     1     0     1
SMALL
NO_CHARGES


@<TRIPOS>ATOM
      1 PG         25.4590  133.2040  -12.6490 P.3       1 GNP401      0.0000 
      2 O1G        26.3830  134.3860  -12.8020 O.co2     1 GNP401      0.0000 
      3 O2G        24.5630  133.4770  -11.4690 O.co2     1 GNP401      0.0000 
      4 O3G        24.5760  133.1080  -13.8690 O.co2     1 GNP401      0.0000 
      5 N3B        26.3090  131.8160  -12.4410 N.3       1 GNP401      0.0000 
      6 PB         26.0860  130.4040  -13.2480 P.3       1 GNP401      0.0000 
      7 O1B        25.4160  129.3790  -12.3810 O.co2     1 GNP401      0.0000 
      8 O2B        25.5050  130.6710  -14.6110 O.co2     1 GNP401      0.0000 
      9 O3A        27.5500  129.8370  -13.5710 O.3       1 GNP401      0.0000 
     10 PA         28.3570  130.0080  -14.9470 P.3       1 GNP401      0.0000 
     11 O1A        27.7270  129.1420  -15.9870 O.co2     1 GNP401      0.0000 
     12 O2A        28.4430  131.4730  -15.2250 O.co2     1 GNP401      0.0000 
     13 O5'        29.8230  129.4520  -14.6060 O.3       1 GNP401      0.0000 
     14 C5'        30.0360  128.4400  -13.5940 C.3       1 GNP401      0.0000 
     15 C4'        31.4870  128.0270  -13.6240 C.3       1 GNP401      0.0000 
     16 O4'        31.6120  126.6970  -13.0650 O.3       1 GNP401      0.0000 
     17 C3'        32.1290  128.0000  -15.0160 C.3       1 GNP401      0.0000 
     18 O3'        33.2260  128.9050  -15.0690 O.3       1 GNP401      0.0000 
     19 C2'        32.5680  126.5500  -15.2520 C.3       1 GNP401      0.0000 
     20 O2'        33.9500  126.4240  -15.5080 O.3       1 GNP401      0.0000 
     21 C1'        32.1820  125.7910  -13.9840 C.3       1 GNP401      0.0000 
     22 N9         31.2490  124.6900  -14.2340 N.pl3     1 GNP401      0.0000 
     23 C8         30.0510  124.7920  -14.8940 C.2       1 GNP401      0.0000 
     24 N7         29.4150  123.6470  -14.9980 N.2       1 GNP401      0.0000 
     25 C5         30.2420  122.7190  -14.3780 C.2       1 GNP401      0.0000 
     26 C6         30.0810  121.3120  -14.1840 C.2       1 GNP401      0.0000 
     27 O6         29.1370  120.5920  -14.5390 O.2       1 GNP401      0.0000 
     28 N1         31.1550  120.7420  -13.5050 N.am      1 GNP401      0.0000 
     29 C2         32.2500  121.4410  -13.0640 C.2       1 GNP401      0.0000 
     30 N2         33.1970  120.7420  -12.4250 N.pl3     1 GNP401      0.0000 
     31 N3         32.4080  122.7590  -13.2440 N.2       1 GNP401      0.0000 
     32 C4         31.3790  123.3490  -13.9040 C.2       1 GNP401      0.0000 
@<TRIPOS>BOND
     1    1    2 ar   
     2    1    3 ar   
     3    1    4 ar   
     4    1    5 1    
     5    5    6 1    
     6    6    7 ar   
     7    6    8 ar   
     8    6    9 1    
     9    9   10 1    
    10   10   11 ar   
    11   10   12 ar   
    12   10   13 1    
    13   13   14 1    
    14   14   15 1    
    15   15   16 1    
    16   15   17 1    
    17   16   21 1    
    18   17   18 1    
    19   17   19 1    
    20   19   20 1    
    21   19   21 1    
    22   21   22 1    
    23   22   23 1    
    24   22   32 1    
    25   23   24 2    
    26   24   25 1    
    27   25   26 1    
    28   25   32 2    
    29   26   27 2    
    30   26   28 am   
    31   28   29 1    
    32   29   30 1    
    33   29   31 2    
    34   31   32 1    
@<TRIPOS>SUBSTRUCTURE
     1 GNP401      1 GROUP   
@<TRIPOS>SET
ATOM$ORANGE STATIC     ATOMS   COLORGROUP SYSTEM 
20 14 14 15 15 17 17 19 19 21 21 23 23 25 25 26 26 29 \
29 32 32 

