#    Name: 6jwp_2_GNP
#    Modification time : Fri May 22 19:33:45 2020

@<TRIPOS>MOLECULE
6jwp_2_GNP
   32    34     1     0     1
SMALL
NO_CHARGES


@<TRIPOS>ATOM
      1 PG         58.3110  144.3830    2.2270 P.3       1 GNP401      0.0000 
      2 O1G        57.9070  145.3910    3.2710 O.co2     1 GNP401      0.0000 
      3 O2G        57.4720  144.6170    0.9920 O.co2     1 GNP401      0.0000 
      4 O3G        59.7530  144.6310    1.8530 O.co2     1 GNP401      0.0000 
      5 N3B        58.1070  142.8650    2.8110 N.3       1 GNP401      0.0000 
      6 PB         58.3840  142.4040    4.3600 P.3       1 GNP401      0.0000 
      7 O1B        59.8590  142.3400    4.6110 O.co2     1 GNP401      0.0000 
      8 O2B        57.5280  143.2200    5.2960 O.co2     1 GNP401      0.0000 
      9 O3A        57.9220  140.8850    4.5810 O.3       1 GNP401      0.0000 
     10 PA         56.8320  140.3750    5.6410 P.3       1 GNP401      0.0000 
     11 O1A        57.1460  140.9590    6.9780 O.co2     1 GNP401      0.0000 
     12 O2A        55.4960  140.6800    5.0540 O.co2     1 GNP401      0.0000 
     13 O5'        57.0640  138.7830    5.6700 O.3       1 GNP401      0.0000 
     14 C5'        57.0270  138.0140    4.4370 C.3       1 GNP401      0.0000 
     15 C4'        56.0520  136.8690    4.5810 C.3       1 GNP401      0.0000 
     16 O4'        56.7080  135.7510    5.2320 O.3       1 GNP401      0.0000 
     17 C3'        54.7840  137.1820    5.3850 C.3       1 GNP401      0.0000 
     18 O3'        53.6180  136.9960    4.5910 O.3       1 GNP401      0.0000 
     19 C2'        54.8050  136.2390    6.5920 C.3       1 GNP401      0.0000 
     20 O2'        53.6450  135.4450    6.7120 O.3       1 GNP401      0.0000 
     21 C1'        56.0330  135.3520    6.4050 C.3       1 GNP401      0.0000 
     22 N9         56.9460  135.4180    7.5490 N.pl3     1 GNP401      0.0000 
     23 C8         57.4160  136.5660    8.1350 C.2       1 GNP401      0.0000 
     24 N7         58.2040  136.3430    9.1630 N.2       1 GNP401      0.0000 
     25 C5         58.2570  134.9580    9.2750 C.2       1 GNP401      0.0000 
     26 C6         58.9530  134.1210   10.1980 C.2       1 GNP401      0.0000 
     27 O6         59.6810  134.4590   11.1420 O.2       1 GNP401      0.0000 
     28 N1         58.7310  132.7630    9.9640 N.am      1 GNP401      0.0000 
     29 C2         57.9450  132.2700    8.9560 C.2       1 GNP401      0.0000 
     30 N2         57.8480  130.9350    8.8700 N.pl3     1 GNP401      0.0000 
     31 N3         57.2920  133.0490    8.0840 N.2       1 GNP401      0.0000 
     32 C4         57.4820  134.3780    8.2880 C.2       1 GNP401      0.0000 
@<TRIPOS>BOND
     1    1    2 ar   
     2    1    3 ar   
     3    1    4 ar   
     4    1    5 1    
     5    5    6 1    
     6    6    7 ar   
     7    6    8 ar   
     8    6    9 1    
     9    9   10 1    
    10   10   11 ar   
    11   10   12 ar   
    12   10   13 1    
    13   13   14 1    
    14   14   15 1    
    15   15   16 1    
    16   15   17 1    
    17   16   21 1    
    18   17   18 1    
    19   17   19 1    
    20   19   20 1    
    21   19   21 1    
    22   21   22 1    
    23   22   23 1    
    24   22   32 1    
    25   23   24 2    
    26   24   25 1    
    27   25   26 1    
    28   25   32 2    
    29   26   27 2    
    30   26   28 am   
    31   28   29 1    
    32   29   30 1    
    33   29   31 2    
    34   31   32 1    
@<TRIPOS>SUBSTRUCTURE
     1 GNP401      1 GROUP   
@<TRIPOS>SET
ATOM$ORANGE STATIC     ATOMS   COLORGROUP SYSTEM 
20 14 14 15 15 17 17 19 19 21 21 23 23 25 25 26 26 29 \
29 32 32 

