#    Name: 6ef3_1_ATP
#    Modification time : Fri May 22 19:34:56 2020

@<TRIPOS>MOLECULE
6ef3_1_ATP
   31    33     1     0     1
SMALL
NO_CHARGES


@<TRIPOS>ATOM
      1 PG        164.8750  206.9770  146.6230 P.3       1 ATP501      0.0000 
      2 O1G       164.8200  206.3930  145.2380 O.co2     1 ATP501      0.0000 
      3 O2G       166.1120  206.6320  147.4070 O.co2     1 ATP501      0.0000 
      4 O3G       163.5850  206.8970  147.3920 O.co2     1 ATP501      0.0000 
      5 PB        163.8400  209.2310  145.5390 P.3       1 ATP501      0.0000 
      6 O1B       163.7630  208.6010  144.1780 O.co2     1 ATP501      0.0000 
      7 O2B       162.6530  209.2600  146.4630 O.co2     1 ATP501      0.0000 
      8 O3B       165.0260  208.5380  146.3430 O.3       1 ATP501      0.0000 
      9 PA        163.8200  211.6110  144.1810 P.3       1 ATP501      0.0000 
     10 O1A       163.9560  210.9050  142.8640 O.co2     1 ATP501      0.0000 
     11 O2A       162.4850  212.1540  144.6030 O.co2     1 ATP501      0.0000 
     12 O3A       164.4070  210.7070  145.3520 O.3       1 ATP501      0.0000 
     13 O5'       164.8860  212.7870  144.2050 O.3       1 ATP501      0.0000 
     14 C5'       164.7320  213.7470  145.2180 C.3       1 ATP501      0.0000 
     15 C4'       165.8440  214.7760  145.1040 C.3       1 ATP501      0.0000 
     16 O4'       166.4040  214.7580  143.7950 O.3       1 ATP501      0.0000 
     17 C3'       165.4310  216.2040  145.3890 C.3       1 ATP501      0.0000 
     18 O3'       166.0420  216.6640  146.5950 O.3       1 ATP501      0.0000 
     19 C2'       165.8870  217.0140  144.2070 C.3       1 ATP501      0.0000 
     20 O2'       166.9640  217.8640  144.5780 O.3       1 ATP501      0.0000 
     21 C1'       166.3800  216.0380  143.1670 C.3       1 ATP501      0.0000 
     22 N9        165.4840  215.9360  141.9960 N.pl3     1 ATP501      0.0000 
     23 C8        165.0060  214.7660  141.5340 C.2       1 ATP501      0.0000 
     24 N7        164.2230  214.9660  140.4600 N.2       1 ATP501      0.0000 
     25 C5        164.1940  216.2640  140.2180 C.ar      1 ATP501      0.0000 
     26 C6        163.5380  217.0750  139.2210 C.ar      1 ATP501      0.0000 
     27 N6        162.7820  216.4170  138.3270 N.pl3     1 ATP501      0.0000 
     28 N1        163.7340  218.3940  139.2790 N.ar      1 ATP501      0.0000 
     29 C2        164.5180  218.9380  140.2270 C.ar      1 ATP501      0.0000 
     30 N3        165.1440  218.2380  141.1740 N.ar      1 ATP501      0.0000 
     31 C4        165.0280  216.9090  141.2120 C.ar      1 ATP501      0.0000 
@<TRIPOS>BOND
     1    1    2 ar   
     2    1    3 ar   
     3    1    4 ar   
     4    1    8 1    
     5    5    6 ar   
     6    5    7 ar   
     7    5    8 1    
     8    5   12 1    
     9    9   10 ar   
    10    9   11 ar   
    11    9   12 1    
    12    9   13 1    
    13   13   14 1    
    14   14   15 1    
    15   15   16 1    
    16   15   17 1    
    17   16   21 1    
    18   17   18 1    
    19   17   19 1    
    20   19   20 1    
    21   19   21 1    
    22   21   22 1    
    23   22   23 1    
    24   22   31 1    
    25   23   24 2    
    26   24   25 1    
    27   25   26 ar   
    28   25   31 ar   
    29   26   27 1    
    30   26   28 ar   
    31   28   29 ar   
    32   29   30 ar   
    33   30   31 ar   
@<TRIPOS>SUBSTRUCTURE
     1 ATP501      1 GROUP   
@<TRIPOS>SET
ATOM$ORANGE STATIC     ATOMS   COLORGROUP SYSTEM 
20 14 14 15 15 17 17 19 19 21 21 23 23 25 25 26 26 29 \
29 31 31 

