#    Name: 6ef3_6_ATP
#    Modification time : Fri May 22 19:35:44 2020

@<TRIPOS>MOLECULE
6ef3_6_ATP
   31    33     1     0     1
SMALL
NO_CHARGES


@<TRIPOS>ATOM
      1 PG        142.0680  189.5220  146.8120 P.3       1 ATP501      0.0000 
      2 O1G       142.0050  188.1360  146.2530 O.co2     1 ATP501      0.0000 
      3 O2G       143.4470  190.0860  147.0160 O.co2     1 ATP501      0.0000 
      4 O3G       141.0780  189.7640  147.9190 O.co2     1 ATP501      0.0000 
      5 PB        140.2420  189.6390  144.9130 P.3       1 ATP501      0.0000 
      6 O1B       140.7520  188.5700  143.9880 O.co2     1 ATP501      0.0000 
      7 O2B       139.2580  189.3250  145.9910 O.co2     1 ATP501      0.0000 
      8 O3B       141.4950  190.3460  145.5830 O.3       1 ATP501      0.0000 
      9 PA        138.1270  190.6030  143.5170 P.3       1 ATP501      0.0000 
     10 O1A       138.1280  189.2890  142.8020 O.co2     1 ATP501      0.0000 
     11 O2A       137.1680  190.8500  144.6430 O.co2     1 ATP501      0.0000 
     12 O3A       139.6000  190.8220  144.0700 O.3       1 ATP501      0.0000 
     13 O5'       138.0400  191.7870  142.4470 O.3       1 ATP501      0.0000 
     14 C5'       136.8490  192.5360  142.3720 C.3       1 ATP501      0.0000 
     15 C4'       136.9990  193.7410  141.4760 C.3       1 ATP501      0.0000 
     16 O4'       137.2980  193.3480  140.1460 O.3       1 ATP501      0.0000 
     17 C3'       135.7130  194.5210  141.4310 C.3       1 ATP501      0.0000 
     18 O3'       135.9510  195.9240  141.4380 O.3       1 ATP501      0.0000 
     19 C2'       135.0690  194.1140  140.1450 C.3       1 ATP501      0.0000 
     20 O2'       134.5120  195.2400  139.4780 O.3       1 ATP501      0.0000 
     21 C1'       136.1590  193.4850  139.3050 C.3       1 ATP501      0.0000 
     22 N9        135.8320  192.1310  138.8110 N.pl3     1 ATP501      0.0000 
     23 C8        136.7330  191.1410  138.7050 C.2       1 ATP501      0.0000 
     24 N7        136.1680  190.0160  138.2200 N.2       1 ATP501      0.0000 
     25 C5        134.8860  190.2950  138.0070 C.ar      1 ATP501      0.0000 
     26 C6        133.7470  189.5510  137.5040 C.ar      1 ATP501      0.0000 
     27 N6        133.9360  188.2750  137.1500 N.pl3     1 ATP501      0.0000 
     28 N1        132.5650  190.1720  137.4150 N.ar      1 ATP501      0.0000 
     29 C2        132.4280  191.4500  137.7840 C.ar      1 ATP501      0.0000 
     30 N3        133.4350  192.1920  138.2480 N.ar      1 ATP501      0.0000 
     31 C4        134.6670  191.6800  138.3690 C.ar      1 ATP501      0.0000 
@<TRIPOS>BOND
     1    1    2 ar   
     2    1    3 ar   
     3    1    4 ar   
     4    1    8 1    
     5    5    6 ar   
     6    5    7 ar   
     7    5    8 1    
     8    5   12 1    
     9    9   10 ar   
    10    9   11 ar   
    11    9   12 1    
    12    9   13 1    
    13   13   14 1    
    14   14   15 1    
    15   15   16 1    
    16   15   17 1    
    17   16   21 1    
    18   17   18 1    
    19   17   19 1    
    20   19   20 1    
    21   19   21 1    
    22   21   22 1    
    23   22   23 1    
    24   22   31 1    
    25   23   24 2    
    26   24   25 1    
    27   25   26 ar   
    28   25   31 ar   
    29   26   27 1    
    30   26   28 ar   
    31   28   29 ar   
    32   29   30 ar   
    33   30   31 ar   
@<TRIPOS>SUBSTRUCTURE
     1 ATP501      1 GROUP   
@<TRIPOS>SET
ATOM$ORANGE STATIC     ATOMS   COLORGROUP SYSTEM 
20 14 14 15 15 17 17 19 19 21 21 23 23 25 25 26 26 29 \
29 31 31 

