#    Name: 6ef3_5_ADP
#    Modification time : Fri May 22 19:35:35 2020

@<TRIPOS>MOLECULE
6ef3_5_ADP
   27    29     1     0     1
SMALL
NO_CHARGES


@<TRIPOS>ATOM
      1 PB        144.7160  158.1990  157.4660 P.3       1 ADP501      0.0000 
      2 O1B       145.8230  157.5310  156.7000 O.co2     1 ADP501      0.0000 
      3 O2B       144.4540  157.6180  158.8290 O.co2     1 ADP501      0.0000 
      4 O3B       144.7330  159.7040  157.4190 O.co2     1 ADP501      0.0000 
      5 PA        141.9940  158.2570  157.2500 P.3       1 ADP501      0.0000 
      6 O1A       141.9830  159.7590  157.3770 O.co2     1 ADP501      0.0000 
      7 O2A       141.7210  157.4110  158.4640 O.co2     1 ADP501      0.0000 
      8 O3A       143.4040  157.8020  156.6430 O.3       1 ADP501      0.0000 
      9 O5'       140.9660  157.8140  156.0980 O.3       1 ADP501      0.0000 
     10 C5'       139.6420  157.4450  156.4560 C.3       1 ADP501      0.0000 
     11 C4'       138.6300  157.9350  155.4320 C.3       1 ADP501      0.0000 
     12 O4'       138.9780  157.4260  154.1490 O.3       1 ADP501      0.0000 
     13 C3'       137.2340  157.4390  155.7480 C.3       1 ADP501      0.0000 
     14 O3'       136.2250  158.3840  155.4010 O.3       1 ADP501      0.0000 
     15 C2'       137.0980  156.2100  154.9020 C.3       1 ADP501      0.0000 
     16 O2'       135.7540  155.9990  154.4760 O.3       1 ADP501      0.0000 
     17 C1'       138.0340  156.4430  153.7290 C.3       1 ADP501      0.0000 
     18 N9        138.7740  155.2100  153.3980 N.pl3     1 ADP501      0.0000 
     19 C8        140.0880  155.1560  153.1300 C.2       1 ADP501      0.0000 
     20 N7        140.4710  153.8850  152.8680 N.2       1 ADP501      0.0000 
     21 C5        139.3850  153.1180  152.9690 C.ar      1 ADP501      0.0000 
     22 C6        139.1030  151.6930  152.8130 C.ar      1 ADP501      0.0000 
     23 N6        140.1210  150.8780  152.4980 N.pl3     1 ADP501      0.0000 
     24 N1        137.8360  151.2780  152.9960 N.ar      1 ADP501      0.0000 
     25 C2        136.8530  152.1400  153.3100 C.ar      1 ADP501      0.0000 
     26 N3        137.0420  153.4530  153.4650 N.ar      1 ADP501      0.0000 
     27 C4        138.2640  153.9880  153.3020 C.ar      1 ADP501      0.0000 
@<TRIPOS>BOND
     1    1    2 ar   
     2    1    3 ar   
     3    1    4 ar   
     4    1    8 1    
     5    5    6 ar   
     6    5    7 ar   
     7    5    8 1    
     8    5    9 1    
     9    9   10 1    
    10   10   11 1    
    11   11   12 1    
    12   11   13 1    
    13   12   17 1    
    14   13   14 1    
    15   13   15 1    
    16   15   16 1    
    17   15   17 1    
    18   17   18 1    
    19   18   19 1    
    20   18   27 1    
    21   19   20 2    
    22   20   21 1    
    23   21   22 ar   
    24   21   27 ar   
    25   22   23 1    
    26   22   24 ar   
    27   24   25 ar   
    28   25   26 ar   
    29   26   27 ar   
@<TRIPOS>SUBSTRUCTURE
     1 ADP501      1 GROUP   
@<TRIPOS>SET
ATOM$ORANGE STATIC     ATOMS   COLORGROUP SYSTEM 
20 10 10 11 11 13 13 15 15 17 17 19 19 21 21 22 22 25 \
25 27 27 

