#    Name: 6ef3_2_ATP
#    Modification time : Fri May 22 19:35:07 2020

@<TRIPOS>MOLECULE
6ef3_2_ATP
   31    33     1     0     1
SMALL
NO_CHARGES


@<TRIPOS>ATOM
      1 PG        189.2040  200.7100  157.4140 P.3       1 ATP501      0.0000 
      2 O1G       188.8930  200.2020  156.0310 O.co2     1 ATP501      0.0000 
      3 O2G       188.9550  199.7330  158.5370 O.co2     1 ATP501      0.0000 
      4 O3G       188.7080  202.1050  157.6750 O.co2     1 ATP501      0.0000 
      5 PB        191.4070  201.8290  156.2740 P.3       1 ATP501      0.0000 
      6 O1B       191.2190  201.1820  154.9300 O.co2     1 ATP501      0.0000 
      7 O2B       190.8650  203.1970  156.5620 O.co2     1 ATP501      0.0000 
      8 O3B       190.7950  200.8610  157.3850 O.3       1 ATP501      0.0000 
      9 PA        193.6770  203.2860  156.3770 P.3       1 ATP501      0.0000 
     10 O1A       193.5910  203.7170  154.9460 O.co2     1 ATP501      0.0000 
     11 O2A       193.1710  204.1910  157.4560 O.co2     1 ATP501      0.0000 
     12 O3A       192.9720  201.8710  156.5680 O.3       1 ATP501      0.0000 
     13 O5'       195.1950  203.0040  156.7290 O.3       1 ATP501      0.0000 
     14 C5'       195.7600  203.9220  157.6380 C.3       1 ATP501      0.0000 
     15 C4'       197.2640  203.7790  157.6710 C.3       1 ATP501      0.0000 
     16 O4'       197.8360  204.2500  156.4500 O.3       1 ATP501      0.0000 
     17 C3'       197.8600  204.5910  158.7960 C.3       1 ATP501      0.0000 
     18 O3'       198.5890  203.7690  159.6970 O.3       1 ATP501      0.0000 
     19 C2'       198.8070  205.5500  158.1380 C.3       1 ATP501      0.0000 
     20 O2'       200.0400  205.5540  158.8390 O.3       1 ATP501      0.0000 
     21 C1'       198.9800  205.0570  156.7160 C.3       1 ATP501      0.0000 
     22 N9        199.0930  206.1580  155.7260 N.pl3     1 ATP501      0.0000 
     23 C8        198.5800  206.1590  154.4930 C.2       1 ATP501      0.0000 
     24 N7        198.8720  207.2970  153.8340 N.2       1 ATP501      0.0000 
     25 C5        199.6090  208.0370  154.6550 C.ar      1 ATP501      0.0000 
     26 C6        200.2550  209.3460  154.5990 C.ar      1 ATP501      0.0000 
     27 N6        200.1800  210.1150  153.5060 N.pl3     1 ATP501      0.0000 
     28 N1        200.9330  209.7630  155.6710 N.ar      1 ATP501      0.0000 
     29 C2        201.0320  209.0150  156.7740 C.ar      1 ATP501      0.0000 
     30 N3        200.4630  207.8160  156.8910 N.ar      1 ATP501      0.0000 
     31 C4        199.7630  207.2800  155.8850 C.ar      1 ATP501      0.0000 
@<TRIPOS>BOND
     1    1    2 ar   
     2    1    3 ar   
     3    1    4 ar   
     4    1    8 1    
     5    5    6 ar   
     6    5    7 ar   
     7    5    8 1    
     8    5   12 1    
     9    9   10 ar   
    10    9   11 ar   
    11    9   12 1    
    12    9   13 1    
    13   13   14 1    
    14   14   15 1    
    15   15   16 1    
    16   15   17 1    
    17   16   21 1    
    18   17   18 1    
    19   17   19 1    
    20   19   20 1    
    21   19   21 1    
    22   21   22 1    
    23   22   23 1    
    24   22   31 1    
    25   23   24 2    
    26   24   25 1    
    27   25   26 ar   
    28   25   31 ar   
    29   26   27 1    
    30   26   28 ar   
    31   28   29 ar   
    32   29   30 ar   
    33   30   31 ar   
@<TRIPOS>SUBSTRUCTURE
     1 ATP501      1 GROUP   
@<TRIPOS>SET
ATOM$ORANGE STATIC     ATOMS   COLORGROUP SYSTEM 
20 14 14 15 15 17 17 19 19 21 21 23 23 25 25 26 26 29 \
29 31 31 

