#    Name: 6ef3_3_ATP
#    Modification time : Fri May 22 19:35:18 2020

@<TRIPOS>MOLECULE
6ef3_3_ATP
   31    33     1     0     1
SMALL
NO_CHARGES


@<TRIPOS>ATOM
      1 PG        195.8800  174.6640  163.4480 P.3       1 ATP501      0.0000 
      2 O1G       195.7340  175.0410  161.9940 O.co2     1 ATP501      0.0000 
      3 O2G       196.3510  175.7920  164.3370 O.co2     1 ATP501      0.0000 
      4 O3G       194.7320  173.8590  164.0080 O.co2     1 ATP501      0.0000 
      5 PB        198.0110  173.5560  164.7700 P.3       1 ATP501      0.0000 
      6 O1B       198.8150  174.8210  164.8310 O.co2     1 ATP501      0.0000 
      7 O2B       197.1560  173.1430  165.9350 O.co2     1 ATP501      0.0000 
      8 O3B       197.1040  173.6200  163.4550 O.3       1 ATP501      0.0000 
      9 PA        200.4000  172.5780  165.3710 P.3       1 ATP501      0.0000 
     10 O1A       201.4510  173.1640  164.4800 O.co2     1 ATP501      0.0000 
     11 O2A       200.0360  173.2730  166.6500 O.co2     1 ATP501      0.0000 
     12 O3A       199.0650  172.3910  164.5200 O.3       1 ATP501      0.0000 
     13 O5'       200.7840  171.0970  165.7950 O.3       1 ATP501      0.0000 
     14 C5'       200.9920  170.8920  167.1740 C.3       1 ATP501      0.0000 
     15 C4'       201.5110  169.4890  167.4010 C.3       1 ATP501      0.0000 
     16 O4'       202.8060  169.3700  166.8230 O.3       1 ATP501      0.0000 
     17 C3'       201.6480  169.1480  168.8650 C.3       1 ATP501      0.0000 
     18 O3'       201.0100  167.8990  169.1230 O.3       1 ATP501      0.0000 
     19 C2'       203.1230  169.1070  169.1320 C.3       1 ATP501      0.0000 
     20 O2'       203.4860  168.0830  170.0560 O.3       1 ATP501      0.0000 
     21 C1'       203.7560  168.9030  167.7730 C.3       1 ATP501      0.0000 
     22 N9        204.9920  169.6840  167.5930 N.pl3     1 ATP501      0.0000 
     23 C8        205.3680  170.2210  166.4310 C.2       1 ATP501      0.0000 
     24 N7        206.5410  170.8730  166.5520 N.2       1 ATP501      0.0000 
     25 C5        206.9200  170.7360  167.8170 C.ar      1 ATP501      0.0000 
     26 C6        208.0560  171.1620  168.6080 C.ar      1 ATP501      0.0000 
     27 N6        208.9890  171.8840  168.0040 N.pl3     1 ATP501      0.0000 
     28 N1        208.1230  170.8390  169.9020 N.ar      1 ATP501      0.0000 
     29 C2        207.1580  170.1110  170.4680 C.ar      1 ATP501      0.0000 
     30 N3        206.0840  169.6800  169.8000 N.ar      1 ATP501      0.0000 
     31 C4        205.9190  169.9440  168.4950 C.ar      1 ATP501      0.0000 
@<TRIPOS>BOND
     1    1    2 ar   
     2    1    3 ar   
     3    1    4 ar   
     4    1    8 1    
     5    5    6 ar   
     6    5    7 ar   
     7    5    8 1    
     8    5   12 1    
     9    9   10 ar   
    10    9   11 ar   
    11    9   12 1    
    12    9   13 1    
    13   13   14 1    
    14   14   15 1    
    15   15   16 1    
    16   15   17 1    
    17   16   21 1    
    18   17   18 1    
    19   17   19 1    
    20   19   20 1    
    21   19   21 1    
    22   21   22 1    
    23   22   23 1    
    24   22   31 1    
    25   23   24 2    
    26   24   25 1    
    27   25   26 ar   
    28   25   31 ar   
    29   26   27 1    
    30   26   28 ar   
    31   28   29 ar   
    32   29   30 ar   
    33   30   31 ar   
@<TRIPOS>SUBSTRUCTURE
     1 ATP501      1 GROUP   
@<TRIPOS>SET
ATOM$ORANGE STATIC     ATOMS   COLORGROUP SYSTEM 
20 14 14 15 15 17 17 19 19 21 21 23 23 25 25 26 26 29 \
29 31 31 

