#    Name: 6ef3_4_ADP
#    Modification time : Fri May 22 19:35:24 2020

@<TRIPOS>MOLECULE
6ef3_4_ADP
   27    29     1     0     1
SMALL
NO_CHARGES


@<TRIPOS>ATOM
      1 PB        177.0660  149.2350  161.1130 P.3       1 ADP501      0.0000 
      2 O1B       177.1290  149.4010  159.6190 O.co2     1 ADP501      0.0000 
      3 O2B       178.3900  149.0050  161.7890 O.co2     1 ADP501      0.0000 
      4 O3B       176.1870  150.2400  161.8030 O.co2     1 ADP501      0.0000 
      5 PA        176.0120  147.4450  162.8640 P.3       1 ADP501      0.0000 
      6 O1A       175.0710  148.4620  163.4360 O.co2     1 ADP501      0.0000 
      7 O2A       177.3340  147.1800  163.5270 O.co2     1 ADP501      0.0000 
      8 O3A       176.2980  147.8480  161.3450 O.3       1 ADP501      0.0000 
      9 O5'       175.1840  146.0810  162.8100 O.3       1 ADP501      0.0000 
     10 C5'       174.5800  145.7030  164.0360 C.3       1 ADP501      0.0000 
     11 C4'       173.8450  144.3750  163.9360 C.3       1 ADP501      0.0000 
     12 O4'       174.6420  143.3910  163.2790 O.3       1 ADP501      0.0000 
     13 C3'       173.4830  143.8160  165.2970 C.3       1 ADP501      0.0000 
     14 O3'       172.0800  143.5770  165.3810 O.3       1 ADP501      0.0000 
     15 C2'       174.2360  142.5170  165.4170 C.3       1 ADP501      0.0000 
     16 O2'       173.4320  141.4810  165.9710 O.3       1 ADP501      0.0000 
     17 C1'       174.6350  142.1610  164.0020 C.3       1 ADP501      0.0000 
     18 N9        175.9780  141.5500  163.9400 N.pl3     1 ADP501      0.0000 
     19 C8        176.8580  141.7970  162.9680 C.2       1 ADP501      0.0000 
     20 N7        177.9970  141.0990  163.1490 N.2       1 ADP501      0.0000 
     21 C5        177.8460  140.3970  164.2690 C.ar      1 ADP501      0.0000 
     22 C6        178.6780  139.4660  165.0210 C.ar      1 ADP501      0.0000 
     23 N6        179.9080  139.1730  164.5750 N.pl3     1 ADP501      0.0000 
     24 N1        178.1680  138.9410  166.1420 N.ar      1 ADP501      0.0000 
     25 C2        176.9330  139.2520  166.5660 C.ar      1 ADP501      0.0000 
     26 N3        176.1200  140.0970  165.9230 N.ar      1 ADP501      0.0000 
     27 C4        176.5150  140.6840  164.7840 C.ar      1 ADP501      0.0000 
@<TRIPOS>BOND
     1    1    2 ar   
     2    1    3 ar   
     3    1    4 ar   
     4    1    8 1    
     5    5    6 ar   
     6    5    7 ar   
     7    5    8 1    
     8    5    9 1    
     9    9   10 1    
    10   10   11 1    
    11   11   12 1    
    12   11   13 1    
    13   12   17 1    
    14   13   14 1    
    15   13   15 1    
    16   15   16 1    
    17   15   17 1    
    18   17   18 1    
    19   18   19 1    
    20   18   27 1    
    21   19   20 2    
    22   20   21 1    
    23   21   22 ar   
    24   21   27 ar   
    25   22   23 1    
    26   22   24 ar   
    27   24   25 ar   
    28   25   26 ar   
    29   26   27 ar   
@<TRIPOS>SUBSTRUCTURE
     1 ADP501      1 GROUP   
@<TRIPOS>SET
ATOM$ORANGE STATIC     ATOMS   COLORGROUP SYSTEM 
20 10 10 11 11 13 13 15 15 17 17 19 19 21 21 22 22 25 \
25 27 27 

