#    Name: 6mfd_2_CO6
#    Modification time : Fri May 22 19:38:12 2020

@<TRIPOS>MOLECULE
6mfd_2_CO6
   53    55     1     0     0
SMALL
NO_CHARGES


@<TRIPOS>ATOM
      1 N1A        13.6240   17.0340  -31.5960 N.ar      1 CO6801      0.0000 
      2 C2A        14.9120   16.8520  -31.2310 C.ar      1 CO6801      0.0000 
      3 N3A        15.3440   15.6150  -30.8660 N.ar      1 CO6801      0.0000 
      4 C4A        14.4860   14.5640  -30.8650 C.ar      1 CO6801      0.0000 
      5 C5A        13.2070   14.7350  -31.2250 C.ar      1 CO6801      0.0000 
      6 C6A        12.7750   15.9950  -31.5960 C.ar      1 CO6801      0.0000 
      7 N6A        11.5000   16.6200  -32.0490 N.pl3     1 CO6801      0.0000 
      8 N7A        12.5840   13.5280  -31.1330 N.2       1 CO6801      0.0000 
      9 C8A        13.4870   12.6180  -30.7160 C.2       1 CO6801      0.0000 
     10 N9A        14.6590   13.2590  -30.5490 N.pl3     1 CO6801      0.0000 
     11 C1B        15.7850   12.6470  -30.1400 C.3       1 CO6801      0.0000 
     12 C2B        15.8130   12.3970  -28.6180 C.3       1 CO6801      0.0000 
     13 O2B        16.0130   13.6680  -27.8660 O.3       1 CO6801      0.0000 
     14 C3B        16.8890   11.6430  -28.5460 C.3       1 CO6801      0.0000 
     15 O3B        18.0440   12.5280  -28.6790 O.3       1 CO6801      0.0000 
     16 P3B        19.6150   12.0050  -28.3140 P.3       1 CO6801      0.0000 
     17 O7A        19.9020   12.2430  -26.8420 O.co2     1 CO6801      0.0000 
     18 O8A        20.6020   12.7930  -29.1510 O.co2     1 CO6801      0.0000 
     19 O9A        19.7630   10.5370  -28.6290 O.co2     1 CO6801      0.0000 
     20 C4B        16.7920   10.6600  -29.8460 C.3       1 CO6801      0.0000 
     21 O4B        15.9140   11.1960  -30.6740 O.3       1 CO6801      0.0000 
     22 C5B        16.3790    9.2650  -29.4560 C.3       1 CO6801      0.0000 
     23 O5B        15.2310    9.2840  -28.6090 O.3       1 CO6801      0.0000 
     24 P1A        15.1390    8.1800  -27.3800 P.3       1 CO6801      0.0000 
     25 O1A        13.8350    7.4380  -27.4810 O.co2     1 CO6801      0.0000 
     26 O2A        15.2050    8.8910  -26.0640 O.co2     1 CO6801      0.0000 
     27 O3A        16.3960    7.1000  -27.4860 O.3       1 CO6801      0.0000 
     28 P2A        17.8450    7.2240  -26.7120 P.3       1 CO6801      0.0000 
     29 O4A        18.7260    8.1880  -27.4580 O.co2     1 CO6801      0.0000 
     30 O5A        18.4930    5.8740  -26.7190 O.co2     1 CO6801      0.0000 
     31 O6A        17.6560    7.7370  -25.1540 O.3       1 CO6801      0.0000 
     32 CBP        19.1030    8.8470  -23.4730 C.3       1 CO6801      0.0000 
     33 CCP        18.2270    8.9880  -24.7660 C.3       1 CO6801      0.0000 
     34 CDP        19.1340   10.1790  -22.7540 C.3       1 CO6801      0.0000 
     35 CEP        18.4680    7.8280  -22.5440 C.3       1 CO6801      0.0000 
     36 CAP        20.5190    8.3720  -23.8570 C.3       1 CO6801      0.0000 
     37 OAP        20.6220    8.3200  -25.2260 O.3       1 CO6801      0.0000 
     38 C9P        21.6440    9.2810  -23.3120 C.2       1 CO6801      0.0000 
     39 O9P        21.9920   10.2270  -23.9200 O.2       1 CO6801      0.0000 
     40 N8P        22.3060    8.9550  -22.0470 N.am      1 CO6801      0.0000 
     41 C7P        23.3940    9.8280  -21.5340 C.3       1 CO6801      0.0000 
     42 C6P        23.2540    9.9540  -20.0220 C.3       1 CO6801      0.0000 
     43 C5P        22.0660   10.8910  -19.7200 C.2       1 CO6801      0.0000 
     44 O5P        22.2500   12.0610  -19.6310 O.2       1 CO6801      0.0000 
     45 N4P        20.7240   10.3360  -19.5510 N.am      1 CO6801      0.0000 
     46 C3P        19.5790   11.2180  -19.2690 C.3       1 CO6801      0.0000 
     47 C2P        19.6920   11.7840  -17.8230 C.3       1 CO6801      0.0000 
     48 S1P        19.0140   10.5300  -16.6320 S.3       1 CO6801      0.0000 
     49 O1         16.8700   11.9100  -15.9620 O.2       1 CO6801      0.0000 
     50 C1         17.8270   11.3860  -15.5140 C.2       1 CO6801      0.0000 
     51 C2         16.7820   11.0200  -13.2550 C.3       1 CO6801      0.0000 
     52 C3         18.0900   11.4120  -13.9800 C.3       1 CO6801      0.0000 
     53 C4         19.2150   10.3710  -13.6240 C.3       1 CO6801      0.0000 
@<TRIPOS>BOND
     1    1    2 ar   
     2    1    6 ar   
     3    2    3 ar   
     4    3    4 ar   
     5    4    5 ar   
     6    4   10 1    
     7    5    6 ar   
     8    5    8 1    
     9    6    7 1    
    10    8    9 2    
    11    9   10 1    
    12   10   11 1    
    13   11   12 1    
    14   11   21 1    
    15   12   13 1    
    16   12   14 1    
    17   14   15 1    
    18   14   20 1    
    19   15   16 1    
    20   16   17 ar   
    21   16   18 ar   
    22   16   19 ar   
    23   20   21 1    
    24   20   22 1    
    25   22   23 1    
    26   23   24 1    
    27   24   25 ar   
    28   24   26 ar   
    29   24   27 1    
    30   27   28 1    
    31   28   29 ar   
    32   28   30 ar   
    33   28   31 1    
    34   31   33 1    
    35   32   33 1    
    36   32   34 1    
    37   32   35 1    
    38   32   36 1    
    39   36   37 1    
    40   36   38 1    
    41   38   39 2    
    42   38   40 am   
    43   40   41 1    
    44   41   42 1    
    45   42   43 1    
    46   43   44 2    
    47   43   45 am   
    48   45   46 1    
    49   46   47 1    
    50   47   48 1    
    51   48   50 1    
    52   49   50 2    
    53   50   52 1    
    54   51   52 1    
    55   52   53 1    
@<TRIPOS>SUBSTRUCTURE
     1 CO6801      1 GROUP   
@<TRIPOS>SET

