#    Name: 6mfd_1_CO6
#    Modification time : Fri May 22 19:38:09 2020

@<TRIPOS>MOLECULE
6mfd_1_CO6
   53    55     1     0     0
SMALL
NO_CHARGES


@<TRIPOS>ATOM
      1 N1A        18.2060  -32.8960  -25.1980 N.ar      1 CO6801      0.0000 
      2 C2A        19.4810  -32.7020  -24.8000 C.ar      1 CO6801      0.0000 
      3 N3A        20.1900  -33.7300  -24.2610 N.ar      1 CO6801      0.0000 
      4 C4A        19.6340  -34.9630  -24.1120 C.ar      1 CO6801      0.0000 
      5 C5A        18.3640  -35.1520  -24.5100 C.ar      1 CO6801      0.0000 
      6 C6A        17.6470  -34.1060  -25.0570 C.ar      1 CO6801      0.0000 
      7 N6A        16.2750  -33.9010  -25.6010 N.pl3     1 CO6801      0.0000 
      8 N7A        18.0270  -36.4440  -24.2670 N.2       1 CO6801      0.0000 
      9 C8A        19.0930  -37.0510  -23.7190 C.2       1 CO6801      0.0000 
     10 N9A        20.0910  -36.1510  -23.6150 N.pl3     1 CO6801      0.0000 
     11 C1B        21.2750  -36.5450  -23.0870 C.3       1 CO6801      0.0000 
     12 C2B        22.1930  -35.3970  -22.5990 C.3       1 CO6801      0.0000 
     13 O2B        23.0530  -34.9110  -23.7170 O.3       1 CO6801      0.0000 
     14 C3B        22.9350  -35.9620  -21.6660 C.3       1 CO6801      0.0000 
     15 O3B        24.1030  -36.5910  -22.2810 O.3       1 CO6801      0.0000 
     16 P3B        25.0550  -37.6820  -21.3930 P.3       1 CO6801      0.0000 
     17 O7A        25.0490  -37.2970  -19.9240 O.co2     1 CO6801      0.0000 
     18 O8A        24.5090  -39.0870  -21.5510 O.co2     1 CO6801      0.0000 
     19 O9A        26.4730  -37.6390  -21.9060 O.co2     1 CO6801      0.0000 
     20 C4B        21.9880  -37.0830  -20.9590 C.3       1 CO6801      0.0000 
     21 O4B        21.0060  -37.3660  -21.7920 O.3       1 CO6801      0.0000 
     22 C5B        21.4480  -36.5800  -19.6430 C.3       1 CO6801      0.0000 
     23 O5B        20.6560  -35.4030  -19.8160 O.3       1 CO6801      0.0000 
     24 P1A        20.6960  -34.2270  -18.6490 P.3       1 CO6801      0.0000 
     25 O1A        20.1820  -34.7840  -17.3500 O.co2     1 CO6801      0.0000 
     26 O2A        19.8230  -33.0860  -19.0690 O.co2     1 CO6801      0.0000 
     27 O3A        22.2540  -33.6870  -18.4430 O.3       1 CO6801      0.0000 
     28 P2A        23.2550  -34.1790  -17.2320 P.3       1 CO6801      0.0000 
     29 O4A        22.5850  -33.9450  -15.9060 O.co2     1 CO6801      0.0000 
     30 O5A        23.5570  -35.6390  -17.3850 O.co2     1 CO6801      0.0000 
     31 O6A        24.6640  -33.3300  -17.2960 O.3       1 CO6801      0.0000 
     32 CBP        26.8340  -33.0510  -18.3990 C.3       1 CO6801      0.0000 
     33 CCP        25.2780  -33.1150  -18.5630 C.3       1 CO6801      0.0000 
     34 CDP        27.4650  -33.0170  -19.7740 C.3       1 CO6801      0.0000 
     35 CEP        27.2000  -31.7830  -17.6470 C.3       1 CO6801      0.0000 
     36 CAP        27.3170  -34.2740  -17.6010 C.3       1 CO6801      0.0000 
     37 OAP        26.7990  -35.4200  -18.1550 O.3       1 CO6801      0.0000 
     38 C9P        28.8590  -34.3690  -17.5610 C.2       1 CO6801      0.0000 
     39 O9P        29.4340  -33.8920  -16.6530 O.2       1 CO6801      0.0000 
     40 N8P        29.5870  -35.0650  -18.6340 N.am      1 CO6801      0.0000 
     41 C7P        31.0700  -35.2220  -18.6740 C.3       1 CO6801      0.0000 
     42 C6P        31.8150  -33.8990  -18.5150 C.3       1 CO6801      0.0000 
     43 C5P        31.6250  -32.9950  -19.7520 C.2       1 CO6801      0.0000 
     44 O5P        32.2590  -33.1900  -20.7390 O.2       1 CO6801      0.0000 
     45 N4P        30.6700  -31.8920  -19.6990 N.am      1 CO6801      0.0000 
     46 C3P        30.4890  -31.0170  -20.8680 C.3       1 CO6801      0.0000 
     47 C2P        31.2700  -29.6950  -20.6060 C.3       1 CO6801      0.0000 
     48 S1P        30.9370  -28.4700  -21.9660 S.3       1 CO6801      0.0000 
     49 O1         32.0850  -26.1290  -22.4060 O.2       1 CO6801      0.0000 
     50 C1         32.2960  -27.2200  -22.0070 C.2       1 CO6801      0.0000 
     51 C2         34.3040  -28.7300  -22.4100 C.3       1 CO6801      0.0000 
     52 C3         33.7260  -27.6040  -21.5160 C.3       1 CO6801      0.0000 
     53 C4         34.6620  -26.3420  -21.5900 C.3       1 CO6801      0.0000 
@<TRIPOS>BOND
     1    1    2 ar   
     2    1    6 ar   
     3    2    3 ar   
     4    3    4 ar   
     5    4    5 ar   
     6    4   10 1    
     7    5    6 ar   
     8    5    8 1    
     9    6    7 1    
    10    8    9 2    
    11    9   10 1    
    12   10   11 1    
    13   11   12 1    
    14   11   21 1    
    15   12   13 1    
    16   12   14 1    
    17   14   15 1    
    18   14   20 1    
    19   15   16 1    
    20   16   17 ar   
    21   16   18 ar   
    22   16   19 ar   
    23   20   21 1    
    24   20   22 1    
    25   22   23 1    
    26   23   24 1    
    27   24   25 ar   
    28   24   26 ar   
    29   24   27 1    
    30   27   28 1    
    31   28   29 ar   
    32   28   30 ar   
    33   28   31 1    
    34   31   33 1    
    35   32   33 1    
    36   32   34 1    
    37   32   35 1    
    38   32   36 1    
    39   36   37 1    
    40   36   38 1    
    41   38   39 2    
    42   38   40 am   
    43   40   41 1    
    44   41   42 1    
    45   42   43 1    
    46   43   44 2    
    47   43   45 am   
    48   45   46 1    
    49   46   47 1    
    50   47   48 1    
    51   48   50 1    
    52   49   50 2    
    53   50   52 1    
    54   51   52 1    
    55   52   53 1    
@<TRIPOS>SUBSTRUCTURE
     1 CO6801      1 GROUP   
@<TRIPOS>SET

