#    Name: 6mcj_1_45D
#    Modification time : Fri May 22 19:24:27 2020

@<TRIPOS>MOLECULE
6mcj_1_45D
   94    95     1     0     0
SMALL
NO_CHARGES


@<TRIPOS>ATOM
      1 O01        -1.4240   -4.0130   29.6040           1 45D201      0.0000 
      2 O02        12.4850    7.0550    7.3330           1 45D201      0.0000 
      3 C03        -0.4520   -0.3620   28.0070           1 45D201      0.0000 
      4 C04        13.0140    9.2420   10.7840           1 45D201      0.0000 
      5 C05        -1.2860   -0.6840   29.2790           1 45D201      0.0000 
      6 C06        13.9380    9.3190    9.5660           1 45D201      0.0000 
      7 C07         0.0090   -1.6860   27.3410           1 45D201      0.0000 
      8 C08        11.6250    8.9340   10.2800           1 45D201      0.0000 
      9 C09        -0.6830   -1.8150   30.0430           1 45D201      0.0000 
     10 C10        14.0080    7.9850    8.8800           1 45D201      0.0000 
     11 C11         0.7030    0.5590   28.3690           1 45D201      0.0000 
     12 C12        -1.3180    0.5050   27.0960           1 45D201      0.0000 
     13 C13        13.5260    8.2770   11.8350           1 45D201      0.0000 
     14 C14        13.0550   10.5850   11.5120           1 45D201      0.0000 
     15 C15        -0.3930   -2.8850   27.8250           1 45D201      0.0000 
     16 C16        11.4780    8.1050    9.2140           1 45D201      0.0000 
     17 C17        -0.8790   -3.0030   29.1860           1 45D201      0.0000 
     18 C18        12.6340    7.6550    8.3990           1 45D201      0.0000 
     19 C19         1.0750   -1.6530   26.3640           1 45D201      0.0000 
     20 C20        10.5110    9.1570   11.1890           1 45D201      0.0000 
     21 C21        -0.1010   -4.1630   27.1600           1 45D201      0.0000 
     22 C22        10.2000    7.3870    8.9120           1 45D201      0.0000 
     23 C23         1.2790   -0.7160   25.4360           1 45D201      0.0000 
     24 C24         9.8500    8.2280   11.8930           1 45D201      0.0000 
     25 C25         2.3350   -0.6590   24.4680           1 45D201      0.0000 
     26 C26         8.7600    8.3770   12.8230           1 45D201      0.0000 
     27 C27         3.0490   -1.9470   24.2190           1 45D201      0.0000 
     28 C28         8.0870    9.7140   12.8460           1 45D201      0.0000 
     29 C29         2.6930    0.4610   23.8070           1 45D201      0.0000 
     30 C30         8.3510    7.3890   13.6450           1 45D201      0.0000 
     31 C31         3.6980    0.6530   22.8250           1 45D201      0.0000 
     32 C32         7.3160    7.3700   14.6300           1 45D201      0.0000 
     33 C33         3.7170    1.6480   21.9240           1 45D201      0.0000 
     34 C34         7.1090    6.3350   15.4550           1 45D201      0.0000 
     35 C35         4.6410    1.9520   20.8750           1 45D201      0.0000 
     36 C36         6.1640    6.1230   16.5150           1 45D201      0.0000 
     37 C37         4.6060    3.0860   20.1490           1 45D201      0.0000 
     38 C38         6.1460    4.9950   17.2490           1 45D201      0.0000 
     39 C39         5.6530    0.8770   20.5660           1 45D201      0.0000 
     40 C40         5.2150    7.2510   16.7940           1 45D201      0.0000 
     41 C41         5.4190    3.5040   19.0830           1 45D201      0.0000 
     42 C42         5.3090    4.6060   18.3210           1 45D201      0.0000 
     43 H052       -2.3290   -0.9280   29.0190           1 45D201      0.0000 
     44 H051       -1.3710    0.2000   29.9330           1 45D201      0.0000 
     45 H062       13.5950   10.1000    8.8550           1 45D201      0.0000 
     46 H061       14.9540    9.6560    9.8580           1 45D201      0.0000 
     47 H092       -1.1280   -1.9470   31.0500           1 45D201      0.0000 
     48 H091        0.3850   -1.6520   30.2940           1 45D201      0.0000 
     49 H102       14.4210    7.2130    9.5580           1 45D201      0.0000 
     50 H101       14.7560    7.9980    8.0640           1 45D201      0.0000 
     51 H113        1.4770    0.0150   28.9310           1 45D201      0.0000 
     52 H111        1.1700    0.9760   27.4650           1 45D201      0.0000 
     53 H112        0.3570    1.3970   28.9910           1 45D201      0.0000 
     54 H122       -2.0650    1.0770   27.6580           1 45D201      0.0000 
     55 H123       -0.7230    1.2330   26.5320           1 45D201      0.0000 
     56 H121       -1.8680   -0.0910   26.3590           1 45D201      0.0000 
     57 H131       13.3660    7.2320   11.5180           1 45D201      0.0000 
     58 H132       13.0020    8.4290   12.7950           1 45D201      0.0000 
     59 H133       14.6070    8.4220   12.0060           1 45D201      0.0000 
     60 H141       12.5700   11.3710   10.9090           1 45D201      0.0000 
     61 H143       14.0970   10.8930   11.7040           1 45D201      0.0000 
     62 H142       12.5310   10.5210   12.4800           1 45D201      0.0000 
     63 H191        1.7730   -2.4950   26.4110           1 45D201      0.0000 
     64 H201       10.2000   10.2000   11.2910           1 45D201      0.0000 
     65 H212       -0.2790   -4.0670   26.0760           1 45D201      0.0000 
     66 H213       -0.7540   -4.9520   27.5660           1 45D201      0.0000 
     67 H211        0.9520   -4.4390   27.3310           1 45D201      0.0000 
     68 H223       10.0620    7.1350    7.8520           1 45D201      0.0000 
     69 H222        9.2930    7.9470    9.1740           1 45D201      0.0000 
     70 H221       10.0840    6.4280    9.4340           1 45D201      0.0000 
     71 H231        0.5840    0.1220   25.3700           1 45D201      0.0000 
     72 H241       10.1500    7.1860   11.7740           1 45D201      0.0000 
     73 H273        3.5110   -1.9930   23.2240           1 45D201      0.0000 
     74 H272        3.8610   -2.1310   24.9350           1 45D201      0.0000 
     75 H271        2.3880   -2.8210   24.2830           1 45D201      0.0000 
     76 H281        7.0300    9.6730   13.1340           1 45D201      0.0000 
     77 H282        8.5400   10.4260   13.5460           1 45D201      0.0000 
     78 H283        8.0930   10.2300   11.8790           1 45D201      0.0000 
     79 H291        2.1470    1.3700   24.0390           1 45D201      0.0000 
     80 H301        8.8700    6.4370   13.5730           1 45D201      0.0000 
     81 H311        4.5120   -0.0740   22.8150           1 45D201      0.0000 
     82 H321        6.6710    8.2460   14.7040           1 45D201      0.0000 
     83 H331        2.9020    2.3690   21.9680           1 45D201      0.0000 
     84 H341        7.7610    5.4700   15.3280           1 45D201      0.0000 
     85 H371        3.8360    3.8130   20.4030           1 45D201      0.0000 
     86 H381        6.8870    4.2370   16.9980           1 45D201      0.0000 
     87 H393        5.2960   -0.1210   20.8520           1 45D201      0.0000 
     88 H392        5.8940    0.8300   19.4970           1 45D201      0.0000 
     89 H391        6.6000    1.0360   21.0960           1 45D201      0.0000 
     90 H401        5.6430    8.2450   16.5910           1 45D201      0.0000 
     91 H402        4.2930    7.2060   16.1940           1 45D201      0.0000 
     92 H403        4.8770    7.2920   17.8410           1 45D201      0.0000 
     93 H411        6.2490    2.8240   18.8640           1 45D201      0.0000 
     94 H421        4.4850    5.2940   18.5370           1 45D201      0.0000 
@<TRIPOS>BOND
     1    1   17 du   
     2    2   18 du   
     3    3    5 du   
     4    3    7 du   
     5    3   11 du   
     6    3   12 du   
     7    4    6 du   
     8    4    8 du   
     9    4   13 du   
    10    4   14 du   
    11    5    9 du   
    12    5   43 1    
    13    5   44 1    
    14    6   10 du   
    15    6   45 1    
    16    6   46 1    
    17    7   15 du   
    18    7   19 du   
    19    8   16 du   
    20    8   20 du   
    21    9   17 du   
    22    9   47 1    
    23    9   48 1    
    24   10   18 du   
    25   10   49 1    
    26   10   50 1    
    27   11   51 1    
    28   11   52 1    
    29   11   53 1    
    30   12   54 1    
    31   12   55 1    
    32   12   56 1    
    33   13   57 1    
    34   13   58 1    
    35   13   59 1    
    36   14   60 1    
    37   14   61 1    
    38   14   62 1    
    39   15   17 du   
    40   15   21 du   
    41   16   18 du   
    42   16   22 du   
    43   19   23 du   
    44   19   63 1    
    45   20   24 du   
    46   20   64 1    
    47   21   66 1    
    48   21   65 1    
    49   21   67 1    
    50   22   68 1    
    51   22   69 1    
    52   22   70 1    
    53   23   25 du   
    54   23   71 1    
    55   24   26 du   
    56   24   72 1    
    57   25   27 du   
    58   25   29 du   
    59   26   28 du   
    60   26   30 du   
    61   27   73 1    
    62   27   74 1    
    63   27   75 1    
    64   28   76 1    
    65   28   77 1    
    66   28   78 1    
    67   29   31 du   
    68   29   79 1    
    69   30   32 du   
    70   30   80 1    
    71   31   33 du   
    72   31   81 1    
    73   32   34 du   
    74   32   82 1    
    75   33   35 du   
    76   33   83 1    
    77   34   36 du   
    78   34   84 1    
    79   35   37 du   
    80   35   39 du   
    81   36   38 du   
    82   36   40 du   
    83   37   41 du   
    84   37   85 1    
    85   38   42 du   
    86   38   86 1    
    87   39   87 1    
    88   39   88 1    
    89   39   89 1    
    90   40   90 1    
    91   40   91 1    
    92   40   92 1    
    93   41   42 du   
    94   41   93 1    
    95   42   94 1    
@<TRIPOS>SUBSTRUCTURE
     1 45D201      1 GROUP   
@<TRIPOS>SET

