#    Name: 6mcj_2_45D
#    Modification time : Fri May 22 19:24:31 2020

@<TRIPOS>MOLECULE
6mcj_2_45D
   94    95     1     0     0
SMALL
NO_CHARGES


@<TRIPOS>ATOM
      1 O01        22.6500   14.9400  -18.1270           1 45D201      0.0000 
      2 O02         9.0590    8.1310    5.6780           1 45D201      0.0000 
      3 C03        22.3920   16.1940  -14.1880           1 45D201      0.0000 
      4 C04        10.2220   11.9470    6.5690           1 45D201      0.0000 
      5 C05        23.2740   16.7820  -15.3400           1 45D201      0.0000 
      6 C06         8.7660   11.6740    6.1600           1 45D201      0.0000 
      7 C07        21.6540   14.9420  -14.6890           1 45D201      0.0000 
      8 C08        11.0480   11.1100    5.6460           1 45D201      0.0000 
      9 C09        22.5380   16.7780  -16.6470           1 45D201      0.0000 
     10 C10         8.3970   10.2550    6.5180           1 45D201      0.0000 
     11 C11        21.4320   17.2520  -13.6670           1 45D201      0.0000 
     12 C12        23.3300   15.8840  -13.0290           1 45D201      0.0000 
     13 C13        10.5190   13.4280    6.5140           1 45D201      0.0000 
     14 C14        10.4370   11.5630    8.0300           1 45D201      0.0000 
     15 C15        21.8360   14.4730  -15.9510           1 45D201      0.0000 
     16 C16        10.6380    9.8520    5.3170           1 45D201      0.0000 
     17 C17        22.3660   15.3510  -17.0050           1 45D201      0.0000 
     18 C18         9.3470    9.3060    5.8110           1 45D201      0.0000 
     19 C19        20.5650   14.4190  -13.9080           1 45D201      0.0000 
     20 C20        12.2030   11.6980    5.0200           1 45D201      0.0000 
     21 C21        21.1620   13.2640  -16.4550           1 45D201      0.0000 
     22 C22        11.5470    8.8030    4.7290           1 45D201      0.0000 
     23 C23        20.4540   14.3640  -12.5760           1 45D201      0.0000 
     24 C24        12.6440   11.5400    3.7730           1 45D201      0.0000 
     25 C25        19.3500   13.8520  -11.8150           1 45D201      0.0000 
     26 C26        13.7850   12.1310    3.1370           1 45D201      0.0000 
     27 C27        18.3960   12.9660  -12.5560           1 45D201      0.0000 
     28 C28        14.6830   12.9740    4.0180           1 45D201      0.0000 
     29 C29        19.1380   14.1230  -10.5160           1 45D201      0.0000 
     30 C30        14.0790   11.9630    1.8400           1 45D201      0.0000 
     31 C31        18.1010   13.6630   -9.6590           1 45D201      0.0000 
     32 C32        15.1450   12.4890    1.0680           1 45D201      0.0000 
     33 C33        18.1690   13.6310   -8.3250           1 45D201      0.0000 
     34 C34        15.1970   12.4240   -0.2680           1 45D201      0.0000 
     35 C35        17.2240   13.1750   -7.3360           1 45D201      0.0000 
     36 C36        16.1590   12.9010   -1.2100           1 45D201      0.0000 
     37 C37        17.4100   13.3320   -6.0180           1 45D201      0.0000 
     38 C38        16.0280   12.7160   -2.5330           1 45D201      0.0000 
     39 C39        16.0060   12.4690   -7.8830           1 45D201      0.0000 
     40 C40        17.3360   13.6520   -0.6440           1 45D201      0.0000 
     41 C41        16.6070   12.9480   -4.9200           1 45D201      0.0000 
     42 C42        16.8610   13.1080   -3.6140           1 45D201      0.0000 
     43 H052       24.2160   16.2170  -15.4470           1 45D201      0.0000 
     44 H051       23.6010   17.8080  -15.1050           1 45D201      0.0000 
     45 H062        8.0720   12.3910    6.6450           1 45D201      0.0000 
     46 H061        8.6150   11.8530    5.0750           1 45D201      0.0000 
     47 H092       23.0640   17.3450  -17.4420           1 45D201      0.0000 
     48 H091       21.5690   17.3140  -16.5990           1 45D201      0.0000 
     49 H102        7.3380   10.0540    6.2680           1 45D201      0.0000 
     50 H101        8.4040   10.1170    7.6160           1 45D201      0.0000 
     51 H113       20.9620   16.9270  -12.7270           1 45D201      0.0000 
     52 H111       21.9580   18.1990  -13.4730           1 45D201      0.0000 
     53 H112       20.6320   17.4500  -14.3960           1 45D201      0.0000 
     54 H122       22.9180   16.2090  -12.0670           1 45D201      0.0000 
     55 H123       23.5330   14.8100  -12.9380           1 45D201      0.0000 
     56 H121       24.3010   16.3800  -13.1400           1 45D201      0.0000 
     57 H131        9.7470   14.0030    7.0550           1 45D201      0.0000 
     58 H132       10.5440   13.7840    5.4690           1 45D201      0.0000 
     59 H133       11.4980   13.6490    6.9750           1 45D201      0.0000 
     60 H141       11.3520   12.0340    8.4280           1 45D201      0.0000 
     61 H143       10.5390   10.4700    8.1360           1 45D201      0.0000 
     62 H142        9.5860   11.8910    8.6500           1 45D201      0.0000 
     63 H191       19.7350   14.0230  -14.5010           1 45D201      0.0000 
     64 H201       12.7760   12.3580    5.6760           1 45D201      0.0000 
     65 H212       21.6200   12.9530  -17.4090           1 45D201      0.0000 
     66 H213       20.0930   13.4740  -16.6180           1 45D201      0.0000 
     67 H211       21.2640   12.4480  -15.7210           1 45D201      0.0000 
     68 H223       12.6170    8.9890    4.8900           1 45D201      0.0000 
     69 H222       11.4560    8.6820    3.6420           1 45D201      0.0000 
     70 H221       11.3880    7.7920    5.1260           1 45D201      0.0000 
     71 H231       21.2730   14.7390  -11.9600           1 45D201      0.0000 
     72 H241       12.0900   10.8760    3.1070           1 45D201      0.0000 
     73 H273       17.5980   13.5260  -13.0610           1 45D201      0.0000 
     74 H272       18.8850   12.3700  -13.3380           1 45D201      0.0000 
     75 H271       17.8880   12.2440  -11.9030           1 45D201      0.0000 
     76 H281       15.7020   13.0880    3.6310           1 45D201      0.0000 
     77 H282       14.3230   13.9980    4.1660           1 45D201      0.0000 
     78 H283       14.8120   12.5740    5.0300           1 45D201      0.0000 
     79 H291       19.8420   14.7850  -10.0230           1 45D201      0.0000 
     80 H301       13.4160   11.3290    1.2570           1 45D201      0.0000 
     81 H311       17.1870   13.3130  -10.1430           1 45D201      0.0000 
     82 H321       15.9630   12.9710    1.6050           1 45D201      0.0000 
     83 H331       19.0840   14.0080   -7.8700           1 45D201      0.0000 
     84 H341       14.3690   11.9200   -0.7660           1 45D201      0.0000 
     85 H371       18.3240   13.8380   -5.7090           1 45D201      0.0000 
     86 H381       15.1420   12.1770   -2.8620           1 45D201      0.0000 
     87 H393       15.1840   12.4400   -7.1580           1 45D201      0.0000 
     88 H392       15.6140   12.9570   -8.7840           1 45D201      0.0000 
     89 H391       16.2200   11.4280   -8.1580           1 45D201      0.0000 
     90 H401       17.0950   14.2240    0.2660           1 45D201      0.0000 
     91 H402       18.1760   13.0010   -0.3590           1 45D201      0.0000 
     92 H403       17.7640   14.3870   -1.3420           1 45D201      0.0000 
     93 H411       15.6660   12.4620   -5.1990           1 45D201      0.0000 
     94 H421       17.8020   13.5880   -3.3270           1 45D201      0.0000 
@<TRIPOS>BOND
     1    1   17 du   
     2    2   18 du   
     3    3    5 du   
     4    3    7 du   
     5    3   11 du   
     6    3   12 du   
     7    4    6 du   
     8    4    8 du   
     9    4   13 du   
    10    4   14 du   
    11    5    9 du   
    12    5   43 1    
    13    5   44 1    
    14    6   10 du   
    15    6   45 1    
    16    6   46 1    
    17    7   15 du   
    18    7   19 du   
    19    8   16 du   
    20    8   20 du   
    21    9   17 du   
    22    9   47 1    
    23    9   48 1    
    24   10   18 du   
    25   10   49 1    
    26   10   50 1    
    27   11   51 1    
    28   11   52 1    
    29   11   53 1    
    30   12   54 1    
    31   12   55 1    
    32   12   56 1    
    33   13   57 1    
    34   13   58 1    
    35   13   59 1    
    36   14   60 1    
    37   14   61 1    
    38   14   62 1    
    39   15   17 du   
    40   15   21 du   
    41   16   18 du   
    42   16   22 du   
    43   19   23 du   
    44   19   63 1    
    45   20   24 du   
    46   20   64 1    
    47   21   66 1    
    48   21   65 1    
    49   21   67 1    
    50   22   68 1    
    51   22   69 1    
    52   22   70 1    
    53   23   25 du   
    54   23   71 1    
    55   24   26 du   
    56   24   72 1    
    57   25   27 du   
    58   25   29 du   
    59   26   28 du   
    60   26   30 du   
    61   27   73 1    
    62   27   74 1    
    63   27   75 1    
    64   28   76 1    
    65   28   77 1    
    66   28   78 1    
    67   29   31 du   
    68   29   79 1    
    69   30   32 du   
    70   30   80 1    
    71   31   33 du   
    72   31   81 1    
    73   32   34 du   
    74   32   82 1    
    75   33   35 du   
    76   33   83 1    
    77   34   36 du   
    78   34   84 1    
    79   35   37 du   
    80   35   39 du   
    81   36   38 du   
    82   36   40 du   
    83   37   41 du   
    84   37   85 1    
    85   38   42 du   
    86   38   86 1    
    87   39   87 1    
    88   39   88 1    
    89   39   89 1    
    90   40   90 1    
    91   40   91 1    
    92   40   92 1    
    93   41   42 du   
    94   41   93 1    
    95   42   94 1    
@<TRIPOS>SUBSTRUCTURE
     1 45D201      1 GROUP   
@<TRIPOS>SET

