#    Name: 6ahe_3_0WE
#    Modification time : Fri May 22 19:23:58 2020

@<TRIPOS>MOLECULE
6ahe_3_0WE
   28    31     1     0     0
SMALL
NO_CHARGES


@<TRIPOS>ATOM
      1 O2         -9.0530  -11.1270  -33.8180 O.2       1 0WE301      0.0000 
      2 C1         -7.8860  -11.4970  -33.7530 C.2       1 0WE301      0.0000 
      3 C17        -7.1140  -11.6570  -35.0030 C.3       1 0WE301      0.0000 
      4 C18        -7.4690  -10.8810  -36.0310 C.3       1 0WE301      0.0000 
      5 C19        -6.8190  -10.9000  -37.3420 C.ar      1 0WE301      0.0000 
      6 C24        -5.5210  -11.3610  -37.4890 C.ar      1 0WE301      0.0000 
      7 C23        -4.9190  -11.3750  -38.7510 C.ar      1 0WE301      0.0000 
      8 C26        -3.6040  -11.8770  -38.9500 C.3       1 0WE301      0.0000 
      9 C25        -3.0520  -11.8710  -40.2340 C.3       1 0WE301      0.0000 
     10 C20        -7.5290  -10.4360  -38.4390 C.ar      1 0WE301      0.0000 
     11 N21        -6.9500  -10.4430  -39.6620 N.ar      1 0WE301      0.0000 
     12 C22        -5.6700  -10.9000  -39.8360 C.ar      1 0WE301      0.0000 
     13 N36        -5.1040  -10.9000  -41.0700 N.am      1 0WE301      0.0000 
     14 C37        -3.8350  -11.3690  -41.2880 C.2       1 0WE301      0.0000 
     15 O28        -3.4070  -11.3420  -42.4620 O.2       1 0WE301      0.0000 
     16 N3         -7.3320  -11.7040  -32.5800 N.am      1 0WE301      0.0000 
     17 C4         -8.1520  -11.4800  -31.3950 C.3       1 0WE301      0.0000 
     18 C5         -5.9300  -12.0640  -32.2840 C.3       1 0WE301      0.0000 
     19 C6         -5.2340  -10.7330  -32.2720 C.2       1 0WE301      0.0000 
     20 O10        -5.0380   -9.9790  -33.4070 O.3       1 0WE301      0.0000 
     21 C9         -4.4140   -8.8710  -33.1140 C.ar      1 0WE301      0.0000 
     22 C8         -4.1860   -8.7700  -31.7370 C.ar      1 0WE301      0.0000 
     23 C7         -4.7230   -9.9600  -31.2050 C.2       1 0WE301      0.0000 
     24 C38        -4.6400  -10.1480  -29.6980 C.3       1 0WE301      0.0000 
     25 C14        -4.0550   -7.8780  -34.0230 C.ar      1 0WE301      0.0000 
     26 C13        -3.4290   -6.7510  -33.4710 C.ar      1 0WE301      0.0000 
     27 C12        -3.1800   -6.6080  -32.0960 C.ar      1 0WE301      0.0000 
     28 C11        -3.5800   -7.6180  -31.1990 C.ar      1 0WE301      0.0000 
@<TRIPOS>BOND
     1    1    2 2    
     2    2    3 1    
     3    2   16 am   
     4    3    4 1    
     5    4    5 1    
     6    5    6 ar   
     7    5   10 ar   
     8    6    7 ar   
     9    7    8 1    
    10    7   12 ar   
    11    8    9 1    
    12    9   14 1    
    13   10   11 ar   
    14   11   12 ar   
    15   12   13 1    
    16   13   14 am   
    17   14   15 2    
    18   16   17 1    
    19   16   18 1    
    20   18   19 1    
    21   19   20 1    
    22   19   23 2    
    23   20   21 1    
    24   21   22 ar   
    25   21   25 ar   
    26   22   23 1    
    27   22   28 ar   
    28   23   24 1    
    29   25   26 ar   
    30   26   27 ar   
    31   27   28 ar   
@<TRIPOS>SUBSTRUCTURE
     1 0WE301      1 GROUP   
@<TRIPOS>SET

