#    Name: 6ahe_4_0WE
#    Modification time : Fri May 22 19:24:01 2020

@<TRIPOS>MOLECULE
6ahe_4_0WE
   28    31     1     0     0
SMALL
NO_CHARGES


@<TRIPOS>ATOM
      1 O2        -12.0570    8.2020   -3.8700 O.2       1 0WE301      0.0000 
      2 C1        -10.8900    8.5460   -3.6990 C.2       1 0WE301      0.0000 
      3 C17       -10.3920    8.7680   -2.3260 C.3       1 0WE301      0.0000 
      4 C18       -10.7760    7.9340   -1.3500 C.3       1 0WE301      0.0000 
      5 C19       -10.3410    8.0110    0.0790 C.ar      1 0WE301      0.0000 
      6 C24        -9.0760    8.4570    0.4670 C.ar      1 0WE301      0.0000 
      7 C23        -8.7640    8.4880    1.8290 C.ar      1 0WE301      0.0000 
      8 C26        -7.5100    8.9360    2.2880 C.3       1 0WE301      0.0000 
      9 C25        -7.2470    8.9490    3.6690 C.3       1 0WE301      0.0000 
     10 C20       -11.2460    7.6050    1.0600 C.ar      1 0WE301      0.0000 
     11 N21       -10.9310    7.6370    2.3590 N.ar      1 0WE301      0.0000 
     12 C22        -9.7170    8.0600    2.7620 C.ar      1 0WE301      0.0000 
     13 N36        -9.4250    8.0700    4.0840 N.am      1 0WE301      0.0000 
     14 C37        -8.2290    8.4990    4.5500 C.2       1 0WE301      0.0000 
     15 O28        -8.0190    8.4830    5.7750 O.2       1 0WE301      0.0000 
     16 N3        -10.0460    8.7190   -4.7160 N.am      1 0WE301      0.0000 
     17 C4        -10.5090    8.5590   -6.0940 C.3       1 0WE301      0.0000 
     18 C5         -8.6190    9.0310   -4.6000 C.3       1 0WE301      0.0000 
     19 C6         -7.8740    7.7220   -4.5560 C.2       1 0WE301      0.0000 
     20 O10        -7.7740    6.9850   -3.4120 O.3       1 0WE301      0.0000 
     21 C9         -7.0970    5.8760   -3.6450 C.ar      1 0WE301      0.0000 
     22 C8         -6.7110    5.7850   -4.9830 C.ar      1 0WE301      0.0000 
     23 C7         -7.2190    6.9500   -5.5590 C.2       1 0WE301      0.0000 
     24 C38        -6.9280    7.0730   -7.0540 C.3       1 0WE301      0.0000 
     25 C14        -6.7910    4.8830   -2.7140 C.ar      1 0WE301      0.0000 
     26 C13        -6.0760    3.7610   -3.1710 C.ar      1 0WE301      0.0000 
     27 C12        -5.7090    3.6760   -4.5290 C.ar      1 0WE301      0.0000 
     28 C11        -5.9920    4.6790   -5.4630 C.ar      1 0WE301      0.0000 
@<TRIPOS>BOND
     1    1    2 2    
     2    2    3 1    
     3    2   16 am   
     4    3    4 1    
     5    4    5 1    
     6    5    6 ar   
     7    5   10 ar   
     8    6    7 ar   
     9    7    8 1    
    10    7   12 ar   
    11    8    9 1    
    12    9   14 1    
    13   10   11 ar   
    14   11   12 ar   
    15   12   13 1    
    16   13   14 am   
    17   14   15 2    
    18   16   17 1    
    19   16   18 1    
    20   18   19 1    
    21   19   20 1    
    22   19   23 2    
    23   20   21 1    
    24   21   22 ar   
    25   21   25 ar   
    26   22   23 1    
    27   22   28 ar   
    28   23   24 1    
    29   25   26 ar   
    30   26   27 ar   
    31   27   28 ar   
@<TRIPOS>SUBSTRUCTURE
     1 0WE301      1 GROUP   
@<TRIPOS>SET

