#    Name: 6ahe_1_0WE
#    Modification time : Fri May 22 19:23:52 2020

@<TRIPOS>MOLECULE
6ahe_1_0WE
   28    31     1     0     0
SMALL
NO_CHARGES


@<TRIPOS>ATOM
      1 O2        -32.8100   -9.5230   -5.0210 O.2       1 0WE301      0.0000 
      2 C1        -33.9810   -9.8510   -5.0720 C.2       1 0WE301      0.0000 
      3 C17       -34.7560   -9.9300   -3.8100 C.3       1 0WE301      0.0000 
      4 C18       -34.4670   -9.0100   -2.8770 C.3       1 0WE301      0.0000 
      5 C19       -35.1110   -8.9060   -1.5430 C.ar      1 0WE301      0.0000 
      6 C24       -36.4540   -9.2500   -1.3070 C.ar      1 0WE301      0.0000 
      7 C23       -36.9740   -9.1360   -0.0160 C.ar      1 0WE301      0.0000 
      8 C26       -38.3100   -9.4500    0.2880 C.3       1 0WE301      0.0000 
      9 C25       -38.7830   -9.3170    1.5960 C.3       1 0WE301      0.0000 
     10 C20       -34.3270   -8.4470   -0.4970 C.ar      1 0WE301      0.0000 
     11 N21       -34.8540   -8.3160    0.7330 N.ar      1 0WE301      0.0000 
     12 C22       -36.1420   -8.6440    0.9930 C.ar      1 0WE301      0.0000 
     13 N36       -36.6280   -8.5060    2.2520 N.am      1 0WE301      0.0000 
     14 C37       -37.9060   -8.8300    2.5700 C.2       1 0WE301      0.0000 
     15 O28       -38.2680   -8.6820    3.7510 O.2       1 0WE301      0.0000 
     16 N3        -34.5620  -10.0950   -6.2390 N.am      1 0WE301      0.0000 
     17 C4        -33.8460   -9.9930   -7.5180 C.3       1 0WE301      0.0000 
     18 C5        -35.9630  -10.4430   -6.3950 C.3       1 0WE301      0.0000 
     19 C6        -36.6350   -9.1220   -6.4450 C.2       1 0WE301      0.0000 
     20 O10       -36.8980   -8.3440   -5.3630 O.3       1 0WE301      0.0000 
     21 C9        -37.4710   -7.2230   -5.7380 C.ar      1 0WE301      0.0000 
     22 C8        -37.6330   -7.1840   -7.1150 C.ar      1 0WE301      0.0000 
     23 C7        -37.0910   -8.4210   -7.5520 C.2       1 0WE301      0.0000 
     24 C38       -37.1160   -8.7830   -9.0120 C.3       1 0WE301      0.0000 
     25 C14       -37.8770   -6.1820   -4.8950 C.ar      1 0WE301      0.0000 
     26 C13       -38.4870   -5.0840   -5.5130 C.ar      1 0WE301      0.0000 
     27 C12       -38.6640   -5.0230   -6.9120 C.ar      1 0WE301      0.0000 
     28 C11       -38.2430   -6.0760   -7.7250 C.ar      1 0WE301      0.0000 
@<TRIPOS>BOND
     1    1    2 2    
     2    2    3 1    
     3    2   16 am   
     4    3    4 1    
     5    4    5 1    
     6    5    6 ar   
     7    5   10 ar   
     8    6    7 ar   
     9    7    8 1    
    10    7   12 ar   
    11    8    9 1    
    12    9   14 1    
    13   10   11 ar   
    14   11   12 ar   
    15   12   13 1    
    16   13   14 am   
    17   14   15 2    
    18   16   17 1    
    19   16   18 1    
    20   18   19 1    
    21   19   20 1    
    22   19   23 2    
    23   20   21 1    
    24   21   22 ar   
    25   21   25 ar   
    26   22   23 1    
    27   22   28 ar   
    28   23   24 1    
    29   25   26 ar   
    30   26   27 ar   
    31   27   28 ar   
@<TRIPOS>SUBSTRUCTURE
     1 0WE301      1 GROUP   
@<TRIPOS>SET

