#    Name: 6ahe_2_0WE
#    Modification time : Fri May 22 19:23:54 2020

@<TRIPOS>MOLECULE
6ahe_2_0WE
   28    31     1     0     0
SMALL
NO_CHARGES


@<TRIPOS>ATOM
      1 O2        -29.7900    6.7690  -36.5520 O.2       1 0WE301      0.0000 
      2 C1        -30.9840    6.9630  -36.7470 C.2       1 0WE301      0.0000 
      3 C17       -31.4100    6.9440  -38.1590 C.3       1 0WE301      0.0000 
      4 C18       -31.0270    5.9590  -38.9630 C.3       1 0WE301      0.0000 
      5 C19       -31.3880    5.8730  -40.4040 C.ar      1 0WE301      0.0000 
      6 C24       -32.6670    6.2350  -40.8630 C.ar      1 0WE301      0.0000 
      7 C23       -32.9700    6.1400  -42.2190 C.ar      1 0WE301      0.0000 
      8 C26       -34.2330    6.5040  -42.7060 C.3       1 0WE301      0.0000 
      9 C25       -34.4970    6.4160  -44.0800 C.3       1 0WE301      0.0000 
     10 C20       -30.4340    5.4140  -41.3220 C.ar      1 0WE301      0.0000 
     11 N21       -30.7420    5.3050  -42.6330 N.ar      1 0WE301      0.0000 
     12 C22       -31.9780    5.6690  -43.1040 C.ar      1 0WE301      0.0000 
     13 N36       -32.2770    5.5700  -44.4310 N.am      1 0WE301      0.0000 
     14 C37       -33.4930    5.9330  -44.9370 C.2       1 0WE301      0.0000 
     15 O28       -33.7140    5.8050  -46.1660 O.2       1 0WE301      0.0000 
     16 N3        -31.8660    7.1460  -35.7370 N.am      1 0WE301      0.0000 
     17 C4        -31.4410    6.9430  -34.3640 C.3       1 0WE301      0.0000 
     18 C5        -33.2970    7.4960  -35.8460 C.3       1 0WE301      0.0000 
     19 C6        -33.9640    6.1710  -35.9290 C.2       1 0WE301      0.0000 
     20 O10       -33.9360    5.3510  -37.0330 O.3       1 0WE301      0.0000 
     21 C9        -34.5720    4.2410  -36.7700 C.ar      1 0WE301      0.0000 
     22 C8        -35.0600    4.2350  -35.4670 C.ar      1 0WE301      0.0000 
     23 C7        -34.6560    5.4630  -34.9350 C.2       1 0WE301      0.0000 
     24 C38       -35.0100    5.7730  -33.5120 C.3       1 0WE301      0.0000 
     25 C14       -34.7590    3.1990  -37.6510 C.ar      1 0WE301      0.0000 
     26 C13       -35.4650    2.1000  -37.1530 C.ar      1 0WE301      0.0000 
     27 C12       -35.9480    2.0590  -35.8260 C.ar      1 0WE301      0.0000 
     28 C11       -35.7510    3.1420  -34.9810 C.ar      1 0WE301      0.0000 
@<TRIPOS>BOND
     1    1    2 2    
     2    2    3 1    
     3    2   16 am   
     4    3    4 1    
     5    4    5 1    
     6    5    6 ar   
     7    5   10 ar   
     8    6    7 ar   
     9    7    8 1    
    10    7   12 ar   
    11    8    9 1    
    12    9   14 1    
    13   10   11 ar   
    14   11   12 ar   
    15   12   13 1    
    16   13   14 am   
    17   14   15 2    
    18   16   17 1    
    19   16   18 1    
    20   18   19 1    
    21   19   20 1    
    22   19   23 2    
    23   20   21 1    
    24   21   22 ar   
    25   21   25 ar   
    26   22   23 1    
    27   22   28 ar   
    28   23   24 1    
    29   25   26 ar   
    30   26   27 ar   
    31   27   28 ar   
@<TRIPOS>SUBSTRUCTURE
     1 0WE301      1 GROUP   
@<TRIPOS>SET

