#    Name: 6fp1_2_FAD
#    Modification time : Fri May 22 19:28:37 2020

@<TRIPOS>MOLECULE
6fp1_2_FAD
   84    89     1     0     1
SMALL
NO_CHARGES


@<TRIPOS>ATOM
      1 PA         59.6390  -30.3890  123.4990 P.3       1 FAD501      0.0000 
      2 O1A        60.2980  -29.1680  124.0370 O.co2     1 FAD501      0.0000 
      3 O2A        60.3620  -31.1530  122.3910 O.co2     1 FAD501      0.0000 
      4 O5B        59.3480  -31.3300  124.7340 O.3       1 FAD501      0.0000 
      5 C5B        58.9190  -32.6980  124.5580 C.3       1 FAD501      0.0000 
      6 C4B        59.2620  -33.4680  125.8090 C.3       1 FAD501      0.0000 
      7 O4B        58.6210  -34.7680  125.7730 O.3       1 FAD501      0.0000 
      8 C3B        60.7560  -33.7360  126.0030 C.3       1 FAD501      0.0000 
      9 O3B        61.1430  -33.4670  127.3450 O.3       1 FAD501      0.0000 
     10 C2B        60.8990  -35.2130  125.6030 C.3       1 FAD501      0.0000 
     11 O2B        62.0220  -35.8130  126.2320 O.3       1 FAD501      0.0000 
     12 C1B        59.5680  -35.7640  126.1020 C.3       1 FAD501      0.0000 
     13 N9A        59.1230  -37.0240  125.5030 N.pl3     1 FAD501      0.0000 
     14 C8A        59.1420  -37.3650  124.1760 C.2       1 FAD501      0.0000 
     15 N7A        58.6380  -38.5500  123.9230 N.2       1 FAD501      0.0000 
     16 C5A        58.2470  -39.0160  125.1670 C.ar      1 FAD501      0.0000 
     17 C6A        57.6370  -40.2170  125.5860 C.ar      1 FAD501      0.0000 
     18 N6A        57.3060  -41.2110  124.7580 N.pl3     1 FAD501      0.0000 
     19 N1A        57.3790  -40.3620  126.9040 N.ar      1 FAD501      0.0000 
     20 C2A        57.7150  -39.3790  127.7430 C.ar      1 FAD501      0.0000 
     21 N3A        58.2930  -38.2090  127.4610 N.ar      1 FAD501      0.0000 
     22 C4A        58.5340  -38.0840  126.1510 C.ar      1 FAD501      0.0000 
     23 N1         61.0680  -22.0650  118.8840 N.2       1 FAD501      0.0000 
     24 C2         61.0190  -20.7520  119.2700 C.2       1 FAD501      0.0000 
     25 O2         60.0270  -20.2760  119.8390 O.2       1 FAD501      0.0000 
     26 N3         62.0940  -19.9180  119.0020 N.am      1 FAD501      0.0000 
     27 C4         63.2530  -20.2780  118.3590 C.2       1 FAD501      0.0000 
     28 O4         64.1450  -19.4490  118.1880 O.2       1 FAD501      0.0000 
     29 C4X        63.2870  -21.6730  117.9460 C.2       1 FAD501      0.0000 
     30 N5         64.3540  -22.1020  117.3340 N.2       1 FAD501      0.0000 
     31 C5X        64.3880  -23.4290  116.9280 C.ar      1 FAD501      0.0000 
     32 C6         65.5270  -23.8880  116.2630 C.ar      1 FAD501      0.0000 
     33 C7         65.6250  -25.2080  115.8330 C.ar      1 FAD501      0.0000 
     34 C7M        66.8680  -25.6640  115.1160 C.3       1 FAD501      0.0000 
     35 C8         64.5670  -26.0970  116.0830 C.ar      1 FAD501      0.0000 
     36 C8M        64.6460  -27.5390  115.6440 C.3       1 FAD501      0.0000 
     37 C9         63.4310  -25.6430  116.7550 C.ar      1 FAD501      0.0000 
     38 C9A        63.3340  -24.3220  117.1840 C.ar      1 FAD501      0.0000 
     39 N10        62.1960  -23.8280  117.8730 N.pl3     1 FAD501      0.0000 
     40 C10        62.1420  -22.4930  118.2600 C.2       1 FAD501      0.0000 
     41 C1'        61.0270  -24.7130  118.1550 C.3       1 FAD501      0.0000 
     42 C2'        60.9810  -25.2500  119.5740 C.3       1 FAD501      0.0000 
     43 O2'        62.1960  -25.9310  119.8820 O.3       1 FAD501      0.0000 
     44 C3'        59.8250  -26.2440  119.7450 C.3       1 FAD501      0.0000 
     45 O3'        58.6720  -25.7860  119.0530 O.3       1 FAD501      0.0000 
     46 C4'        59.4500  -26.4720  121.2170 C.3       1 FAD501      0.0000 
     47 O4'        60.5480  -27.0530  121.9200 O.3       1 FAD501      0.0000 
     48 C5'        58.2140  -27.3360  121.3880 C.3       1 FAD501      0.0000 
     49 O5'        57.9760  -27.5720  122.7960 O.3       1 FAD501      0.0000 
     50 P          57.1810  -28.8480  123.2960 P.3       1 FAD501      0.0000 
     51 O1P        57.0260  -28.8070  124.8200 O.co2     1 FAD501      0.0000 
     52 O2P        55.8590  -29.0470  122.5450 O.co2     1 FAD501      0.0000 
     53 O3P        58.1890  -30.0470  122.9480 O.3       1 FAD501      0.0000 
     54 H51A       59.3600  -33.0770  123.8210 H         1 FAD501      0.0000 
     55 H52A       57.9910  -32.7230  124.4150 H         1 FAD501      0.0000 
     56 H4B        58.9390  -33.0110  126.5630 H         1 FAD501      0.0000 
     57 H3B        61.2670  -33.2160  125.4100 H         1 FAD501      0.0000 
     58 HO3A       60.6820  -33.9270  127.8640 H         1 FAD501      0.0000 
     59 H2B        60.9580  -35.3310  124.6730 H         1 FAD501      0.0000 
     60 HO2A       61.8760  -35.8860  127.0480 H         1 FAD501      0.0000 
     61 H1B        59.6250  -35.8920  127.0300 H         1 FAD501      0.0000 
     62 H8A        59.4880  -36.8100  123.5160 H         1 FAD501      0.0000 
     63 H61A       57.4750  -41.1440  123.9100 H         1 FAD501      0.0000 
     64 H62A       56.9220  -41.9250  125.0690 H         1 FAD501      0.0000 
     65 H2A        57.5170  -39.5290  128.6380 H         1 FAD501      0.0000 
     66 HN3        62.0320  -19.0930  119.2670 H         1 FAD501      0.0000 
     67 H6         66.1420  -23.1980  116.1770 H         1 FAD501      0.0000 
     68 HM71       66.8320  -26.5940  114.9880 H         1 FAD501      0.0000 
     69 HM72       67.6230  -25.4480  115.6310 H         1 FAD501      0.0000 
     70 HM73       66.9240  -25.2350  114.2830 H         1 FAD501      0.0000 
     71 HM81       63.9000  -28.0070  115.9700 H         1 FAD501      0.0000 
     72 HM82       65.4310  -27.9270  115.9820 H         1 FAD501      0.0000 
     73 HM83       64.6550  -27.5800  114.7050 H         1 FAD501      0.0000 
     74 H9         63.0470  -26.4260  117.0760 H         1 FAD501      0.0000 
     75 H1'1       61.0610  -25.4420  117.5650 H         1 FAD501      0.0000 
     76 H1'2       60.2420  -24.2220  118.0010 H         1 FAD501      0.0000 
     77 H2'        60.8480  -24.5230  120.1540 H         1 FAD501      0.0000 
     78 HO2'       62.2510  -26.6220  119.4220 H         1 FAD501      0.0000 
     79 H3'        60.0800  -27.0560  119.3490 H         1 FAD501      0.0000 
     80 HO3'       58.1410  -26.4180  118.9490 H         1 FAD501      0.0000 
     81 H4'        59.2780  -25.6290  121.5910 H         1 FAD501      0.0000 
     82 HO4'       60.2600  -27.5240  122.5420 H         1 FAD501      0.0000 
     83 H5'1       58.3440  -28.1570  120.9510 H         1 FAD501      0.0000 
     84 H5'2       57.4720  -26.8970  121.0150 H         1 FAD501      0.0000 
@<TRIPOS>BOND
     1    1    2 ar   
     2    1    3 ar   
     3    1    4 1    
     4    1   53 1    
     5    4    5 1    
     6    5    6 1    
     7    6    7 1    
     8    5   54 1    
     9    5   55 1    
    10    6    8 1    
    11    7   12 1    
    12    6   56 1    
    13    8    9 1    
    14    8   10 1    
    15   10   11 1    
    16    8   57 1    
    17    9   58 1    
    18   10   12 1    
    19   12   13 1    
    20   10   59 1    
    21   11   60 1    
    22   13   14 1    
    23   12   61 1    
    24   13   22 1    
    25   14   15 2    
    26   15   16 1    
    27   14   62 1    
    28   16   17 ar   
    29   16   22 ar   
    30   17   18 1    
    31   17   19 ar   
    32   19   20 ar   
    33   18   63 1    
    34   18   64 1    
    35   20   21 ar   
    36   21   22 ar   
    37   20   65 1    
    38   23   24 1    
    39   23   40 2    
    40   24   25 2    
    41   24   26 am   
    42   26   27 am   
    43   27   28 2    
    44   26   66 1    
    45   27   29 1    
    46   29   30 2    
    47   29   40 1    
    48   30   31 1    
    49   31   32 ar   
    50   31   38 ar   
    51   32   33 ar   
    52   33   34 1    
    53   32   67 1    
    54   33   35 ar   
    55   35   36 1    
    56   34   68 1    
    57   34   69 1    
    58   34   70 1    
    59   35   37 ar   
    60   37   74 1    
    61   37   38 ar   
    62   36   71 1    
    63   36   72 1    
    64   36   73 1    
    65   38   39 1    
    66   39   40 1    
    67   39   41 1    
    68   41   42 1    
    69   42   43 1    
    70   41   75 1    
    71   41   76 1    
    72   42   44 1    
    73   44   45 1    
    74   42   77 1    
    75   43   78 1    
    76   44   46 1    
    77   46   47 1    
    78   44   79 1    
    79   45   80 1    
    80   46   48 1    
    81   48   49 1    
    82   46   81 1    
    83   47   82 1    
    84   49   50 1    
    85   48   83 1    
    86   48   84 1    
    87   50   51 ar   
    88   50   52 ar   
    89   50   53 1    
@<TRIPOS>SUBSTRUCTURE
     1 FAD501      1 GROUP   
@<TRIPOS>SET
ATOM$ORANGE STATIC     ATOMS   COLORGROUP SYSTEM 
54 5 5 6 6 8 8 10 10 12 12 14 14 16 16 17 17 20 \
20 22 22 24 24 27 27 29 29 31 31 32 32 33 33 34 34 35 \
35 36 36 37 37 38 38 40 40 41 41 42 42 44 44 46 46 48 \
48 

