#    Name: 6e8z_1_NAD
#    Modification time : Fri May 22 19:31:02 2020

@<TRIPOS>MOLECULE
6e8z_1_NAD
   70    74     1     0     1
SMALL
NO_CHARGES


@<TRIPOS>ATOM
      1 PA        -10.7340   -4.9760  -20.2560 P.3       1 NAD401      0.0000 
      2 O1A        -9.7690   -4.4560  -19.2470 O.co2     1 NAD401      0.0000 
      3 O2A       -11.4310   -3.9210  -21.0640 O.co2     1 NAD401      0.0000 
      4 O5B       -11.8310   -6.0050  -19.6160 O.3       1 NAD401      0.0000 
      5 C5B       -12.7460   -5.5060  -18.7100 C.3       1 NAD401      0.0000 
      6 C4B       -13.3590   -6.7880  -18.1060 C.3       1 NAD401      0.0000 
      7 O4B       -12.4910   -7.2640  -17.2810 O.3       1 NAD401      0.0000 
      8 C3B       -14.6060   -6.4800  -17.2740 C.3       1 NAD401      0.0000 
      9 O3B       -15.7030   -6.3400  -18.0700 O.3       1 NAD401      0.0000 
     10 C2B       -14.6240   -7.7630  -16.4310 C.3       1 NAD401      0.0000 
     11 O2B       -15.1640   -8.8910  -17.3010 O.3       1 NAD401      0.0000 
     12 C1B       -13.3910   -8.0150  -16.1490 C.3       1 NAD401      0.0000 
     13 N9A       -13.0930   -7.5050  -14.8340 N.pl3     1 NAD401      0.0000 
     14 C8A       -12.6900   -6.2580  -14.5190 C.2       1 NAD401      0.0000 
     15 N7A       -12.5500   -6.2000  -13.1910 N.2       1 NAD401      0.0000 
     16 C5A       -12.8640   -7.4060  -12.6930 C.ar      1 NAD401      0.0000 
     17 C6A       -12.8830   -7.8810  -11.4180 C.ar      1 NAD401      0.0000 
     18 N6A       -12.5570   -7.1840  -10.1830 N.pl3     1 NAD401      0.0000 
     19 N1A       -13.2380   -9.1510  -11.1750 N.ar      1 NAD401      0.0000 
     20 C2A       -13.5790   -9.9830  -12.1880 C.ar      1 NAD401      0.0000 
     21 N3A       -13.5710   -9.5100  -13.4540 N.ar      1 NAD401      0.0000 
     22 C4A       -13.2040   -8.2160  -13.7010 C.ar      1 NAD401      0.0000 
     23 O3         -9.7910   -5.9630  -21.1300 O.3       1 NAD401      0.0000 
     24 PN         -9.9510   -6.3200  -22.7240 P.3       1 NAD401      0.0000 
     25 O1N        -9.3510   -5.1830  -23.5320 O.co2     1 NAD401      0.0000 
     26 O2N       -11.3800   -6.5930  -23.1330 O.co2     1 NAD401      0.0000 
     27 O5D        -8.9930   -7.6050  -22.9050 O.3       1 NAD401      0.0000 
     28 C5D        -9.4370   -8.8920  -22.5260 C.3       1 NAD401      0.0000 
     29 C4D        -8.5070   -9.9220  -23.2000 C.3       1 NAD401      0.0000 
     30 O4D        -8.6690   -9.8190  -24.5160 O.3       1 NAD401      0.0000 
     31 C3D        -7.0160   -9.6040  -22.8930 C.3       1 NAD401      0.0000 
     32 O3D        -6.2260  -10.6940  -22.7850 O.3       1 NAD401      0.0000 
     33 C2D        -6.5790   -8.8220  -24.1350 C.3       1 NAD401      0.0000 
     34 O2D        -5.0890   -8.9810  -24.2940 O.3       1 NAD401      0.0000 
     35 C1D        -7.2260   -9.4200  -25.1270 C.3       1 NAD401      0.0000 
     36 N1N        -7.3720   -8.6420  -26.3240 N.pl3     1 NAD401      0.0000 
     37 C2N        -7.7820   -7.3060  -26.3110 C.ar      1 NAD401      0.0000 
     38 C3N        -7.9070   -6.5890  -27.5220 C.ar      1 NAD401      0.0000 
     39 C7N        -8.3820   -5.1360  -27.5020 C.2       1 NAD401      0.0000 
     40 O7N        -8.4410   -4.4880  -28.4890 O.2       1 NAD401      0.0000 
     41 N7N        -8.8280   -4.5000  -26.2350 N.am      1 NAD401      0.0000 
     42 C4N        -7.6120   -7.2030  -28.7280 C.ar      1 NAD401      0.0000 
     43 C5N        -7.1900   -8.5210  -28.7560 C.ar      1 NAD401      0.0000 
     44 C6N        -7.0740   -9.2390  -27.5280 C.ar      1 NAD401      0.0000 
     45 H51A      -13.4240   -4.9790  -19.1600 H         1 NAD401      0.0000 
     46 H52A      -12.3000   -4.9830  -18.0250 H         1 NAD401      0.0000 
     47 H4B       -13.5640   -7.4370  -18.7980 H         1 NAD401      0.0000 
     48 H3B       -14.4670   -5.6990  -16.7160 H         1 NAD401      0.0000 
     49 HO3A      -15.4690   -6.0330  -18.8260 H         1 NAD401      0.0000 
     50 H2B       -15.1520   -7.6450  -15.6260 H         1 NAD401      0.0000 
     51 HO2A      -15.2230   -9.6020  -16.8390 H         1 NAD401      0.0000 
     52 H1B       -13.2330   -8.9710  -16.1800 H         1 NAD401      0.0000 
     53 H8A       -12.5450   -5.5600  -15.1150 H         1 NAD401      0.0000 
     54 H61A      -12.3290   -6.3560  -10.2030 H         1 NAD401      0.0000 
     55 H62A      -12.5930   -7.6020   -9.4320 H         1 NAD401      0.0000 
     56 H2A       -13.7930  -10.7990  -11.7970 H         1 NAD401      0.0000 
     57 H51N       -9.3890   -8.9870  -21.5620 H         1 NAD401      0.0000 
     58 H52N      -10.3490   -9.0280  -22.8260 H         1 NAD401      0.0000 
     59 H4D        -8.7250  -10.8200  -22.9070 H         1 NAD401      0.0000 
     60 H3D        -6.9460   -9.0470  -22.1020 H         1 NAD401      0.0000 
     61 HO3N       -6.6900  -11.3570  -22.5270 H         1 NAD401      0.0000 
     62 H2D        -6.8320   -7.8890  -24.0660 H         1 NAD401      0.0000 
     63 HO2N       -4.8730   -9.7900  -24.1480 H         1 NAD401      0.0000 
     64 H1D        -6.7530  -10.2370  -25.3490 H         1 NAD401      0.0000 
     65 H2N        -7.9930   -6.8940  -25.5040 H         1 NAD401      0.0000 
     66 H71N       -9.0980   -3.6830  -26.2350 H         1 NAD401      0.0000 
     67 H72N       -8.8050   -4.9440  -25.5000 H         1 NAD401      0.0000 
     68 H4N        -7.6930   -6.7260  -29.5220 H         1 NAD401      0.0000 
     69 H5N        -6.9890   -8.9340  -29.5650 H         1 NAD401      0.0000 
     70 H6N        -6.7900  -10.1250  -27.5410 H         1 NAD401      0.0000 
@<TRIPOS>BOND
     1    1    2 ar   
     2    1    3 ar   
     3    1    4 1    
     4    1   23 1    
     5    4    5 1    
     6    5    6 1    
     7    5   45 1    
     8    5   46 1    
     9    6    7 1    
    10    6    8 1    
    11    6   47 1    
    12    7   12 1    
    13    8    9 1    
    14    8   10 1    
    15    8   48 1    
    16    9   49 1    
    17   10   11 1    
    18   10   12 1    
    19   10   50 1    
    20   12   52 1    
    21   12   13 1    
    22   11   51 1    
    23   13   14 1    
    24   13   22 1    
    25   14   15 2    
    26   15   16 1    
    27   14   53 1    
    28   16   17 ar   
    29   16   22 ar   
    30   17   18 1    
    31   17   19 ar   
    32   19   20 ar   
    33   18   54 1    
    34   18   55 1    
    35   20   21 ar   
    36   21   22 ar   
    37   20   56 1    
    38   23   24 1    
    39   24   25 ar   
    40   24   26 ar   
    41   24   27 1    
    42   27   28 1    
    43   28   29 1    
    44   28   57 1    
    45   28   58 1    
    46   29   30 1    
    47   29   31 1    
    48   29   59 1    
    49   30   35 1    
    50   31   32 1    
    51   31   33 1    
    52   31   60 1    
    53   32   61 1    
    54   33   34 1    
    55   33   35 1    
    56   33   62 1    
    57   35   64 1    
    58   35   36 1    
    59   34   63 1    
    60   36   37 ar   
    61   36   44 ar   
    62   37   38 ar   
    63   38   39 1    
    64   37   65 1    
    65   38   42 ar   
    66   39   40 2    
    67   39   41 am   
    68   42   43 ar   
    69   41   66 1    
    70   41   67 1    
    71   43   44 ar   
    72   42   68 1    
    73   43   69 1    
    74   44   70 1    
@<TRIPOS>SUBSTRUCTURE
     1 NAD401      1 GROUP   
@<TRIPOS>SET
ATOM$ORANGE STATIC     ATOMS   COLORGROUP SYSTEM 
42 5 5 6 6 8 8 10 10 12 12 14 14 16 16 17 17 20 \
20 22 22 28 28 29 29 31 31 33 33 35 35 37 37 38 38 39 \
39 42 42 43 43 44 44 

