#    Name: 6ad4_5_FAD
#    Modification time : Fri May 22 19:29:53 2020

@<TRIPOS>MOLECULE
6ad4_5_FAD
   53    58     1     0     1
SMALL
NO_CHARGES


@<TRIPOS>ATOM
      1 PA        -47.9700   22.1680   88.5050 P.3       1 FAD3005     0.0000 
      2 O1A       -47.0420   21.2270   87.8190 O.co2     1 FAD3005     0.0000 
      3 O2A       -48.9850   22.9300   87.7170 O.co2     1 FAD3005     0.0000 
      4 O5B       -48.7020   21.4650   89.7730 O.3       1 FAD3005     0.0000 
      5 C5B       -47.9060   20.8200   90.7840 C.3       1 FAD3005     0.0000 
      6 C4B       -48.7660   20.1170   91.7820 C.3       1 FAD3005     0.0000 
      7 O4B       -49.4930   21.0280   92.6790 O.3       1 FAD3005     0.0000 
      8 C3B       -49.7930   19.2590   91.0730 C.3       1 FAD3005     0.0000 
      9 O3B       -49.9530   17.9950   91.7900 O.3       1 FAD3005     0.0000 
     10 C2B       -51.0610   20.0830   91.1830 C.3       1 FAD3005     0.0000 
     11 O2B       -52.2650   19.3090   91.1730 O.3       1 FAD3005     0.0000 
     12 C1B       -50.9190   20.7660   92.4900 C.3       1 FAD3005     0.0000 
     13 N9A       -51.5190   22.0600   92.6850 N.pl3     1 FAD3005     0.0000 
     14 C8A       -51.1640   23.2210   92.1230 C.2       1 FAD3005     0.0000 
     15 N7A       -51.8520   24.2460   92.6370 N.2       1 FAD3005     0.0000 
     16 C5A       -52.6210   23.6930   93.6180 C.ar      1 FAD3005     0.0000 
     17 C6A       -53.5280   24.2260   94.5970 C.ar      1 FAD3005     0.0000 
     18 N6A       -53.7290   25.5500   94.6050 N.pl3     1 FAD3005     0.0000 
     19 N1A       -54.1060   23.3560   95.4860 N.ar      1 FAD3005     0.0000 
     20 C2A       -53.8560   22.0490   95.3850 C.ar      1 FAD3005     0.0000 
     21 N3A       -53.0200   21.4640   94.5100 N.ar      1 FAD3005     0.0000 
     22 C4A       -52.3570   22.2890   93.6680 C.ar      1 FAD3005     0.0000 
     23 N1        -38.5780   23.2070   92.8390 N.2       1 FAD3005     0.0000 
     24 C2        -37.8340   23.6190   93.9020 C.2       1 FAD3005     0.0000 
     25 O2        -38.2780   23.4260   95.0470 O.2       1 FAD3005     0.0000 
     26 N3        -36.6100   24.2330   93.7980 N.am      1 FAD3005     0.0000 
     27 C4        -36.0360   24.4110   92.5920 C.2       1 FAD3005     0.0000 
     28 O4        -34.9370   24.9610   92.4630 O.2       1 FAD3005     0.0000 
     29 C4X       -36.7810   24.0130   91.3870 C.2       1 FAD3005     0.0000 
     30 N5        -36.2480   24.1850   90.1170 N.2       1 FAD3005     0.0000 
     31 C5X       -36.8900   23.6900   89.0370 C.ar      1 FAD3005     0.0000 
     32 C6        -36.2750   23.8190   87.7880 C.ar      1 FAD3005     0.0000 
     33 C7        -36.9610   23.3400   86.6610 C.ar      1 FAD3005     0.0000 
     34 C7M       -36.2930   23.4840   85.2870 C.3       1 FAD3005     0.0000 
     35 C8        -38.2850   22.6960   86.7790 C.ar      1 FAD3005     0.0000 
     36 C8M       -39.0690   22.2140   85.5590 C.3       1 FAD3005     0.0000 
     37 C9        -38.8790   22.5750   88.0290 C.ar      1 FAD3005     0.0000 
     38 C9A       -38.2080   23.0460   89.1490 C.ar      1 FAD3005     0.0000 
     39 N10       -38.8010   22.9760   90.4450 N.pl3     1 FAD3005     0.0000 
     40 C10       -38.0930   23.4010   91.5610 C.2       1 FAD3005     0.0000 
     41 C1'       -40.0870   22.3160   90.6880 C.3       1 FAD3005     0.0000 
     42 C2'       -41.2800   23.1750   90.2210 C.3       1 FAD3005     0.0000 
     43 O2'       -40.9070   24.1650   89.2850 O.3       1 FAD3005     0.0000 
     44 C3'       -41.9620   23.8430   91.3840 C.3       1 FAD3005     0.0000 
     45 O3'       -42.3450   22.8060   92.3610 O.3       1 FAD3005     0.0000 
     46 C4'       -43.1830   24.6370   90.9450 C.3       1 FAD3005     0.0000 
     47 O4'       -43.4060   25.5090   92.0460 O.3       1 FAD3005     0.0000 
     48 C5'       -44.4560   23.8470   90.6710 C.3       1 FAD3005     0.0000 
     49 O5'       -45.5420   24.7890   90.3900 O.3       1 FAD3005     0.0000 
     50 P         -46.4390   24.6030   89.0970 P.3       1 FAD3005     0.0000 
     51 O1P       -47.4930   25.7240   89.1870 O.co2     1 FAD3005     0.0000 
     52 O2P       -45.6720   24.5260   87.8280 O.co2     1 FAD3005     0.0000 
     53 O3P       -47.0620   23.1900   89.4340 O.3       1 FAD3005     0.0000 
@<TRIPOS>BOND
     1    1    2 ar   
     2    1    3 ar   
     3    1    4 1    
     4    1   53 1    
     5    4    5 1    
     6    5    6 1    
     7    6    7 1    
     8    6    8 1    
     9    7   12 1    
    10    8    9 1    
    11    8   10 1    
    12   10   11 1    
    13   10   12 1    
    14   12   13 1    
    15   13   14 1    
    16   13   22 1    
    17   14   15 2    
    18   15   16 1    
    19   16   17 ar   
    20   16   22 ar   
    21   17   18 1    
    22   17   19 ar   
    23   19   20 ar   
    24   20   21 ar   
    25   21   22 ar   
    26   23   24 1    
    27   23   40 2    
    28   24   25 2    
    29   24   26 am   
    30   26   27 am   
    31   27   28 2    
    32   27   29 1    
    33   29   30 2    
    34   29   40 1    
    35   30   31 1    
    36   31   32 ar   
    37   31   38 ar   
    38   32   33 ar   
    39   33   34 1    
    40   33   35 ar   
    41   35   36 1    
    42   35   37 ar   
    43   37   38 ar   
    44   38   39 1    
    45   39   40 1    
    46   39   41 1    
    47   41   42 1    
    48   42   43 1    
    49   42   44 1    
    50   44   45 1    
    51   44   46 1    
    52   46   47 1    
    53   46   48 1    
    54   48   49 1    
    55   49   50 1    
    56   50   51 ar   
    57   50   52 ar   
    58   50   53 1    
@<TRIPOS>SUBSTRUCTURE
     1 FAD3005     1 GROUP   
@<TRIPOS>SET
ATOM$ORANGE STATIC     ATOMS   COLORGROUP SYSTEM 
54 5 5 6 6 8 8 10 10 12 12 14 14 16 16 17 17 20 \
20 22 22 24 24 27 27 29 29 31 31 32 32 33 33 34 34 35 \
35 36 36 37 37 38 38 40 40 41 41 42 42 44 44 46 46 48 \
48 

