#    Name: 6ad4_4_NAI
#    Modification time : Fri May 22 19:29:36 2020

@<TRIPOS>MOLECULE
6ad4_4_NAI
   44    48     1     0     1
SMALL
NO_CHARGES


@<TRIPOS>ATOM
      1 PA        -68.4540   19.6480   18.8370 P.3       1 NAI1506     0.0000 
      2 O1A       -69.3280   18.5990   19.4980 O.co2     1 NAI1506     0.0000 
      3 O2A       -68.8640   21.1290   18.7890 O.co2     1 NAI1506     0.0000 
      4 O5B       -68.3160   19.2640   17.2660 O.3       1 NAI1506     0.0000 
      5 C5B       -67.4160   20.0610   16.5070 C.3       1 NAI1506     0.0000 
      6 C4B       -67.7720   19.7300   15.0680 C.3       1 NAI1506     0.0000 
      7 O4B       -69.1790   19.9380   14.8820 O.3       1 NAI1506     0.0000 
      8 C3B       -67.0810   20.5570   14.0090 C.3       1 NAI1506     0.0000 
      9 O3B       -65.7730   20.0880   13.7640 O.3       1 NAI1506     0.0000 
     10 C2B       -68.0540   20.3770   12.8430 C.3       1 NAI1506     0.0000 
     11 O2B       -68.0570   19.0720   12.2020 O.3       1 NAI1506     0.0000 
     12 C1B       -69.3870   20.4100   13.5360 C.3       1 NAI1506     0.0000 
     13 N9A       -70.0870   21.7220   13.5990 N.pl3     1 NAI1506     0.0000 
     14 C8A       -70.4710   22.3780   14.7320 C.2       1 NAI1506     0.0000 
     15 N7A       -71.1780   23.4960   14.4270 N.2       1 NAI1506     0.0000 
     16 C5A       -71.2150   23.5550   13.0830 C.ar      1 NAI1506     0.0000 
     17 C6A       -71.7830   24.4510   12.0670 C.ar      1 NAI1506     0.0000 
     18 N6A       -72.4250   25.5510   12.5210 N.pl3     1 NAI1506     0.0000 
     19 N1A       -71.6350   24.1490   10.7260 N.ar      1 NAI1506     0.0000 
     20 C2A       -70.9710   23.0530   10.3210 C.ar      1 NAI1506     0.0000 
     21 N3A       -70.4280   22.1940   11.1990 N.ar      1 NAI1506     0.0000 
     22 C4A       -70.5220   22.3740   12.5400 C.ar      1 NAI1506     0.0000 
     23 O3        -66.8950   19.5710   19.2420 O.3       1 NAI1506     0.0000 
     24 PN        -66.3610   19.5930   20.7670 P.3       1 NAI1506     0.0000 
     25 O1N       -67.1010   20.5590   21.6940 O.co2     1 NAI1506     0.0000 
     26 O2N       -64.8990   19.8050   20.5360 O.co2     1 NAI1506     0.0000 
     27 O5D       -66.4640   18.0440   21.3240 O.3       1 NAI1506     0.0000 
     28 C5D       -65.6560   17.0950   20.6660 C.3       1 NAI1506     0.0000 
     29 C4D       -66.4940   15.8530   20.7550 C.3       1 NAI1506     0.0000 
     30 O4D       -65.8700   14.8360   20.0210 O.3       1 NAI1506     0.0000 
     31 C3D       -66.6990   15.2040   22.1550 C.3       1 NAI1506     0.0000 
     32 O3D       -67.7740   15.7530   22.8840 O.3       1 NAI1506     0.0000 
     33 C2D       -67.0410   13.7370   21.8070 C.3       1 NAI1506     0.0000 
     34 O2D       -68.4730   13.5100   21.8510 O.3       1 NAI1506     0.0000 
     35 C1D       -66.4840   13.5680   20.3810 C.3       1 NAI1506     0.0000 
     36 N1N       -65.5040   12.4750   20.1960 N.pl3     1 NAI1506     0.0000 
     37 C2N       -64.3230   12.4990   20.9190 C.2       1 NAI1506     0.0000 
     38 C3N       -63.1940   11.7700   20.4310 C.2       1 NAI1506     0.0000 
     39 C7N       -61.8610   11.7610   21.1360 C.2       1 NAI1506     0.0000 
     40 O7N       -60.8490   11.2430   20.5750 O.2       1 NAI1506     0.0000 
     41 N7N       -61.8280   12.3470   22.2980 N.am      1 NAI1506     0.0000 
     42 C4N       -63.2150   10.9370   19.1690 C.3       1 NAI1506     0.0000 
     43 C5N       -64.5260   11.0000   18.5150 C.2       1 NAI1506     0.0000 
     44 C6N       -65.5850   11.7420   19.0370 C.2       1 NAI1506     0.0000 
@<TRIPOS>BOND
     1    1    2 ar   
     2    1    3 ar   
     3    1    4 1    
     4    1   23 1    
     5    4    5 1    
     6    5    6 1    
     7    6    7 1    
     8    6    8 1    
     9    7   12 1    
    10    8    9 1    
    11    8   10 1    
    12   10   11 1    
    13   10   12 1    
    14   12   13 1    
    15   13   14 1    
    16   13   22 1    
    17   14   15 2    
    18   15   16 1    
    19   16   17 ar   
    20   16   22 ar   
    21   17   18 1    
    22   17   19 ar   
    23   19   20 ar   
    24   20   21 ar   
    25   21   22 ar   
    26   23   24 1    
    27   24   25 ar   
    28   24   26 ar   
    29   24   27 1    
    30   27   28 1    
    31   28   29 1    
    32   29   30 1    
    33   29   31 1    
    34   30   35 1    
    35   31   32 1    
    36   31   33 1    
    37   33   34 1    
    38   33   35 1    
    39   35   36 1    
    40   36   37 1    
    41   36   44 1    
    42   37   38 2    
    43   38   39 1    
    44   38   42 1    
    45   39   40 2    
    46   39   41 am   
    47   42   43 1    
    48   43   44 2    
@<TRIPOS>SUBSTRUCTURE
     1 NAI1506     1 GROUP   
@<TRIPOS>SET
ATOM$ORANGE STATIC     ATOMS   COLORGROUP SYSTEM 
42 5 5 6 6 8 8 10 10 12 12 14 14 16 16 17 17 20 \
20 22 22 28 28 29 29 31 31 33 33 35 35 37 37 38 38 39 \
39 42 42 43 43 44 44 

