#    Name: 6ad4_3_FAD
#    Modification time : Fri May 22 19:29:14 2020

@<TRIPOS>MOLECULE
6ad4_3_FAD
   53    58     1     0     1
SMALL
NO_CHARGES


@<TRIPOS>ATOM
      1 PA        -71.7950   10.5900   30.2570 P.3       1 FAD1505     0.0000 
      2 O1A       -70.6480   11.5000   30.0750 O.co2     1 FAD1505     0.0000 
      3 O2A       -71.9610    9.9810   31.5920 O.co2     1 FAD1505     0.0000 
      4 O5B       -73.1640   11.4240   29.8530 O.3       1 FAD1505     0.0000 
      5 C5B       -73.2680   12.0210   28.5590 C.3       1 FAD1505     0.0000 
      6 C4B       -74.5610   12.8490   28.3880 C.3       1 FAD1505     0.0000 
      7 O4B       -75.6590   11.9670   28.3130 O.3       1 FAD1505     0.0000 
      8 C3B       -74.8310   13.6560   29.6410 C.3       1 FAD1505     0.0000 
      9 O3B       -75.4740   14.9220   29.2500 O.3       1 FAD1505     0.0000 
     10 C2B       -75.7680   12.8690   30.4930 C.3       1 FAD1505     0.0000 
     11 O2B       -76.6310   13.6990   31.3570 O.3       1 FAD1505     0.0000 
     12 C1B       -76.5490   12.1890   29.4310 C.3       1 FAD1505     0.0000 
     13 N9A       -77.1210   10.8760   29.6820 N.pl3     1 FAD1505     0.0000 
     14 C8A       -76.4580    9.7010   29.8350 C.2       1 FAD1505     0.0000 
     15 N7A       -77.3250    8.7200   29.9030 N.2       1 FAD1505     0.0000 
     16 C5A       -78.5640    9.2800   29.7650 C.ar      1 FAD1505     0.0000 
     17 C6A       -79.9170    8.7340   29.7470 C.ar      1 FAD1505     0.0000 
     18 N6A       -80.1080    7.4110   29.8870 N.pl3     1 FAD1505     0.0000 
     19 N1A       -80.9390    9.6330   29.6010 N.ar      1 FAD1505     0.0000 
     20 C2A       -80.6550   10.9260   29.4870 C.ar      1 FAD1505     0.0000 
     21 N3A       -79.4640   11.5510   29.4860 N.ar      1 FAD1505     0.0000 
     22 C4A       -78.4040   10.6900   29.6130 C.ar      1 FAD1505     0.0000 
     23 N1        -68.0830    9.5580   20.4410 N.2       1 FAD1505     0.0000 
     24 C2        -68.3030    9.1790   19.1720 C.2       1 FAD1505     0.0000 
     25 O2        -69.4690    9.3280   18.6460 O.2       1 FAD1505     0.0000 
     26 N3        -67.3460    8.6190   18.4180 N.am      1 FAD1505     0.0000 
     27 C4        -66.0810    8.3960   18.8340 C.2       1 FAD1505     0.0000 
     28 O4        -65.2410    7.8960   18.0570 O.2       1 FAD1505     0.0000 
     29 C4X       -65.7720    8.7620   20.1730 C.2       1 FAD1505     0.0000 
     30 N5        -64.5240    8.5360   20.6650 N.2       1 FAD1505     0.0000 
     31 C5X       -64.2490    9.0210   21.8830 C.ar      1 FAD1505     0.0000 
     32 C6        -62.9470    8.8730   22.3240 C.ar      1 FAD1505     0.0000 
     33 C7        -62.5790    9.2710   23.5740 C.ar      1 FAD1505     0.0000 
     34 C7M       -61.0930    9.0400   23.9570 C.3       1 FAD1505     0.0000 
     35 C8        -63.5910    9.9020   24.4310 C.ar      1 FAD1505     0.0000 
     36 C8M       -63.3170   10.3460   25.8300 C.3       1 FAD1505     0.0000 
     37 C9        -64.8920   10.0490   23.9950 C.ar      1 FAD1505     0.0000 
     38 C9A       -65.2580    9.6310   22.7400 C.ar      1 FAD1505     0.0000 
     39 N10       -66.6000    9.7540   22.2550 N.pl3     1 FAD1505     0.0000 
     40 C10       -66.8360    9.4130   20.9470 C.2       1 FAD1505     0.0000 
     41 C1'       -67.6420   10.3960   23.0770 C.3       1 FAD1505     0.0000 
     42 C2'       -68.1190    9.5760   24.3110 C.3       1 FAD1505     0.0000 
     43 O2'       -67.2350    8.4850   24.6380 O.3       1 FAD1505     0.0000 
     44 C3'       -69.4780    8.9750   24.0680 C.3       1 FAD1505     0.0000 
     45 O3'       -70.4600    9.9800   23.6200 O.3       1 FAD1505     0.0000 
     46 C4'       -70.0260    8.1900   25.2400 C.3       1 FAD1505     0.0000 
     47 O4'       -70.9540    7.3140   24.5660 O.3       1 FAD1505     0.0000 
     48 C5'       -70.7490    9.0060   26.3110 C.3       1 FAD1505     0.0000 
     49 O5'       -71.2950    8.0400   27.2170 O.3       1 FAD1505     0.0000 
     50 P         -71.1120    8.1740   28.7820 P.3       1 FAD1505     0.0000 
     51 O1P       -71.8810    7.0470   29.4120 O.co2     1 FAD1505     0.0000 
     52 O2P       -69.6300    8.3040   29.1040 O.co2     1 FAD1505     0.0000 
     53 O3P       -71.8010    9.6150   28.9910 O.3       1 FAD1505     0.0000 
@<TRIPOS>BOND
     1    1    2 ar   
     2    1    3 ar   
     3    1    4 1    
     4    1   53 1    
     5    4    5 1    
     6    5    6 1    
     7    6    7 1    
     8    6    8 1    
     9    7   12 1    
    10    8    9 1    
    11    8   10 1    
    12   10   11 1    
    13   10   12 1    
    14   12   13 1    
    15   13   14 1    
    16   13   22 1    
    17   14   15 2    
    18   15   16 1    
    19   16   17 ar   
    20   16   22 ar   
    21   17   18 1    
    22   17   19 ar   
    23   19   20 ar   
    24   20   21 ar   
    25   21   22 ar   
    26   23   24 1    
    27   23   40 2    
    28   24   25 2    
    29   24   26 am   
    30   26   27 am   
    31   27   28 2    
    32   27   29 1    
    33   29   30 2    
    34   29   40 1    
    35   30   31 1    
    36   31   32 ar   
    37   31   38 ar   
    38   32   33 ar   
    39   33   34 1    
    40   33   35 ar   
    41   35   36 1    
    42   35   37 ar   
    43   37   38 ar   
    44   38   39 1    
    45   39   40 1    
    46   39   41 1    
    47   41   42 1    
    48   42   43 1    
    49   42   44 1    
    50   44   45 1    
    51   44   46 1    
    52   46   47 1    
    53   46   48 1    
    54   48   49 1    
    55   49   50 1    
    56   50   51 ar   
    57   50   52 ar   
    58   50   53 1    
@<TRIPOS>SUBSTRUCTURE
     1 FAD1505     1 GROUP   
@<TRIPOS>SET
ATOM$ORANGE STATIC     ATOMS   COLORGROUP SYSTEM 
54 5 5 6 6 8 8 10 10 12 12 14 14 16 16 17 17 20 \
20 22 22 24 24 27 27 29 29 31 31 32 32 33 33 34 34 35 \
35 36 36 37 37 38 38 40 40 41 41 42 42 44 44 46 46 48 \
48 

