#    Name: 6ff4_1_GTP
#    Modification time : Fri May 22 19:26:26 2020

@<TRIPOS>MOLECULE
6ff4_1_GTP
   32    34     1     0     1
SMALL
NO_CHARGES


@<TRIPOS>ATOM
      1 PG        253.2670  295.9120  191.7520 P.3       1 GTP1500     0.0000 
      2 O1G       253.2990  294.5850  191.0450 O.co2     1 GTP1500     0.0000 
      3 O2G       254.1690  296.8950  191.0750 O.co2     1 GTP1500     0.0000 
      4 O3G       253.8180  295.7750  193.1320 O.co2     1 GTP1500     0.0000 
      5 O3B       251.7780  296.4880  191.9110 O.3       1 GTP1500     0.0000 
      6 PB        250.9880  296.9690  190.6180 P.3       1 GTP1500     0.0000 
      7 O1B       251.8370  296.4780  189.5010 O.co2     1 GTP1500     0.0000 
      8 O2B       250.8380  298.4590  190.6030 O.co2     1 GTP1500     0.0000 
      9 O3A       249.5900  296.2080  190.4550 O.3       1 GTP1500     0.0000 
     10 PA        248.7440  295.6400  191.6790 P.3       1 GTP1500     0.0000 
     11 O1A       247.5620  294.8610  191.1760 O.co2     1 GTP1500     0.0000 
     12 O2A       249.5930  294.7770  192.5670 O.co2     1 GTP1500     0.0000 
     13 O5'       248.2710  296.9500  192.4600 O.3       1 GTP1500     0.0000 
     14 C5'       248.0050  296.8650  193.8350 C.3       1 GTP1500     0.0000 
     15 C4'       246.5260  297.0390  194.1160 C.3       1 GTP1500     0.0000 
     16 O4'       246.0060  298.0770  193.3260 O.3       1 GTP1500     0.0000 
     17 C3'       245.7250  295.8030  193.7860 C.3       1 GTP1500     0.0000 
     18 O3'       245.3880  295.1380  194.9730 O.3       1 GTP1500     0.0000 
     19 C2'       244.4700  296.3210  193.1350 C.3       1 GTP1500     0.0000 
     20 O2'       243.3600  296.0080  193.9320 O.3       1 GTP1500     0.0000 
     21 C1'       244.6490  297.8200  193.0770 C.3       1 GTP1500     0.0000 
     22 N9        244.3170  298.2870  191.7400 N.pl3     1 GTP1500     0.0000 
     23 C8        244.8920  297.8990  190.5720 C.2       1 GTP1500     0.0000 
     24 N7        244.2950  298.5760  189.5740 N.2       1 GTP1500     0.0000 
     25 C5        243.3590  299.3810  190.1040 C.2       1 GTP1500     0.0000 
     26 C6        242.4790  300.2790  189.5490 C.2       1 GTP1500     0.0000 
     27 O6        242.4530  300.4400  188.3390 O.2       1 GTP1500     0.0000 
     28 N1        241.6120  300.9800  190.3430 N.am      1 GTP1500     0.0000 
     29 C2        241.6330  300.7860  191.6960 C.2       1 GTP1500     0.0000 
     30 N2        240.8030  301.4650  192.4780 N.pl3     1 GTP1500     0.0000 
     31 N3        242.5200  299.9000  192.2460 N.2       1 GTP1500     0.0000 
     32 C4        243.3630  299.2080  191.4610 C.2       1 GTP1500     0.0000 
@<TRIPOS>BOND
     1    1    2 ar   
     2    1    3 ar   
     3    1    4 ar   
     4    1    5 1    
     5    5    6 1    
     6    6    7 ar   
     7    6    8 ar   
     8    6    9 1    
     9    9   10 1    
    10   10   11 ar   
    11   10   12 ar   
    12   10   13 1    
    13   13   14 1    
    14   14   15 1    
    15   15   16 1    
    16   15   17 1    
    17   16   21 1    
    18   17   18 1    
    19   17   19 1    
    20   19   20 1    
    21   19   21 1    
    22   21   22 1    
    23   22   23 1    
    24   22   32 1    
    25   23   24 2    
    26   24   25 1    
    27   25   26 1    
    28   25   32 2    
    29   26   27 2    
    30   26   28 am   
    31   28   29 1    
    32   29   30 1    
    33   29   31 2    
    34   31   32 1    
@<TRIPOS>SUBSTRUCTURE
     1 GTP1500     1 GROUP   
@<TRIPOS>SET
ATOM$ORANGE STATIC     ATOMS   COLORGROUP SYSTEM 
20 14 14 15 15 17 17 19 19 21 21 23 23 25 25 26 26 29 \
29 32 32 

