#    Name: 6oax_1_AGS
#    Modification time : Fri May 22 19:29:09 2020

@<TRIPOS>MOLECULE
6oax_1_AGS
   31    33     1     0     0
SMALL
NO_CHARGES


@<TRIPOS>ATOM
      1 PG        146.5750  149.7750  149.6120 P.3       1 AGS901      0.0000 
      2 S1G       147.6440  150.6820  148.2590 S.2       1 AGS901      0.0000 
      3 O2G       145.0680  149.9240  149.2720 O.3       1 AGS901      0.0000 
      4 O3G       146.9390  148.2650  149.6620 O.3       1 AGS901      0.0000 
      5 PB        148.0810  149.8150  151.8100 P.3       1 AGS901      0.0000 
      6 O1B       149.0880  149.3100  150.8660 O.co2     1 AGS901      0.0000 
      7 O2B       147.4850  148.7090  152.6730 O.co2     1 AGS901      0.0000 
      8 O3B       146.8660  150.3890  151.0060 O.3       1 AGS901      0.0000 
      9 PA        149.7460  151.8990  152.3230 P.3       1 AGS901      0.0000 
     10 O1A       150.9360  151.8880  153.1670 O.co2     1 AGS901      0.0000 
     11 O2A       149.9720  151.5800  150.8490 O.co2     1 AGS901      0.0000 
     12 O3A       148.6720  150.8730  152.8190 O.3       1 AGS901      0.0000 
     13 O5'       149.0980  153.3150  152.4840 O.3       1 AGS901      0.0000 
     14 C5'       148.9990  153.9310  153.7700 C.3       1 AGS901      0.0000 
     15 C4'       149.6150  155.3070  153.7290 C.3       1 AGS901      0.0000 
     16 O4'       149.8950  155.7380  155.0710 O.3       1 AGS901      0.0000 
     17 C3'       150.9460  155.4260  153.0010 C.3       1 AGS901      0.0000 
     18 O3'       151.1440  156.7580  152.5430 O.3       1 AGS901      0.0000 
     19 C2'       151.9550  155.0740  154.0930 C.3       1 AGS901      0.0000 
     20 O2'       153.1790  155.7690  153.8920 O.3       1 AGS901      0.0000 
     21 C1'       151.2720  155.6000  155.3580 C.3       1 AGS901      0.0000 
     22 N9        151.4040  154.7230  156.5120 N.pl3     1 AGS901      0.0000 
     23 C8        150.6200  153.6450  156.8210 C.2       1 AGS901      0.0000 
     24 N7        150.9680  153.0300  157.9230 N.2       1 AGS901      0.0000 
     25 C5        152.0550  153.7580  158.3750 C.ar      1 AGS901      0.0000 
     26 C6        152.8820  153.6230  159.5030 C.ar      1 AGS901      0.0000 
     27 N6        152.7350  152.6630  160.4180 N.pl3     1 AGS901      0.0000 
     28 N1        153.8800  154.5190  159.6600 N.ar      1 AGS901      0.0000 
     29 C2        154.0310  155.4810  158.7460 C.ar      1 AGS901      0.0000 
     30 N3        153.3170  155.7060  157.6420 N.ar      1 AGS901      0.0000 
     31 C4        152.3370  154.8040  157.5140 C.ar      1 AGS901      0.0000 
@<TRIPOS>BOND
     1    1    2 2    
     2    1    3 1    
     3    1    4 1    
     4    1    8 1    
     5    5    6 ar   
     6    5    7 ar   
     7    5    8 1    
     8    5   12 1    
     9    9   10 ar   
    10    9   11 ar   
    11    9   12 1    
    12    9   13 1    
    13   13   14 1    
    14   14   15 1    
    15   15   16 1    
    16   15   17 1    
    17   16   21 1    
    18   17   18 1    
    19   17   19 1    
    20   19   20 1    
    21   19   21 1    
    22   21   22 1    
    23   22   23 1    
    24   22   31 1    
    25   23   24 2    
    26   24   25 1    
    27   25   26 ar   
    28   25   31 ar   
    29   26   27 1    
    30   26   28 ar   
    31   28   29 ar   
    32   29   30 ar   
    33   30   31 ar   
@<TRIPOS>SUBSTRUCTURE
     1 AGS901      1 GROUP   
@<TRIPOS>SET

