#    Name: 6oax_7_AGS
#    Modification time : Fri May 22 19:30:33 2020

@<TRIPOS>MOLECULE
6oax_7_AGS
   31    33     1     0     0
SMALL
NO_CHARGES


@<TRIPOS>ATOM
      1 PG        110.4490  102.4540  140.9400 P.3       1 AGS902      0.0000 
      2 S1G       110.7850  102.2240  142.8230 S.2       1 AGS902      0.0000 
      3 O2G       109.3220  103.4880  140.7700 O.3       1 AGS902      0.0000 
      4 O3G       111.7220  102.9810  140.2500 O.3       1 AGS902      0.0000 
      5 PB        111.0700  100.4020  139.3250 P.3       1 AGS902      0.0000 
      6 O1B       111.7870  101.4430  138.5830 O.co2     1 AGS902      0.0000 
      7 O2B       110.2110   99.4220  138.5520 O.co2     1 AGS902      0.0000 
      8 O3B       110.0790  101.0950  140.3100 O.3       1 AGS902      0.0000 
      9 PA        112.7390   98.3130  139.2980 P.3       1 AGS902      0.0000 
     10 O1A       111.9570   98.0350  138.1660 O.co2     1 AGS902      0.0000 
     11 O2A       114.1590   98.7410  138.9770 O.co2     1 AGS902      0.0000 
     12 O3A       112.0920   99.4910  140.0640 O.3       1 AGS902      0.0000 
     13 O5'       112.7580   97.0670  140.2230 O.3       1 AGS902      0.0000 
     14 C5'       113.7870   96.9230  141.1880 C.3       1 AGS902      0.0000 
     15 C4'       114.5170   95.6320  140.9570 C.3       1 AGS902      0.0000 
     16 O4'       113.6210   94.5420  141.2260 O.3       1 AGS902      0.0000 
     17 C3'       115.0160   95.4220  139.5350 C.3       1 AGS902      0.0000 
     18 O3'       116.3700   95.8390  139.4130 O.3       1 AGS902      0.0000 
     19 C2'       114.9310   93.9130  139.3550 C.3       1 AGS902      0.0000 
     20 O2'       116.1360   93.2920  139.7730 O.3       1 AGS902      0.0000 
     21 C1'       113.7520   93.5360  140.2470 C.3       1 AGS902      0.0000 
     22 N9        112.4880   93.4460  139.5470 N.pl3     1 AGS902      0.0000 
     23 C8        111.4080   94.2550  139.7350 C.2       1 AGS902      0.0000 
     24 N7        110.3790   93.9550  138.9870 N.2       1 AGS902      0.0000 
     25 C5        110.8220   92.8810  138.2420 C.ar      1 AGS902      0.0000 
     26 C6        110.2000   92.0920  137.2610 C.ar      1 AGS902      0.0000 
     27 N6        108.9570   92.2950  136.8270 N.pl3     1 AGS902      0.0000 
     28 N1        110.9130   91.0860  136.7280 N.ar      1 AGS902      0.0000 
     29 C2        112.1580   90.8790  137.1540 C.ar      1 AGS902      0.0000 
     30 N3        112.8500   91.5560  138.0680 N.ar      1 AGS902      0.0000 
     31 C4        112.1180   92.5500  138.5790 C.ar      1 AGS902      0.0000 
@<TRIPOS>BOND
     1    1    2 2    
     2    1    3 1    
     3    1    4 1    
     4    1    8 1    
     5    5    6 ar   
     6    5    7 ar   
     7    5    8 1    
     8    5   12 1    
     9    9   10 ar   
    10    9   11 ar   
    11    9   12 1    
    12    9   13 1    
    13   13   14 1    
    14   14   15 1    
    15   15   16 1    
    16   15   17 1    
    17   16   21 1    
    18   17   18 1    
    19   17   19 1    
    20   19   20 1    
    21   19   21 1    
    22   21   22 1    
    23   22   23 1    
    24   22   31 1    
    25   23   24 2    
    26   24   25 1    
    27   25   26 ar   
    28   25   31 ar   
    29   26   27 1    
    30   26   28 ar   
    31   28   29 ar   
    32   29   30 ar   
    33   30   31 ar   
@<TRIPOS>SUBSTRUCTURE
     1 AGS902      1 GROUP   
@<TRIPOS>SET

