#    Name: 6oax_6_AGS
#    Modification time : Fri May 22 19:30:18 2020

@<TRIPOS>MOLECULE
6oax_6_AGS
   31    33     1     0     0
SMALL
NO_CHARGES


@<TRIPOS>ATOM
      1 PG        133.6770  122.3820  101.0670 P.3       1 AGS901      0.0000 
      2 S1G       135.0670  122.9720   99.8370 S.2       1 AGS901      0.0000 
      3 O2G       133.1250  123.5690  101.8850 O.3       1 AGS901      0.0000 
      4 O3G       134.3140  121.4410  102.0960 O.3       1 AGS901      0.0000 
      5 PB        132.1030  121.7800   98.8860 P.3       1 AGS901      0.0000 
      6 O1B       131.0750  122.8100   98.7980 O.co2     1 AGS901      0.0000 
      7 O2B       133.3900  122.0570   98.1470 O.co2     1 AGS901      0.0000 
      8 O3B       132.5400  121.5860  100.3750 O.3       1 AGS901      0.0000 
      9 PA        132.3910  119.8210   97.0050 P.3       1 AGS901      0.0000 
     10 O1A       131.8500  120.1520   95.7300 O.co2     1 AGS901      0.0000 
     11 O2A       133.8730  120.1330   97.1430 O.co2     1 AGS901      0.0000 
     12 O3A       131.6190  120.4730   98.1960 O.3       1 AGS901      0.0000 
     13 O5'       132.1930  118.3090   97.1760 O.3       1 AGS901      0.0000 
     14 C5'       130.9090  117.7410   97.2090 C.3       1 AGS901      0.0000 
     15 C4'       130.9970  116.3930   96.5630 C.3       1 AGS901      0.0000 
     16 O4'       129.8090  116.1780   95.7870 O.3       1 AGS901      0.0000 
     17 C3'       132.1340  116.2150   95.5720 C.3       1 AGS901      0.0000 
     18 O3'       132.3820  114.8360   95.3450 O.3       1 AGS901      0.0000 
     19 C2'       131.5450  116.8000   94.2990 C.3       1 AGS901      0.0000 
     20 O2'       132.1480  116.1870   93.1690 O.3       1 AGS901      0.0000 
     21 C1'       130.0830  116.3750   94.4140 C.3       1 AGS901      0.0000 
     22 N9        129.1330  117.3450   93.9120 N.pl3     1 AGS901      0.0000 
     23 C8        128.6280  118.4210   94.5820 C.2       1 AGS901      0.0000 
     24 N7        127.7800  119.1320   93.8870 N.2       1 AGS901      0.0000 
     25 C5        127.7120  118.4690   92.6760 C.ar      1 AGS901      0.0000 
     26 C6        126.9750  118.7070   91.5080 C.ar      1 AGS901      0.0000 
     27 N6        126.1400  119.7340   91.3540 N.pl3     1 AGS901      0.0000 
     28 N1        127.1300  117.8440   90.4890 N.ar      1 AGS901      0.0000 
     29 C2        127.9680  116.8180   90.6330 C.ar      1 AGS901      0.0000 
     30 N3        128.7170  116.4960   91.6820 N.ar      1 AGS901      0.0000 
     31 C4        128.5360  117.3620   92.6810 C.ar      1 AGS901      0.0000 
@<TRIPOS>BOND
     1    1    2 2    
     2    1    3 1    
     3    1    4 1    
     4    1    8 1    
     5    5    6 ar   
     6    5    7 ar   
     7    5    8 1    
     8    5   12 1    
     9    9   10 ar   
    10    9   11 ar   
    11    9   12 1    
    12    9   13 1    
    13   13   14 1    
    14   14   15 1    
    15   15   16 1    
    16   15   17 1    
    17   16   21 1    
    18   17   18 1    
    19   17   19 1    
    20   19   20 1    
    21   19   21 1    
    22   21   22 1    
    23   22   23 1    
    24   22   31 1    
    25   23   24 2    
    26   24   25 1    
    27   25   26 ar   
    28   25   31 ar   
    29   26   27 1    
    30   26   28 ar   
    31   28   29 ar   
    32   29   30 ar   
    33   30   31 ar   
@<TRIPOS>SUBSTRUCTURE
     1 AGS901      1 GROUP   
@<TRIPOS>SET

