#    Name: 6oax_11_ADP
#    Modification time : Fri May 22 19:31:30 2020

@<TRIPOS>MOLECULE
6oax_11_ADP
   27    29     1     0     1
SMALL
NO_CHARGES


@<TRIPOS>ATOM
      1 PB        140.1310  167.4720  124.5830 P.3       1 ADP901      0.0000 
      2 O1B       141.4620  166.8990  124.1680 O.co2     1 ADP901      0.0000 
      3 O2B       140.1720  168.2950  125.8450 O.co2     1 ADP901      0.0000 
      4 O3B       138.9890  166.4870  124.5390 O.co2     1 ADP901      0.0000 
      5 PA        140.7500  169.7220  123.0000 P.3       1 ADP901      0.0000 
      6 O1A       141.7800  169.1520  122.0530 O.co2     1 ADP901      0.0000 
      7 O2A       141.2030  170.4520  124.2390 O.co2     1 ADP901      0.0000 
      8 O3A       139.7630  168.5190  123.4130 O.3       1 ADP901      0.0000 
      9 O5'       139.8390  170.7380  122.1550 O.3       1 ADP901      0.0000 
     10 C5'       138.8270  171.5180  122.7760 C.3       1 ADP901      0.0000 
     11 C4'       138.8330  172.9070  122.1590 C.3       1 ADP901      0.0000 
     12 O4'       137.7420  173.6830  122.6570 O.3       1 ADP901      0.0000 
     13 C3'       140.1160  173.6160  122.5430 C.3       1 ADP901      0.0000 
     14 O3'       140.8600  173.9610  121.3730 O.3       1 ADP901      0.0000 
     15 C2'       139.6890  174.8760  123.2510 C.3       1 ADP901      0.0000 
     16 O2'       140.2870  175.9830  122.5830 O.3       1 ADP901      0.0000 
     17 C1'       138.1810  174.9620  123.1140 C.3       1 ADP901      0.0000 
     18 N9        137.5300  175.2430  124.4170 N.pl3     1 ADP901      0.0000 
     19 C8        136.5370  174.4980  124.9320 C.2       1 ADP901      0.0000 
     20 N7        136.1190  174.9820  126.1270 N.2       1 ADP901      0.0000 
     21 C5        136.8530  176.0720  126.3940 C.ar      1 ADP901      0.0000 
     22 C6        136.9170  177.0570  127.4950 C.ar      1 ADP901      0.0000 
     23 N6        136.0960  176.9580  128.5640 N.pl3     1 ADP901      0.0000 
     24 N1        137.8190  178.0540  127.3940 N.ar      1 ADP901      0.0000 
     25 C2        138.6320  178.1560  126.3280 C.ar      1 ADP901      0.0000 
     26 N3        138.6290  177.3010  125.2950 N.ar      1 ADP901      0.0000 
     27 C4        137.7770  176.2510  125.2620 C.ar      1 ADP901      0.0000 
@<TRIPOS>BOND
     1    1    2 ar   
     2    1    3 ar   
     3    1    4 ar   
     4    1    8 1    
     5    5    6 ar   
     6    5    7 ar   
     7    5    8 1    
     8    5    9 1    
     9    9   10 1    
    10   10   11 1    
    11   11   12 1    
    12   11   13 1    
    13   12   17 1    
    14   13   14 1    
    15   13   15 1    
    16   15   16 1    
    17   15   17 1    
    18   17   18 1    
    19   18   19 1    
    20   18   27 1    
    21   19   20 2    
    22   20   21 1    
    23   21   22 ar   
    24   21   27 ar   
    25   22   23 1    
    26   22   24 ar   
    27   24   25 ar   
    28   25   26 ar   
    29   26   27 ar   
@<TRIPOS>SUBSTRUCTURE
     1 ADP901      1 GROUP   
@<TRIPOS>SET
ATOM$ORANGE STATIC     ATOMS   COLORGROUP SYSTEM 
20 10 10 11 11 13 13 15 15 17 17 19 19 21 21 22 22 25 \
25 27 27 

