#    Name: 6oax_5_AGS
#    Modification time : Fri May 22 19:30:06 2020

@<TRIPOS>MOLECULE
6oax_5_AGS
   31    33     1     0     0
SMALL
NO_CHARGES


@<TRIPOS>ATOM
      1 PG        120.6530  112.1500  166.9810 P.3       1 AGS902      0.0000 
      2 S1G       121.9980  112.4820  165.6010 S.2       1 AGS902      0.0000 
      3 O2G       120.6850  113.2720  168.0370 O.3       1 AGS902      0.0000 
      4 O3G       119.2260  112.2000  166.3930 O.3       1 AGS902      0.0000 
      5 PB        122.2670  110.0770  167.8370 P.3       1 AGS902      0.0000 
      6 O1B       122.8510  109.5900  166.6070 O.co2     1 AGS902      0.0000 
      7 O2B       121.9540  108.8870  168.7160 O.co2     1 AGS902      0.0000 
      8 O3B       120.8730  110.7690  167.6460 O.3       1 AGS902      0.0000 
      9 PA        124.7270  110.2660  168.8270 P.3       1 AGS902      0.0000 
     10 O1A       125.7940  111.0300  168.2160 O.co2     1 AGS902      0.0000 
     11 O2A       124.5290  108.8980  168.2160 O.co2     1 AGS902      0.0000 
     12 O3A       123.3210  110.8970  168.6290 O.3       1 AGS902      0.0000 
     13 O5'       124.9950  110.1740  170.3610 O.3       1 AGS902      0.0000 
     14 C5'       125.5440  111.2800  171.0720 C.3       1 AGS902      0.0000 
     15 C4'       126.8390  110.8880  171.7280 C.3       1 AGS902      0.0000 
     16 O4'       126.5570  110.0560  172.8660 O.3       1 AGS902      0.0000 
     17 C3'       127.7840  110.0850  170.8470 C.3       1 AGS902      0.0000 
     18 O3'       128.7160  110.9390  170.1950 O.3       1 AGS902      0.0000 
     19 C2'       128.4940  109.1800  171.8430 C.3       1 AGS902      0.0000 
     20 O2'       129.5890  109.8720  172.4190 O.3       1 AGS902      0.0000 
     21 C1'       127.4020  108.9250  172.8760 C.3       1 AGS902      0.0000 
     22 N9        126.5750  107.7630  172.6150 N.pl3     1 AGS902      0.0000 
     23 C8        125.2380  107.7740  172.3420 C.2       1 AGS902      0.0000 
     24 N7        124.7200  106.5870  172.1620 N.2       1 AGS902      0.0000 
     25 C5        125.7920  105.7340  172.3400 C.ar      1 AGS902      0.0000 
     26 C6        125.9050  104.3350  172.2810 C.ar      1 AGS902      0.0000 
     27 N6        124.8850  103.5190  172.0100 N.pl3     1 AGS902      0.0000 
     28 N1        127.1180  103.7990  172.5010 N.ar      1 AGS902      0.0000 
     29 C2        128.1410  104.6080  172.7730 C.ar      1 AGS902      0.0000 
     30 N3        128.1560  105.9380  172.8550 N.ar      1 AGS902      0.0000 
     31 C4        126.9430  106.4430  172.6200 C.ar      1 AGS902      0.0000 
@<TRIPOS>BOND
     1    1    2 2    
     2    1    3 1    
     3    1    4 1    
     4    1    8 1    
     5    5    6 ar   
     6    5    7 ar   
     7    5    8 1    
     8    5   12 1    
     9    9   10 ar   
    10    9   11 ar   
    11    9   12 1    
    12    9   13 1    
    13   13   14 1    
    14   14   15 1    
    15   15   16 1    
    16   15   17 1    
    17   16   21 1    
    18   17   18 1    
    19   17   19 1    
    20   19   20 1    
    21   19   21 1    
    22   21   22 1    
    23   22   23 1    
    24   22   31 1    
    25   23   24 2    
    26   24   25 1    
    27   25   26 ar   
    28   25   31 ar   
    29   26   27 1    
    30   26   28 ar   
    31   28   29 ar   
    32   29   30 ar   
    33   30   31 ar   
@<TRIPOS>SUBSTRUCTURE
     1 AGS902      1 GROUP   
@<TRIPOS>SET

