#    Name: 6oax_12_ADP
#    Modification time : Fri May 22 19:31:51 2020

@<TRIPOS>MOLECULE
6oax_12_ADP
   27    29     1     0     1
SMALL
NO_CHARGES


@<TRIPOS>ATOM
      1 PB         98.3580  152.6890  120.4080 P.3       1 ADP902      0.0000 
      2 O1B        98.9300  153.0380  119.0560 O.co2     1 ADP902      0.0000 
      3 O2B        98.5320  153.7580  121.4570 O.co2     1 ADP902      0.0000 
      4 O3B        98.6770  151.2910  120.8780 O.co2     1 ADP902      0.0000 
      5 PA         96.0550  151.8850  118.9780 P.3       1 ADP902      0.0000 
      6 O1A        96.9410  150.7690  118.4860 O.co2     1 ADP902      0.0000 
      7 O2A        94.6600  151.5620  119.4510 O.co2     1 ADP902      0.0000 
      8 O3A        96.7660  152.6740  120.1870 O.3       1 ADP902      0.0000 
      9 O5'        95.9010  152.9890  117.8200 O.3       1 ADP902      0.0000 
     10 C5'        96.6660  153.0070  116.6190 C.3       1 ADP902      0.0000 
     11 C4'        95.7080  153.5900  115.5880 C.3       1 ADP902      0.0000 
     12 O4'        95.3980  154.9590  115.8620 O.3       1 ADP902      0.0000 
     13 C3'        96.2100  153.5670  114.1540 C.3       1 ADP902      0.0000 
     14 O3'        95.7440  152.3930  113.4800 O.3       1 ADP902      0.0000 
     15 C2'        95.5890  154.7980  113.5270 C.3       1 ADP902      0.0000 
     16 O2'        94.6580  154.4130  112.5160 O.3       1 ADP902      0.0000 
     17 C1'        94.8450  155.4860  114.6550 C.3       1 ADP902      0.0000 
     18 N9         94.9730  156.9540  114.4990 N.pl3     1 ADP902      0.0000 
     19 C8         96.1220  157.6350  114.3560 C.2       1 ADP902      0.0000 
     20 N7         95.8790  158.9580  114.2080 N.2       1 ADP902      0.0000 
     21 C5         94.5520  159.1390  114.2510 C.ar      1 ADP902      0.0000 
     22 C6         93.6310  160.2900  114.1590 C.ar      1 ADP902      0.0000 
     23 N6         94.0920  161.5510  113.9900 N.pl3     1 ADP902      0.0000 
     24 N1         92.3090  160.0410  114.2430 N.ar      1 ADP902      0.0000 
     25 C2         91.8330  158.7950  114.4100 C.ar      1 ADP902      0.0000 
     26 N3         92.6120  157.7060  114.5030 N.ar      1 ADP902      0.0000 
     27 C4         93.9570  157.8120  114.4320 C.ar      1 ADP902      0.0000 
@<TRIPOS>BOND
     1    1    2 ar   
     2    1    3 ar   
     3    1    4 ar   
     4    1    8 1    
     5    5    6 ar   
     6    5    7 ar   
     7    5    8 1    
     8    5    9 1    
     9    9   10 1    
    10   10   11 1    
    11   11   12 1    
    12   11   13 1    
    13   12   17 1    
    14   13   14 1    
    15   13   15 1    
    16   15   16 1    
    17   15   17 1    
    18   17   18 1    
    19   18   19 1    
    20   18   27 1    
    21   19   20 2    
    22   20   21 1    
    23   21   22 ar   
    24   21   27 ar   
    25   22   23 1    
    26   22   24 ar   
    27   24   25 ar   
    28   25   26 ar   
    29   26   27 ar   
@<TRIPOS>SUBSTRUCTURE
     1 ADP902      1 GROUP   
@<TRIPOS>SET
ATOM$ORANGE STATIC     ATOMS   COLORGROUP SYSTEM 
20 10 10 11 11 13 13 15 15 17 17 19 19 21 21 22 22 25 \
25 27 27 

