#    Name: 6oax_8_AGS
#    Modification time : Fri May 22 19:30:46 2020

@<TRIPOS>MOLECULE
6oax_8_AGS
   31    33     1     0     0
SMALL
NO_CHARGES


@<TRIPOS>ATOM
      1 PG        136.2540  150.6670  100.1020 P.3       1 AGS901      0.0000 
      2 S1G       137.9540  151.5590   99.7550 S.2       1 AGS901      0.0000 
      3 O2G       136.2130  149.3210   99.3420 O.3       1 AGS901      0.0000 
      4 O3G       136.1950  150.3540  101.6180 O.3       1 AGS901      0.0000 
      5 PB        135.0550  152.7220   98.6970 P.3       1 AGS901      0.0000 
      6 O1B       134.7430  153.9550   99.4180 O.co2     1 AGS901      0.0000 
      7 O2B       136.4280  152.6780   98.0430 O.co2     1 AGS901      0.0000 
      8 O3B       135.0010  151.4860   99.6760 O.3       1 AGS901      0.0000 
      9 PA        134.5120  152.7370   96.0240 P.3       1 AGS901      0.0000 
     10 O1A       134.3840  154.0980   95.5660 O.co2     1 AGS901      0.0000 
     11 O2A       135.9190  152.1530   95.9060 O.co2     1 AGS901      0.0000 
     12 O3A       134.0360  152.5900   97.5170 O.3       1 AGS901      0.0000 
     13 O5'       133.5010  151.8850   95.1940 O.3       1 AGS901      0.0000 
     14 C5'       132.1000  152.0910   95.3290 C.3       1 AGS901      0.0000 
     15 C4'       131.4950  152.0540   93.9560 C.3       1 AGS901      0.0000 
     16 O4'       130.5640  153.1460   93.8340 O.3       1 AGS901      0.0000 
     17 C3'       132.4780  152.2190   92.8010 C.3       1 AGS901      0.0000 
     18 O3'       132.0370  151.5360   91.6360 O.3       1 AGS901      0.0000 
     19 C2'       132.4610  153.7230   92.5650 C.3       1 AGS901      0.0000 
     20 O2'       132.7590  154.0390   91.2130 O.3       1 AGS901      0.0000 
     21 C1'       131.0010  154.0470   92.8390 C.3       1 AGS901      0.0000 
     22 N9        130.7610  155.3950   93.3140 N.pl3     1 AGS901      0.0000 
     23 C8        130.7610  155.8340   94.6090 C.2       1 AGS901      0.0000 
     24 N7        130.4960  157.1100   94.7390 N.2       1 AGS901      0.0000 
     25 C5        130.2970  157.5360   93.4370 C.ar      1 AGS901      0.0000 
     26 C6        129.9800  158.7890   92.8890 C.ar      1 AGS901      0.0000 
     27 N6        129.7940  159.8900   93.6160 N.pl3     1 AGS901      0.0000 
     28 N1        129.8500  158.8710   91.5490 N.ar      1 AGS901      0.0000 
     29 C2        130.0320  157.7730   90.8150 C.ar      1 AGS901      0.0000 
     30 N3        130.3390  156.5420   91.2200 N.ar      1 AGS901      0.0000 
     31 C4        130.4550  156.4890   92.5500 C.ar      1 AGS901      0.0000 
@<TRIPOS>BOND
     1    1    2 2    
     2    1    3 1    
     3    1    4 1    
     4    1    8 1    
     5    5    6 ar   
     6    5    7 ar   
     7    5    8 1    
     8    5   12 1    
     9    9   10 ar   
    10    9   11 ar   
    11    9   12 1    
    12    9   13 1    
    13   13   14 1    
    14   14   15 1    
    15   15   16 1    
    16   15   17 1    
    17   16   21 1    
    18   17   18 1    
    19   17   19 1    
    20   19   20 1    
    21   19   21 1    
    22   21   22 1    
    23   22   23 1    
    24   22   31 1    
    25   23   24 2    
    26   24   25 1    
    27   25   26 ar   
    28   25   31 ar   
    29   26   27 1    
    30   26   28 ar   
    31   28   29 ar   
    32   29   30 ar   
    33   30   31 ar   
@<TRIPOS>SUBSTRUCTURE
     1 AGS901      1 GROUP   
@<TRIPOS>SET

