#    Name: 6oax_10_ADP
#    Modification time : Fri May 22 19:31:08 2020

@<TRIPOS>MOLECULE
6oax_10_ADP
   27    29     1     0     1
SMALL
NO_CHARGES


@<TRIPOS>ATOM
      1 PB        100.9410  163.4110  158.6130 P.3       1 ADP902      0.0000 
      2 O1B       101.2600  162.3870  157.5530 O.co2     1 ADP902      0.0000 
      3 O2B        99.9320  162.9640  159.6330 O.co2     1 ADP902      0.0000 
      4 O3B       102.1470  164.0570  159.2380 O.co2     1 ADP902      0.0000 
      5 PA        100.8340  165.2210  156.4570 P.3       1 ADP902      0.0000 
      6 O1A       100.0360  164.7380  155.2710 O.co2     1 ADP902      0.0000 
      7 O2A       102.3220  164.9680  156.4960 O.co2     1 ADP902      0.0000 
      8 O3A       100.1820  164.5590  157.7740 O.3       1 ADP902      0.0000 
      9 O5'       100.5630  166.8030  156.6110 O.3       1 ADP902      0.0000 
     10 C5'       100.4140  167.4290  157.8810 C.3       1 ADP902      0.0000 
     11 C4'       100.6610  168.9260  157.7520 C.3       1 ADP902      0.0000 
     12 O4'       100.2300  169.5900  158.9410 O.3       1 ADP902      0.0000 
     13 C3'       102.1360  169.2390  157.5770 C.3       1 ADP902      0.0000 
     14 O3'       102.4180  169.7280  156.2670 O.3       1 ADP902      0.0000 
     15 C2'       102.4660  170.3060  158.5960 C.3       1 ADP902      0.0000 
     16 O2'       102.8320  171.5220  157.9400 O.3       1 ADP902      0.0000 
     17 C1'       101.2110  170.5160  159.4200 C.3       1 ADP902      0.0000 
     18 N9        101.4530  170.2570  160.8660 N.pl3     1 ADP902      0.0000 
     19 C8        100.7370  169.3970  161.6080 C.2       1 ADP902      0.0000 
     20 N7        101.1580  169.3750  162.8930 N.2       1 ADP902      0.0000 
     21 C5        102.1730  170.2440  162.9960 C.ar      1 ADP902      0.0000 
     22 C6        103.0720  170.7040  164.0760 C.ar      1 ADP902      0.0000 
     23 N6        102.9630  170.2180  165.3330 N.pl3     1 ADP902      0.0000 
     24 N1        104.0090  171.6230  163.7730 N.ar      1 ADP902      0.0000 
     25 C2        104.1280  172.1160  162.5320 C.ar      1 ADP902      0.0000 
     26 N3        103.3450  171.7410  161.5090 N.ar      1 ADP902      0.0000 
     27 C4        102.3610  170.8270  161.6640 C.ar      1 ADP902      0.0000 
@<TRIPOS>BOND
     1    1    2 ar   
     2    1    3 ar   
     3    1    4 ar   
     4    1    8 1    
     5    5    6 ar   
     6    5    7 ar   
     7    5    8 1    
     8    5    9 1    
     9    9   10 1    
    10   10   11 1    
    11   11   12 1    
    12   11   13 1    
    13   12   17 1    
    14   13   14 1    
    15   13   15 1    
    16   15   16 1    
    17   15   17 1    
    18   17   18 1    
    19   18   19 1    
    20   18   27 1    
    21   19   20 2    
    22   20   21 1    
    23   21   22 ar   
    24   21   27 ar   
    25   22   23 1    
    26   22   24 ar   
    27   24   25 ar   
    28   25   26 ar   
    29   26   27 ar   
@<TRIPOS>SUBSTRUCTURE
     1 ADP902      1 GROUP   
@<TRIPOS>SET
ATOM$ORANGE STATIC     ATOMS   COLORGROUP SYSTEM 
20 10 10 11 11 13 13 15 15 17 17 19 19 21 21 22 22 25 \
25 27 27 

