#    Name: 6oax_4_AGS
#    Modification time : Fri May 22 19:29:51 2020

@<TRIPOS>MOLECULE
6oax_4_AGS
   31    33     1     0     0
SMALL
NO_CHARGES


@<TRIPOS>ATOM
      1 PG        143.4990  107.4620  122.8080 P.3       1 AGS901      0.0000 
      2 S1G       144.4790  107.6930  124.4340 S.2       1 AGS901      0.0000 
      3 O2G       142.3970  108.5370  122.8060 O.3       1 AGS901      0.0000 
      4 O3G       144.4810  107.6760  121.6240 O.3       1 AGS901      0.0000 
      5 PB        143.7110  104.9800  121.9730 P.3       1 AGS901      0.0000 
      6 O1B       144.2890  105.6160  120.7970 O.co2     1 AGS901      0.0000 
      7 O2B       142.7930  103.7950  121.7720 O.co2     1 AGS901      0.0000 
      8 O3B       142.9200  106.0300  122.7780 O.3       1 AGS901      0.0000 
      9 PA        145.3880  102.9710  122.5220 P.3       1 AGS901      0.0000 
     10 O1A       144.4540  102.2150  121.7720 O.co2     1 AGS901      0.0000 
     11 O2A       146.7690  103.1370  121.8960 O.co2     1 AGS901      0.0000 
     12 O3A       144.8510  104.3960  122.8170 O.3       1 AGS901      0.0000 
     13 O5'       145.5100  102.3060  123.9120 O.3       1 AGS901      0.0000 
     14 C5'       144.6760  101.2400  124.3080 C.3       1 AGS901      0.0000 
     15 C4'       145.5680  100.1790  124.8720 C.3       1 AGS901      0.0000 
     16 O4'       144.9380   98.9080  124.6640 O.3       1 AGS901      0.0000 
     17 C3'       146.9240  100.0510  124.1940 C.3       1 AGS901      0.0000 
     18 O3'       147.8560   99.3970  125.0440 O.3       1 AGS901      0.0000 
     19 C2'       146.6050   99.1560  123.0070 C.3       1 AGS901      0.0000 
     20 O2'       147.7580   98.4300  122.6110 O.3       1 AGS901      0.0000 
     21 C1'       145.5750   98.2110  123.6140 C.3       1 AGS901      0.0000 
     22 N9        144.5370   97.7710  122.7110 N.pl3     1 AGS901      0.0000 
     23 C8        143.3780   98.4280  122.4270 C.2       1 AGS901      0.0000 
     24 N7        142.5990   97.7970  121.5880 N.2       1 AGS901      0.0000 
     25 C5        143.2880   96.6310  121.3180 C.ar      1 AGS901      0.0000 
     26 C6        142.9920   95.5240  120.5110 C.ar      1 AGS901      0.0000 
     27 N6        141.8810   95.4120  119.7830 N.pl3     1 AGS901      0.0000 
     28 N1        143.8870   94.5220  120.4760 N.ar      1 AGS901      0.0000 
     29 C2        145.0030   94.6290  121.1940 C.ar      1 AGS901      0.0000 
     30 N3        145.3920   95.6240  121.9840 N.ar      1 AGS901      0.0000 
     31 C4        144.4790   96.5960  122.0110 C.ar      1 AGS901      0.0000 
@<TRIPOS>BOND
     1    1    2 2    
     2    1    3 1    
     3    1    4 1    
     4    1    8 1    
     5    5    6 ar   
     6    5    7 ar   
     7    5    8 1    
     8    5   12 1    
     9    9   10 ar   
    10    9   11 ar   
    11    9   12 1    
    12    9   13 1    
    13   13   14 1    
    14   14   15 1    
    15   15   16 1    
    16   15   17 1    
    17   16   21 1    
    18   17   18 1    
    19   17   19 1    
    20   19   20 1    
    21   19   21 1    
    22   21   22 1    
    23   22   23 1    
    24   22   31 1    
    25   23   24 2    
    26   24   25 1    
    27   25   26 ar   
    28   25   31 ar   
    29   26   27 1    
    30   26   28 ar   
    31   28   29 ar   
    32   29   30 ar   
    33   30   31 ar   
@<TRIPOS>SUBSTRUCTURE
     1 AGS901      1 GROUP   
@<TRIPOS>SET

