#    Name: 6oax_2_AGS
#    Modification time : Fri May 22 19:29:22 2020

@<TRIPOS>MOLECULE
6oax_2_AGS
   31    33     1     0     0
SMALL
NO_CHARGES


@<TRIPOS>ATOM
      1 PG        152.0150  120.9630  146.5530 P.3       1 AGS901      0.0000 
      2 S1G       153.6970  121.0660  145.5700 S.2       1 AGS901      0.0000 
      3 O2G       150.8170  120.7430  145.6010 O.3       1 AGS901      0.0000 
      4 O3G       151.7720  122.3080  147.2610 O.3       1 AGS901      0.0000 
      5 PB        153.2780  119.0020  148.0190 P.3       1 AGS901      0.0000 
      6 O1B       152.8960  117.7240  148.6020 O.co2     1 AGS901      0.0000 
      7 O2B       154.0030  118.7700  146.7100 O.co2     1 AGS901      0.0000 
      8 O3B       152.0150  119.8390  147.6240 O.3       1 AGS901      0.0000 
      9 PA        155.6160  119.2860  149.5010 P.3       1 AGS901      0.0000 
     10 O1A       155.6130  117.8570  149.6400 O.co2     1 AGS901      0.0000 
     11 O2A       156.7240  119.8370  148.6110 O.co2     1 AGS901      0.0000 
     12 O3A       154.2600  119.8330  148.9220 O.3       1 AGS901      0.0000 
     13 O5'       155.7470  119.8990  150.9270 O.3       1 AGS901      0.0000 
     14 C5'       155.4260  119.1820  152.1080 C.3       1 AGS901      0.0000 
     15 C4'       156.4650  119.5090  153.1400 C.3       1 AGS901      0.0000 
     16 O4'       156.5560  118.4160  154.0690 O.3       1 AGS901      0.0000 
     17 C3'       157.8790  119.6800  152.6090 C.3       1 AGS901      0.0000 
     18 O3'       158.6700  120.4700  153.4840 O.3       1 AGS901      0.0000 
     19 C2'       158.3910  118.2440  152.5800 C.3       1 AGS901      0.0000 
     20 O2'       159.8020  118.2100  152.7370 O.3       1 AGS901      0.0000 
     21 C1'       157.7000  117.6320  153.7980 C.3       1 AGS901      0.0000 
     22 N9        157.2580  116.2620  153.6230 N.pl3     1 AGS901      0.0000 
     23 C8        156.0750  115.8590  153.0750 C.2       1 AGS901      0.0000 
     24 N7        155.9180  114.5610  153.0410 N.2       1 AGS901      0.0000 
     25 C5        157.0750  114.0780  153.6210 C.ar      1 AGS901      0.0000 
     26 C6        157.5270  112.7750  153.8800 C.ar      1 AGS901      0.0000 
     27 N6        156.8330  111.6760  153.5860 N.pl3     1 AGS901      0.0000 
     28 N1        158.7240  112.6380  154.4760 N.ar      1 AGS901      0.0000 
     29 C2        159.4240  113.7320  154.7720 C.ar      1 AGS901      0.0000 
     30 N3        159.1080  115.0090  154.5660 N.ar      1 AGS901      0.0000 
     31 C4        157.9120  115.1140  153.9800 C.ar      1 AGS901      0.0000 
@<TRIPOS>BOND
     1    1    2 2    
     2    1    3 1    
     3    1    4 1    
     4    1    8 1    
     5    5    6 ar   
     6    5    7 ar   
     7    5    8 1    
     8    5   12 1    
     9    9   10 ar   
    10    9   11 ar   
    11    9   12 1    
    12    9   13 1    
    13   13   14 1    
    14   14   15 1    
    15   15   16 1    
    16   15   17 1    
    17   16   21 1    
    18   17   18 1    
    19   17   19 1    
    20   19   20 1    
    21   19   21 1    
    22   21   22 1    
    23   22   23 1    
    24   22   31 1    
    25   23   24 2    
    26   24   25 1    
    27   25   26 ar   
    28   25   31 ar   
    29   26   27 1    
    30   26   28 ar   
    31   28   29 ar   
    32   29   30 ar   
    33   30   31 ar   
@<TRIPOS>SUBSTRUCTURE
     1 AGS901      1 GROUP   
@<TRIPOS>SET

