#    Name: 6oax_9_AGS
#    Modification time : Fri May 22 19:31:00 2020

@<TRIPOS>MOLECULE
6oax_9_AGS
   31    33     1     0     0
SMALL
NO_CHARGES


@<TRIPOS>ATOM
      1 PG        100.9200  121.3190  120.1660 P.3       1 AGS902      0.0000 
      2 S1G       100.4070  122.5350  121.5900 S.2       1 AGS902      0.0000 
      3 O2G       102.2300  121.8230  119.5090 O.3       1 AGS902      0.0000 
      4 O3G       101.1330  119.9020  120.7460 O.3       1 AGS902      0.0000 
      5 PB        100.2160  121.1390  117.5680 P.3       1 AGS902      0.0000 
      6 O1B       101.5170  121.7800  117.3620 O.co2     1 AGS902      0.0000 
      7 O2B        99.0710  121.7800  116.8010 O.co2     1 AGS902      0.0000 
      8 O3B        99.8160  121.2320  119.0830 O.3       1 AGS902      0.0000 
      9 PA        100.6980  119.3950  115.5810 P.3       1 AGS902      0.0000 
     10 O1A       100.2210  120.4550  114.7550 O.co2     1 AGS902      0.0000 
     11 O2A       102.2090  119.1920  115.5870 O.co2     1 AGS902      0.0000 
     12 O3A       100.2600  119.6620  117.0530 O.3       1 AGS902      0.0000 
     13 O5'        99.9720  118.0970  115.1420 O.3       1 AGS902      0.0000 
     14 C5'       100.4260  116.8050  115.5360 C.3       1 AGS902      0.0000 
     15 C4'       100.4230  115.9110  114.3250 C.3       1 AGS902      0.0000 
     16 O4'        99.0720  115.4970  114.0460 O.3       1 AGS902      0.0000 
     17 C3'       100.9230  116.5750  113.0490 C.3       1 AGS902      0.0000 
     18 O3'       102.3170  116.3540  112.8750 O.3       1 AGS902      0.0000 
     19 C2'       100.1180  115.8700  111.9620 C.3       1 AGS902      0.0000 
     20 O2'       100.7270  114.6520  111.5620 O.3       1 AGS902      0.0000 
     21 C1'        98.7870  115.6270  112.6680 C.3       1 AGS902      0.0000 
     22 N9         97.8420  116.7170  112.5120 N.pl3     1 AGS902      0.0000 
     23 C8         97.4120  117.5730  113.4850 C.2       1 AGS902      0.0000 
     24 N7         96.5630  118.4750  113.0650 N.2       1 AGS902      0.0000 
     25 C5         96.4260  118.1920  111.7190 C.ar      1 AGS902      0.0000 
     26 C6         95.6610  118.7860  110.7020 C.ar      1 AGS902      0.0000 
     27 N6         94.8590  119.8340  110.8940 N.pl3     1 AGS902      0.0000 
     28 N1         95.7490  118.2580  109.4650 N.ar      1 AGS902      0.0000 
     29 C2         96.5470  117.2070  109.2680 C.ar      1 AGS902      0.0000 
     30 N3         97.3160  116.5660  110.1460 N.ar      1 AGS902      0.0000 
     31 C4         97.2070  117.1110  111.3620 C.ar      1 AGS902      0.0000 
@<TRIPOS>BOND
     1    1    2 2    
     2    1    3 1    
     3    1    4 1    
     4    1    8 1    
     5    5    6 ar   
     6    5    7 ar   
     7    5    8 1    
     8    5   12 1    
     9    9   10 ar   
    10    9   11 ar   
    11    9   12 1    
    12    9   13 1    
    13   13   14 1    
    14   14   15 1    
    15   15   16 1    
    16   15   17 1    
    17   16   21 1    
    18   17   18 1    
    19   17   19 1    
    20   19   20 1    
    21   19   21 1    
    22   21   22 1    
    23   22   23 1    
    24   22   31 1    
    25   23   24 2    
    26   24   25 1    
    27   25   26 ar   
    28   25   31 ar   
    29   26   27 1    
    30   26   28 ar   
    31   28   29 ar   
    32   29   30 ar   
    33   30   31 ar   
@<TRIPOS>SUBSTRUCTURE
     1 AGS902      1 GROUP   
@<TRIPOS>SET

