#    Name: 6oax_7_AGS_CAVITY_N1_4
#    Modification time : Fri May 22 19:30:35 2020

@<TRIPOS>MOLECULE
6oax_7_AGS_CAVITY_N1_4
   87     0     6     0     0
SMALL
NO_CHARGES


@<TRIPOS>ATOM
      1 OG        112.9900   99.5600  138.9700 O.3       1 SER1        0.0000 
      2 OG        111.4300  100.9600  138.6100 O.3       1 SER1        0.0000 
      3 OG        112.0400  101.8900  139.6200 O.3       1 SER1        0.0000 
      4 O         110.5600   91.4600  136.7400 O.2       2 ALA2        0.0000 
      5 O         114.6800   91.6800  138.5300 O.2       2 ALA2        0.0000 
      6 O         118.0000   92.1100  138.3700 O.2       2 ALA2        0.0000 
      7 O         115.2800   92.6100  139.5400 O.2       2 ALA2        0.0000 
      8 O         114.1200   91.7000  141.0700 O.2       2 ALA2        0.0000 
      9 O         113.9200   92.8500  140.1300 O.2       2 ALA2        0.0000 
     10 N         111.0100   94.5000  140.3600 N.am      2 ALA2        0.0000 
     11 O         118.6000   93.0400  139.3800 O.2       2 ALA2        0.0000 
     12 N         113.1700   94.0300  141.7200 N.am      2 ALA2        0.0000 
     13 N         112.9700   95.1800  140.7800 N.am      2 ALA2        0.0000 
     14 O         112.5800   97.4800  138.9000 O.2       2 ALA2        0.0000 
     15 O         112.3800   98.6300  137.9600 O.2       2 ALA2        0.0000 
     16 O         111.2200   97.7300  139.4800 O.2       2 ALA2        0.0000 
     17 O         111.0200   98.8800  138.5400 O.2       2 ALA2        0.0000 
     18 O         110.2700  100.0600  140.1400 O.2       2 ALA2        0.0000 
     19 O         110.8700  100.9900  141.1500 O.2       2 ALA2        0.0000 
     20 OD1       119.9600   92.7900  138.8000 O.co2     3 ASP3        0.0000 
     21 OD1       117.2500   93.2900  139.9700 O.co2     3 ASP3        0.0000 
     22 OD1       115.8900   93.5300  140.5500 O.co2     3 ASP3        0.0000 
     23 OD1       119.2100   93.9700  140.3900 O.co2     3 ASP3        0.0000 
     24 OD1       119.0100   95.1200  139.4500 O.co2     3 ASP3        0.0000 
     25 OD1       118.8200   96.2700  138.5100 O.co2     3 ASP3        0.0000 
     26 OD1       117.6500   95.3700  140.0400 O.co2     3 ASP3        0.0000 
     27 OD1       117.4600   96.5200  139.1000 O.co2     3 ASP3        0.0000 
     28 OD1       116.2900   95.6200  140.6200 O.co2     3 ASP3        0.0000 
     29 OD1       116.1000   96.7700  139.6800 O.co2     3 ASP3        0.0000 
     30 OD1       115.9000   97.9200  138.7400 O.co2     3 ASP3        0.0000 
     31 OD1       114.9400   95.8600  141.2100 O.co2     3 ASP3        0.0000 
     32 OD1       114.7400   97.0100  140.2700 O.co2     3 ASP3        0.0000 
     33 OD1       114.5400   98.1600  139.3200 O.co2     3 ASP3        0.0000 
     34 OD1       113.3800   97.2600  140.8500 O.co2     3 ASP3        0.0000 
     35 OD1       113.1800   98.4100  139.9100 O.co2     3 ASP3        0.0000 
     36 OD1       111.6300   99.8100  139.5500 O.co2     3 ASP3        0.0000 
     37 OD1       110.0700  101.2100  139.1900 O.co2     3 ASP3        0.0000 
     38 OD1       119.6200   96.0500  140.4600 O.co2     3 ASP3        0.0000 
     39 OD1       119.4200   97.2000  139.5200 O.co2     3 ASP3        0.0000 
     40 OD1       118.0600   97.4500  140.1100 O.co2     3 ASP3        0.0000 
     41 OD1       115.5400   96.7900  142.2200 O.co2     3 ASP3        0.0000 
     42 OD1       115.1500   99.0900  140.3300 O.co2     3 ASP3        0.0000 
     43 OD1       110.6800  102.1400  140.2000 O.co2     3 ASP3        0.0000 
     44 OD1       109.3200  102.3800  140.7900 O.co2     3 ASP3        0.0000 
     45 OD1       109.1200  103.5300  139.8500 O.co2     3 ASP3        0.0000 
     46 OD1       111.2800  103.0700  141.2100 O.co2     3 ASP3        0.0000 
     47 OD1       109.9200  103.3100  141.8000 O.co2     3 ASP3        0.0000 
     48 NZ        117.8000   93.2600  137.4300 N.4       4 LYS4        0.0000 
     49 NZ        115.0900   93.7600  138.6000 N.4       4 LYS4        0.0000 
     50 NZ        113.7300   94.0000  139.1900 N.4       4 LYS4        0.0000 
     51 NZ        118.4100   94.1900  138.4400 N.4       4 LYS4        0.0000 
     52 NZ        118.2100   95.3400  137.5000 N.4       4 LYS4        0.0000 
     53 NZ        117.0500   94.4400  139.0300 N.4       4 LYS4        0.0000 
     54 NZ        115.6900   94.6900  139.6100 N.4       4 LYS4        0.0000 
     55 NZ        115.4900   95.8400  138.6700 N.4       4 LYS4        0.0000 
     56 NZ        115.3000   96.9900  137.7300 N.4       4 LYS4        0.0000 
     57 NZ        114.1400   96.0800  139.2600 N.4       4 LYS4        0.0000 
     58 NZ        116.7000   97.7000  140.6900 N.4       4 LYS4        0.0000 
     59 NZ        116.5100   98.8500  139.7500 N.4       4 LYS4        0.0000 
     60 NZ        115.3400   97.9400  141.2800 N.4       4 LYS4        0.0000 
     61 NZ        110.4800  103.2900  139.2600 N.4       4 LYS4        0.0000 
     62 CA        110.3600   92.6100  135.8000 C.3       5 GLY6        0.0000 
     63 CA        112.5200   92.1400  137.1700 C.3       5 GLY6        0.0000 
     64 CA        111.3600   91.2400  138.6900 C.3       5 GLY6        0.0000 
     65 CA        111.1600   92.3900  137.7500 C.3       5 GLY6        0.0000 
     66 CA        110.9600   93.5400  136.8100 C.3       5 GLY6        0.0000 
     67 CA        109.8000   92.6400  138.3400 C.3       5 GLY6        0.0000 
     68 CA        113.3200   91.9200  139.1200 C.3       5 GLY6        0.0000 
     69 CA        113.1200   93.0700  138.1800 C.3       5 GLY6        0.0000 
     70 CA        111.9600   92.1700  139.7000 C.3       5 GLY6        0.0000 
     71 CA        111.5700   94.4700  137.8200 C.3       5 GLY6        0.0000 
     72 CA        110.4100   93.5700  139.3500 C.3       5 GLY6        0.0000 
     73 CA        113.5300   95.1500  138.2400 C.3       5 GLY6        0.0000 
     74 CA        112.5600   93.1000  140.7100 C.3       5 GLY6        0.0000 
     75 CA        112.3700   94.2500  139.7700 C.3       5 GLY6        0.0000 
     76 CA        112.1700   95.4000  138.8300 C.3       5 GLY6        0.0000 
     77 CA        111.9800   96.5500  137.8900 C.3       5 GLY6        0.0000 
     78 CA        114.5300   93.7800  141.1400 C.3       5 GLY6        0.0000 
     79 CA        113.9400   97.2300  138.3100 C.3       5 GLY6        0.0000 
     80 CA        111.4200   96.5800  140.4200 C.3       5 GLY6        0.0000 
     81 CA        114.3500   99.3100  138.3800 C.3       5 GLY6        0.0000 
     82 CA        113.5800   96.1100  141.7900 C.3       5 GLY6        0.0000 
     83 CA        112.0200   97.5100  141.4400 C.3       5 GLY6        0.0000 
     84 CA        111.8200   98.6600  140.4900 C.3       5 GLY6        0.0000 
     85 DU        111.7600   93.3200  138.7600 H         6 CUB7        0.0000 
     86 DU        114.3300   94.9300  140.2000 H         6 CUB7        0.0000 
     87 DU        112.7800   96.3300  139.8400 H         6 CUB7        0.0000 
@<TRIPOS>BOND
@<TRIPOS>SUBSTRUCTURE
     1 SER1        1 GROUP   
     2 ALA2        4 GROUP   
     3 ASP3       20 GROUP   
     4 LYS4       48 GROUP   
     5 GLY6       62 GROUP   
     6 CUB7       85 GROUP   
@<TRIPOS>SET

