#    Name: 6oax_3_AGS
#    Modification time : Fri May 22 19:29:38 2020

@<TRIPOS>MOLECULE
6oax_3_AGS
   31    33     1     0     0
SMALL
NO_CHARGES


@<TRIPOS>ATOM
      1 PG        116.3080  140.5000  176.2030 P.3       1 AGS902      0.0000 
      2 S1G       115.6170  142.3100  176.0880 S.2       1 AGS902      0.0000 
      3 O2G       115.1660  139.4650  176.0860 O.3       1 AGS902      0.0000 
      4 O3G       117.3060  140.2600  175.0460 O.3       1 AGS902      0.0000 
      5 PB        118.5820  140.6620  177.6060 P.3       1 AGS902      0.0000 
      6 O1B       119.2030  140.3520  176.3100 O.co2     1 AGS902      0.0000 
      7 O2B       119.0790  139.8750  178.8080 O.co2     1 AGS902      0.0000 
      8 O3B       117.0530  140.3510  177.5500 O.3       1 AGS902      0.0000 
      9 PA        120.4010  142.5250  178.0110 P.3       1 AGS902      0.0000 
     10 O1A       121.1540  141.4140  178.5310 O.co2     1 AGS902      0.0000 
     11 O2A       120.7480  142.9500  176.5900 O.co2     1 AGS902      0.0000 
     12 O3A       118.8930  142.1380  177.9850 O.3       1 AGS902      0.0000 
     13 O5'       120.5610  143.7170  179.0070 O.3       1 AGS902      0.0000 
     14 C5'       120.1320  145.0380  178.6790 C.3       1 AGS902      0.0000 
     15 C4'       121.1630  146.0200  179.1620 C.3       1 AGS902      0.0000 
     16 O4'       120.9130  146.3200  180.5500 O.3       1 AGS902      0.0000 
     17 C3'       122.5990  145.5170  179.0890 C.3       1 AGS902      0.0000 
     18 O3'       123.2060  145.9720  177.8870 O.3       1 AGS902      0.0000 
     19 C2'       123.2490  146.1500  180.3160 C.3       1 AGS902      0.0000 
     20 O2'       123.6880  147.4690  180.0280 O.3       1 AGS902      0.0000 
     21 C1'       122.0920  146.1730  181.3100 C.3       1 AGS902      0.0000 
     22 N9        121.9590  144.9650  182.1090 N.pl3     1 AGS902      0.0000 
     23 C8        120.9320  144.0660  182.0510 C.2       1 AGS902      0.0000 
     24 N7        121.0500  143.0660  182.8860 N.2       1 AGS902      0.0000 
     25 C5        122.2420  143.3230  183.5390 C.ar      1 AGS902      0.0000 
     26 C6        122.9340  142.6350  184.5490 C.ar      1 AGS902      0.0000 
     27 N6        122.5110  141.4930  185.0930 N.pl3     1 AGS902      0.0000 
     28 N1        124.0920  143.1650  184.9840 N.ar      1 AGS902      0.0000 
     29 C2        124.5200  144.3090  184.4460 C.ar      1 AGS902      0.0000 
     30 N3        123.9580  145.0440  183.4870 N.ar      1 AGS902      0.0000 
     31 C4        122.8120  144.4920  183.0740 C.ar      1 AGS902      0.0000 
@<TRIPOS>BOND
     1    1    2 2    
     2    1    3 1    
     3    1    4 1    
     4    1    8 1    
     5    5    6 ar   
     6    5    7 ar   
     7    5    8 1    
     8    5   12 1    
     9    9   10 ar   
    10    9   11 ar   
    11    9   12 1    
    12    9   13 1    
    13   13   14 1    
    14   14   15 1    
    15   15   16 1    
    16   15   17 1    
    17   16   21 1    
    18   17   18 1    
    19   17   19 1    
    20   19   20 1    
    21   19   21 1    
    22   21   22 1    
    23   22   23 1    
    24   22   31 1    
    25   23   24 2    
    26   24   25 1    
    27   25   26 ar   
    28   25   31 ar   
    29   26   27 1    
    30   26   28 ar   
    31   28   29 ar   
    32   29   30 ar   
    33   30   31 ar   
@<TRIPOS>SUBSTRUCTURE
     1 AGS902      1 GROUP   
@<TRIPOS>SET

