#    Name: 6jlo_4_PHO
#    Modification time : Fri May 22 19:33:04 2020

@<TRIPOS>MOLECULE
6jlo_4_PHO
   64    69     1     0     0
SMALL
NO_CHARGES


@<TRIPOS>ATOM
      1 CHA        24.7260   11.3760   10.7360 C.2       1 PHO402      0.0000 
      2 CHB        22.5340   15.3250    8.8770 C.2       1 PHO402      0.0000 
      3 CHC        20.0320   12.3860    5.7900 C.2       1 PHO402      0.0000 
      4 CHD        21.9840    8.2870    7.8640 C.2       1 PHO402      0.0000 
      5 NA         23.4650   13.1940    9.6160 N.2       1 PHO402      0.0000 
      6 C1A        24.3810   12.8050   10.4910 C.2       1 PHO402      0.0000 
      7 C2A        25.0530   13.9200   11.2280 C.3       1 PHO402      0.0000 
      8 C3A        24.1520   15.0790   10.8280 C.3       1 PHO402      0.0000 
      9 C4A        23.3580   14.4500    9.7240 C.2       1 PHO402      0.0000 
     10 CMA        23.1980   15.4730   11.9540 C.3       1 PHO402      0.0000 
     11 CAA        26.4590   14.1290   10.6860 C.3       1 PHO402      0.0000 
     12 CBA        27.1600   15.1710   11.5420 C.3       1 PHO402      0.0000 
     13 CGA        28.4600   15.5720   10.8920 C.2       1 PHO402      0.0000 
     14 O1A        28.9230   14.9290    9.9610 O.2       1 PHO402      0.0000 
     15 O2A        29.1660   16.7460   11.3760 O.3       1 PHO402      0.0000 
     16 NB         21.4170   13.6390    7.4530 N.pl3     1 PHO402      0.0000 
     17 C1B        21.6120   14.9230    7.7970 C.2       1 PHO402      0.0000 
     18 C2B        20.8190   15.8990    6.9980 C.2       1 PHO402      0.0000 
     19 C3B        20.0760   14.9950    6.0770 C.2       1 PHO402      0.0000 
     20 C4B        20.5250   13.6220    6.4510 C.2       1 PHO402      0.0000 
     21 CMB        20.7850   17.4040    7.1130 C.3       1 PHO402      0.0000 
     22 CAB        19.0960   15.3130    5.0120 C.2       1 PHO402      0.0000 
     23 CBB        19.1850   16.4300    4.3070 C.2       1 PHO402      0.0000 
     24 NC         21.2480   10.5270    7.0480 N.2       1 PHO402      0.0000 
     25 C1C        20.3310   10.9790    6.1640 C.2       1 PHO402      0.0000 
     26 C2C        19.5640    9.8860    5.5060 C.2       1 PHO402      0.0000 
     27 C3C        20.1240    8.6500    6.1080 C.2       1 PHO402      0.0000 
     28 C4C        21.1480    9.1790    7.0410 C.2       1 PHO402      0.0000 
     29 CMC        18.4780   10.0240    4.4740 C.3       1 PHO402      0.0000 
     30 CAC        19.7660    7.1990    5.8640 C.3       1 PHO402      0.0000 
     31 CBC        20.8400    6.5190    5.0410 C.3       1 PHO402      0.0000 
     32 ND         23.0330   10.2200    8.9970 N.pl3     1 PHO402      0.0000 
     33 C1D        22.9530    8.8870    8.8020 C.2       1 PHO402      0.0000 
     34 C2D        23.8170    8.0150    9.6420 C.2       1 PHO402      0.0000 
     35 C3D        24.5140    9.0830   10.3940 C.2       1 PHO402      0.0000 
     36 C4D        24.0180   10.3060    9.9780 C.2       1 PHO402      0.0000 
     37 CMD        24.0640    6.5360    9.7920 C.3       1 PHO402      0.0000 
     38 CAD        25.5520    9.2860   11.4290 C.2       1 PHO402      0.0000 
     39 OBD        26.1990    8.3440   12.0100 O.2       1 PHO402      0.0000 
     40 CBD        25.6890   10.7390   11.6680 C.3       1 PHO402      0.0000 
     41 CGD        25.2080   11.0130   13.0550 C.2       1 PHO402      0.0000 
     42 O1D        25.9420   10.8640   14.0120 O.2       1 PHO402      0.0000 
     43 O2D        23.8400   11.4480   13.2750 O.3       1 PHO402      0.0000 
     44 CED        23.3510   11.5260   14.6100 C.3       1 PHO402      0.0000 
     45 C1         30.3510   17.1580   10.7120 C.3       1 PHO402      0.0000 
     46 C2         29.9910   18.3440    9.8550 C.2       1 PHO402      0.0000 
     47 C3         30.4590   18.3830    8.6060 C.2       1 PHO402      0.0000 
     48 C4         31.3150   17.2560    8.1180 C.3       1 PHO402      0.0000 
     49 C5         30.1260   19.5440    7.7010 C.3       1 PHO402      0.0000 
     50 C6         29.3580   19.0370    6.4910 C.3       1 PHO402      0.0000 
     51 C7         29.0670   20.1760    5.5170 C.3       1 PHO402      0.0000 
     52 C8         28.0420   19.7740    4.4660 C.3       1 PHO402      0.0000 
     53 C9         28.4130   18.4310    3.8460 C.3       1 PHO402      0.0000 
     54 C10        27.9520   20.8580    3.3940 C.3       1 PHO402      0.0000 
     55 C11        27.6670   22.2320    3.9900 C.3       1 PHO402      0.0000 
     56 C12        26.2010   22.4200    4.3610 C.3       1 PHO402      0.0000 
     57 C13        25.9850   23.8050    4.9640 C.3       1 PHO402      0.0000 
     58 C14        26.8230   23.9660    6.2250 C.3       1 PHO402      0.0000 
     59 C15        24.5050   24.0170    5.2700 C.3       1 PHO402      0.0000 
     60 C16        23.6860   24.1070    3.9870 C.3       1 PHO402      0.0000 
     61 C17        22.1920   24.0590    4.2860 C.3       1 PHO402      0.0000 
     62 C18        21.3720   24.3510    3.0310 C.3       1 PHO402      0.0000 
     63 C19        19.9320   24.6980    3.3870 C.3       1 PHO402      0.0000 
     64 C20        21.4170   23.1960    2.0310 C.3       1 PHO402      0.0000 
@<TRIPOS>BOND
     1    1    6 2    
     2    1   36 1    
     3    1   40 1    
     4    2    9 1    
     5    2   17 2    
     6    3   20 2    
     7    3   25 1    
     8    4   28 2    
     9    4   33 1    
    10    5    6 1    
    11    5    9 2    
    12    6    7 1    
    13    7    8 1    
    14    7   11 1    
    15    8    9 1    
    16    8   10 1    
    17   11   12 1    
    18   12   13 1    
    19   13   14 2    
    20   13   15 1    
    21   15   45 1    
    22   16   17 1    
    23   16   20 1    
    24   17   18 1    
    25   18   19 2    
    26   18   21 1    
    27   19   20 1    
    28   19   22 1    
    29   22   23 2    
    30   24   25 2    
    31   24   28 1    
    32   25   26 1    
    33   26   27 2    
    34   26   29 1    
    35   27   28 1    
    36   27   30 1    
    37   30   31 1    
    38   32   33 1    
    39   32   36 1    
    40   33   34 2    
    41   34   35 1    
    42   34   37 1    
    43   35   36 2    
    44   35   38 1    
    45   38   39 2    
    46   38   40 1    
    47   40   41 1    
    48   41   42 2    
    49   41   43 1    
    50   43   44 1    
    51   45   46 1    
    52   46   47 2    
    53   47   48 1    
    54   47   49 1    
    55   49   50 1    
    56   50   51 1    
    57   51   52 1    
    58   52   53 1    
    59   52   54 1    
    60   54   55 1    
    61   55   56 1    
    62   56   57 1    
    63   57   58 1    
    64   57   59 1    
    65   59   60 1    
    66   60   61 1    
    67   61   62 1    
    68   62   63 1    
    69   62   64 1    
@<TRIPOS>SUBSTRUCTURE
     1 PHO402      1 GROUP   
@<TRIPOS>SET

