#    Name: 6jlo_2_PHO
#    Modification time : Fri May 22 19:32:44 2020

@<TRIPOS>MOLECULE
6jlo_2_PHO
   64    69     1     0     0
SMALL
NO_CHARGES


@<TRIPOS>ATOM
      1 CHA         9.9220  -58.0720  -32.0830 C.2       1 PHO402      0.0000 
      2 CHB        10.1280  -57.4170  -36.9120 C.2       1 PHO402      0.0000 
      3 CHC        12.1000  -52.9080  -36.3770 C.2       1 PHO402      0.0000 
      4 CHD        12.1150  -53.5920  -31.4260 C.2       1 PHO402      0.0000 
      5 NA         10.1630  -57.5100  -34.4810 N.2       1 PHO402      0.0000 
      6 C1A         9.7660  -58.3540  -33.5380 C.2       1 PHO402      0.0000 
      7 C2A         9.1520  -59.6170  -34.0460 C.3       1 PHO402      0.0000 
      8 C3A         9.4850  -59.4860  -35.5280 C.3       1 PHO402      0.0000 
      9 C4A         9.9490  -58.0550  -35.5970 C.2       1 PHO402      0.0000 
     10 CMA        10.6230  -60.4370  -35.9020 C.3       1 PHO402      0.0000 
     11 CAA         7.6500  -59.5840  -33.8210 C.3       1 PHO402      0.0000 
     12 CBA         7.0550  -60.9270  -34.2060 C.3       1 PHO402      0.0000 
     13 CGA         5.5590  -60.7950  -34.3130 C.2       1 PHO402      0.0000 
     14 O1A         4.9780  -59.7930  -33.9220 O.2       1 PHO402      0.0000 
     15 O2A         4.8030  -61.8790  -34.9060 O.3       1 PHO402      0.0000 
     16 NB         11.1120  -55.1970  -36.3880 N.pl3     1 PHO402      0.0000 
     17 C1B        10.6730  -56.0870  -37.2870 C.2       1 PHO402      0.0000 
     18 C2B        10.7880  -55.6130  -38.7000 C.2       1 PHO402      0.0000 
     19 C3B        11.3810  -54.2560  -38.5280 C.2       1 PHO402      0.0000 
     20 C4B        11.5330  -54.1070  -37.0500 C.2       1 PHO402      0.0000 
     21 CMB        10.3980  -56.3410  -39.9590 C.3       1 PHO402      0.0000 
     22 CAB        11.7700  -53.2300  -39.5290 C.2       1 PHO402      0.0000 
     23 CBB        11.1950  -53.1370  -40.7160 C.2       1 PHO402      0.0000 
     24 NC         11.8740  -53.5530  -33.9230 N.2       1 PHO402      0.0000 
     25 C1C        12.2420  -52.7080  -34.9120 C.2       1 PHO402      0.0000 
     26 C2C        12.9580  -51.5000  -34.4140 C.2       1 PHO402      0.0000 
     27 C3C        13.0030  -51.7010  -32.9420 C.2       1 PHO402      0.0000 
     28 C4C        12.3070  -53.0010  -32.7670 C.2       1 PHO402      0.0000 
     29 CMC        13.5060  -50.3540  -35.2240 C.3       1 PHO402      0.0000 
     30 CAC        13.6150  -50.8290  -31.8630 C.3       1 PHO402      0.0000 
     31 CBC        12.5560  -50.1830  -30.9900 C.3       1 PHO402      0.0000 
     32 ND         11.0810  -55.6660  -32.3040 N.pl3     1 PHO402      0.0000 
     33 C1D        11.4490  -54.9010  -31.2610 C.2       1 PHO402      0.0000 
     34 C2D        11.2240  -55.4460  -29.9000 C.2       1 PHO402      0.0000 
     35 C3D        10.5970  -56.7380  -30.2930 C.2       1 PHO402      0.0000 
     36 C4D        10.5520  -56.7840  -31.6710 C.2       1 PHO402      0.0000 
     37 CMD        11.4850  -54.9600  -28.5000 C.3       1 PHO402      0.0000 
     38 CAD        10.0050  -57.9890  -29.7440 C.2       1 PHO402      0.0000 
     39 OBD         9.8900  -58.2620  -28.4970 O.2       1 PHO402      0.0000 
     40 CBD         9.5740  -58.8520  -30.8720 C.3       1 PHO402      0.0000 
     41 CGD        10.4100  -60.0920  -30.9050 C.2       1 PHO402      0.0000 
     42 O1D        10.1410  -61.0800  -30.2340 O.2       1 PHO402      0.0000 
     43 O2D        11.5840  -60.1040  -31.7560 O.3       1 PHO402      0.0000 
     44 CED        12.5040  -61.1890  -31.6650 C.3       1 PHO402      0.0000 
     45 C1          3.4300  -61.6660  -35.1690 C.3       1 PHO402      0.0000 
     46 C2          3.3220  -61.2340  -36.6050 C.2       1 PHO402      0.0000 
     47 C3          2.2760  -60.4930  -36.9770 C.2       1 PHO402      0.0000 
     48 C4          1.2390  -60.1010  -35.9690 C.3       1 PHO402      0.0000 
     49 C5          2.1400  -60.0430  -38.4060 C.3       1 PHO402      0.0000 
     50 C6          2.4410  -58.5540  -38.4630 C.3       1 PHO402      0.0000 
     51 C7          1.7820  -57.9290  -39.6840 C.3       1 PHO402      0.0000 
     52 C8          2.4660  -56.6220  -40.0580 C.3       1 PHO402      0.0000 
     53 C9          2.2700  -55.5790  -38.9610 C.3       1 PHO402      0.0000 
     54 C10         1.9230  -56.1600  -41.4070 C.3       1 PHO402      0.0000 
     55 C11         2.0800  -57.2430  -42.4730 C.3       1 PHO402      0.0000 
     56 C12         3.5220  -57.3620  -42.9580 C.3       1 PHO402      0.0000 
     57 C13         3.6320  -58.3760  -44.0970 C.3       1 PHO402      0.0000 
     58 C14         3.3530  -59.7910  -43.6020 C.3       1 PHO402      0.0000 
     59 C15         5.0080  -58.3200  -44.7520 C.3       1 PHO402      0.0000 
     60 C16         5.1990  -57.0660  -45.5950 C.3       1 PHO402      0.0000 
     61 C17         6.6170  -56.9940  -46.1610 C.3       1 PHO402      0.0000 
     62 C18         6.7750  -55.7840  -47.0760 C.3       1 PHO402      0.0000 
     63 C19         8.0190  -55.9090  -47.9490 C.3       1 PHO402      0.0000 
     64 C20         6.8100  -54.4940  -46.2650 C.3       1 PHO402      0.0000 
@<TRIPOS>BOND
     1    1    6 2    
     2    1   36 1    
     3    1   40 1    
     4    2    9 1    
     5    2   17 2    
     6    3   20 2    
     7    3   25 1    
     8    4   28 2    
     9    4   33 1    
    10    5    6 1    
    11    5    9 2    
    12    6    7 1    
    13    7    8 1    
    14    7   11 1    
    15    8    9 1    
    16    8   10 1    
    17   11   12 1    
    18   12   13 1    
    19   13   14 2    
    20   13   15 1    
    21   15   45 1    
    22   16   17 1    
    23   16   20 1    
    24   17   18 1    
    25   18   19 2    
    26   18   21 1    
    27   19   20 1    
    28   19   22 1    
    29   22   23 2    
    30   24   25 2    
    31   24   28 1    
    32   25   26 1    
    33   26   27 2    
    34   26   29 1    
    35   27   28 1    
    36   27   30 1    
    37   30   31 1    
    38   32   33 1    
    39   32   36 1    
    40   33   34 2    
    41   34   35 1    
    42   34   37 1    
    43   35   36 2    
    44   35   38 1    
    45   38   39 2    
    46   38   40 1    
    47   40   41 1    
    48   41   42 2    
    49   41   43 1    
    50   43   44 1    
    51   45   46 1    
    52   46   47 2    
    53   47   48 1    
    54   47   49 1    
    55   49   50 1    
    56   50   51 1    
    57   51   52 1    
    58   52   53 1    
    59   52   54 1    
    60   54   55 1    
    61   55   56 1    
    62   56   57 1    
    63   57   58 1    
    64   57   59 1    
    65   59   60 1    
    66   60   61 1    
    67   61   62 1    
    68   62   63 1    
    69   62   64 1    
@<TRIPOS>SUBSTRUCTURE
     1 PHO402      1 GROUP   
@<TRIPOS>SET

