#    Name: 6jlo_3_PHO
#    Modification time : Fri May 22 19:32:54 2020

@<TRIPOS>MOLECULE
6jlo_3_PHO
   64    69     1     0     0
SMALL
NO_CHARGES


@<TRIPOS>ATOM
      1 CHA         1.9980    0.5230    7.8650 C.2       1 PHO410      0.0000 
      2 CHB         2.5210    1.5070    3.1340 C.2       1 PHO410      0.0000 
      3 CHC         5.0540    5.6310    4.2130 C.2       1 PHO410      0.0000 
      4 CHD         4.6230    4.6440    9.0510 C.2       1 PHO410      0.0000 
      5 NA          2.5360    1.1630    5.5430 N.2       1 PHO410      0.0000 
      6 C1A         1.9450    0.3320    6.3890 C.2       1 PHO410      0.0000 
      7 C2A         1.2470   -0.8220    5.7350 C.3       1 PHO410      0.0000 
      8 C3A         1.6440   -0.5970    4.2810 C.3       1 PHO410      0.0000 
      9 C4A         2.2610    0.7680    4.3720 C.2       1 PHO410      0.0000 
     10 CMA         2.7140   -1.5890    3.8450 C.3       1 PHO410      0.0000 
     11 CAA        -0.2580   -0.7360    5.8630 C.3       1 PHO410      0.0000 
     12 CBA        -0.7990   -1.9090    5.0630 C.3       1 PHO410      0.0000 
     13 CGA        -2.2900   -1.8230    5.1170 C.2       1 PHO410      0.0000 
     14 O1A        -2.8310   -0.7900    5.4750 O.2       1 PHO410      0.0000 
     15 O2A        -3.0520   -2.9900    4.7350 O.3       1 PHO410      0.0000 
     16 NB          3.7800    3.4760    3.9630 N.pl3     1 PHO410      0.0000 
     17 C1B         3.2410    2.7790    2.9430 C.2       1 PHO410      0.0000 
     18 C2B         3.4490    3.4000    1.6040 C.2       1 PHO410      0.0000 
     19 C3B         4.2020    4.6280    1.9550 C.2       1 PHO410      0.0000 
     20 C4B         4.3500    4.5760    3.4370 C.2       1 PHO410      0.0000 
     21 CMB         3.0170    2.9440    0.2420 C.3       1 PHO410      0.0000 
     22 CAB         4.7250    5.6970    1.0740 C.2       1 PHO410      0.0000 
     23 CBB         3.9490    6.2590    0.1640 C.2       1 PHO410      0.0000 
     24 NC          4.6140    4.8420    6.5630 N.2       1 PHO410      0.0000 
     25 C1C         5.1330    5.7210    5.6890 C.2       1 PHO410      0.0000 
     26 C2C         5.8970    6.8340    6.3370 C.2       1 PHO410      0.0000 
     27 C3C         5.7770    6.5400    7.7800 C.2       1 PHO410      0.0000 
     28 C4C         4.9720    5.3020    7.7860 C.2       1 PHO410      0.0000 
     29 CMC         6.6140    7.9940    5.6930 C.3       1 PHO410      0.0000 
     30 CAC         6.3380    7.2950    8.9670 C.3       1 PHO410      0.0000 
     31 CBC         5.2330    7.9130    9.7900 C.3       1 PHO410      0.0000 
     32 ND          3.4610    2.7640    7.9300 N.pl3     1 PHO410      0.0000 
     33 C1D         3.8170    3.4080    9.0520 C.2       1 PHO410      0.0000 
     34 C2D         3.3710    2.8320   10.3490 C.2       1 PHO410      0.0000 
     35 C3D         2.6270    1.6640    9.8130 C.2       1 PHO410      0.0000 
     36 C4D         2.7250    1.6940    8.4280 C.2       1 PHO410      0.0000 
     37 CMD         3.5350    3.2140   11.7900 C.3       1 PHO410      0.0000 
     38 CAD         1.8350    0.4860   10.2270 C.2       1 PHO410      0.0000 
     39 OBD         1.5500    0.1670   11.4410 O.2       1 PHO410      0.0000 
     40 CBD         1.4030   -0.2280    8.9920 C.3       1 PHO410      0.0000 
     41 CGD         1.8150   -1.6650    8.9860 C.2       1 PHO410      0.0000 
     42 O1D         0.9920   -2.5330    9.2410 O.2       1 PHO410      0.0000 
     43 O2D         3.1840   -2.0090    8.6800 O.3       1 PHO410      0.0000 
     44 CED         3.5830   -3.3710    8.5650 C.3       1 PHO410      0.0000 
     45 C1         -4.3700   -2.8640    4.2210 C.3       1 PHO410      0.0000 
     46 C2         -4.3240   -2.7570    2.7050 C.2       1 PHO410      0.0000 
     47 C3         -4.0430   -3.8030    1.9130 C.2       1 PHO410      0.0000 
     48 C4         -3.7350   -5.1500    2.5290 C.3       1 PHO410      0.0000 
     49 C5         -4.0100   -3.6490    0.4060 C.3       1 PHO410      0.0000 
     50 C6         -4.8500   -2.4750   -0.1040 C.3       1 PHO410      0.0000 
     51 C7         -4.5340   -2.1740   -1.5740 C.3       1 PHO410      0.0000 
     52 C8         -5.3870   -1.0490   -2.1950 C.3       1 PHO410      0.0000 
     53 C9         -6.8750   -1.3750   -2.1830 C.3       1 PHO410      0.0000 
     54 C10        -4.9320   -0.7930   -3.6340 C.3       1 PHO410      0.0000 
     55 C11        -5.7290    0.2940   -4.3600 C.3       1 PHO410      0.0000 
     56 C12        -5.6530    1.6770   -3.7050 C.3       1 PHO410      0.0000 
     57 C13        -4.2030    2.1280   -3.5730 C.3       1 PHO410      0.0000 
     58 C14        -4.0410    3.2630   -2.5600 C.3       1 PHO410      0.0000 
     59 C15        -3.6360    2.4760   -4.9440 C.3       1 PHO410      0.0000 
     60 C16        -2.1630    2.8420   -4.8300 C.3       1 PHO410      0.0000 
     61 C17        -1.5200    3.1390   -6.1800 C.3       1 PHO410      0.0000 
     62 C18        -0.0950    3.6700   -5.9890 C.3       1 PHO410      0.0000 
     63 C19        -0.0930    5.0910   -5.4370 C.3       1 PHO410      0.0000 
     64 C20         0.6890    3.6140   -7.2950 C.3       1 PHO410      0.0000 
@<TRIPOS>BOND
     1    1    6 2    
     2    1   36 1    
     3    1   40 1    
     4    2    9 1    
     5    2   17 2    
     6    3   20 2    
     7    3   25 1    
     8    4   28 2    
     9    4   33 1    
    10    5    6 1    
    11    5    9 2    
    12    6    7 1    
    13    7    8 1    
    14    7   11 1    
    15    8    9 1    
    16    8   10 1    
    17   11   12 1    
    18   12   13 1    
    19   13   14 2    
    20   13   15 1    
    21   15   45 1    
    22   16   17 1    
    23   16   20 1    
    24   17   18 1    
    25   18   19 2    
    26   18   21 1    
    27   19   20 1    
    28   19   22 1    
    29   22   23 2    
    30   24   25 2    
    31   24   28 1    
    32   25   26 1    
    33   26   27 2    
    34   26   29 1    
    35   27   28 1    
    36   27   30 1    
    37   30   31 1    
    38   32   33 1    
    39   32   36 1    
    40   33   34 2    
    41   34   35 1    
    42   34   37 1    
    43   35   36 2    
    44   35   38 1    
    45   38   39 2    
    46   38   40 1    
    47   40   41 1    
    48   41   42 2    
    49   41   43 1    
    50   43   44 1    
    51   45   46 1    
    52   46   47 2    
    53   47   48 1    
    54   47   49 1    
    55   49   50 1    
    56   50   51 1    
    57   51   52 1    
    58   52   53 1    
    59   52   54 1    
    60   54   55 1    
    61   55   56 1    
    62   56   57 1    
    63   57   58 1    
    64   57   59 1    
    65   59   60 1    
    66   60   61 1    
    67   61   62 1    
    68   62   63 1    
    69   62   64 1    
@<TRIPOS>SUBSTRUCTURE
     1 PHO410      1 GROUP   
@<TRIPOS>SET

