#    Name: 6jlo_1_PHO
#    Modification time : Fri May 22 19:32:34 2020

@<TRIPOS>MOLECULE
6jlo_1_PHO
   64    69     1     0     0
SMALL
NO_CHARGES


@<TRIPOS>ATOM
      1 CHA        31.9140  -45.4290  -31.9530 C.2       1 PHO407      0.0000 
      2 CHB        29.3360  -41.8480  -34.0210 C.2       1 PHO407      0.0000 
      3 CHC        26.4600  -45.1130  -36.3540 C.2       1 PHO407      0.0000 
      4 CHD        28.9230  -48.8380  -34.1190 C.2       1 PHO407      0.0000 
      5 NA         30.3610  -43.8330  -33.0240 N.2       1 PHO407      0.0000 
      6 C1A        31.4400  -44.0570  -32.2830 C.2       1 PHO407      0.0000 
      7 C2A        32.1220  -42.8380  -31.7520 C.3       1 PHO407      0.0000 
      8 C3A        31.0890  -41.7930  -32.1420 C.3       1 PHO407      0.0000 
      9 C4A        30.2290  -42.5760  -33.0920 C.2       1 PHO407      0.0000 
     10 CMA        30.2170  -41.4020  -30.9570 C.3       1 PHO407      0.0000 
     11 CAA        33.4670  -42.6020  -32.4210 C.3       1 PHO407      0.0000 
     12 CBA        34.0600  -41.3870  -31.7330 C.3       1 PHO407      0.0000 
     13 CGA        35.3760  -40.9350  -32.3160 C.2       1 PHO407      0.0000 
     14 O1A        35.8360  -41.3980  -33.3430 O.2       1 PHO407      0.0000 
     15 O2A        36.1060  -39.8960  -31.6220 O.3       1 PHO407      0.0000 
     16 NB         28.0400  -43.6960  -35.0610 N.pl3     1 PHO407      0.0000 
     17 C1B        28.3040  -42.3780  -34.9470 C.2       1 PHO407      0.0000 
     18 C2B        27.4790  -41.5110  -35.8410 C.2       1 PHO407      0.0000 
     19 C3B        26.6130  -42.5050  -36.5320 C.2       1 PHO407      0.0000 
     20 C4B        27.0540  -43.8170  -35.9670 C.2       1 PHO407      0.0000 
     21 CMB        27.5120  -40.0180  -35.9820 C.3       1 PHO407      0.0000 
     22 CAB        25.5470  -42.3330  -37.5580 C.2       1 PHO407      0.0000 
     23 CBB        25.6130  -41.3830  -38.4810 C.2       1 PHO407      0.0000 
     24 NC         27.9880  -46.7410  -35.1180 N.2       1 PHO407      0.0000 
     25 C1C        26.9570  -46.4440  -35.9350 C.2       1 PHO407      0.0000 
     26 C2C        26.1900  -47.6200  -36.3890 C.2       1 PHO407      0.0000 
     27 C3C        26.8870  -48.7420  -35.7070 C.2       1 PHO407      0.0000 
     28 C4C        27.9740  -48.0750  -34.9580 C.2       1 PHO407      0.0000 
     29 CMC        24.9980  -47.6130  -37.3140 C.3       1 PHO407      0.0000 
     30 CAC        26.6170  -50.2190  -35.7460 C.3       1 PHO407      0.0000 
     31 CBC        27.6800  -50.8220  -36.6340 C.3       1 PHO407      0.0000 
     32 ND         30.0440  -46.7950  -33.2970 N.pl3     1 PHO407      0.0000 
     33 C1D        29.9880  -48.1340  -33.3740 C.2       1 PHO407      0.0000 
     34 C2D        31.0310  -48.9030  -32.6360 C.2       1 PHO407      0.0000 
     35 C3D        31.7960  -47.7600  -32.0800 C.2       1 PHO407      0.0000 
     36 C4D        31.1690  -46.5990  -32.4990 C.2       1 PHO407      0.0000 
     37 CMD        31.3430  -50.3600  -32.4360 C.3       1 PHO407      0.0000 
     38 CAD        32.9680  -47.4050  -31.2430 C.2       1 PHO407      0.0000 
     39 OBD        33.7720  -48.2390  -30.7020 O.2       1 PHO407      0.0000 
     40 CBD        33.0720  -45.9200  -31.1730 C.3       1 PHO407      0.0000 
     41 CGD        33.0250  -45.4140  -29.7670 C.2       1 PHO407      0.0000 
     42 O1D        34.0390  -45.0130  -29.2280 O.2       1 PHO407      0.0000 
     43 O2D        31.7870  -45.4120  -29.0200 O.3       1 PHO407      0.0000 
     44 CED        31.8160  -44.9550  -27.6720 C.3       1 PHO407      0.0000 
     45 C1         37.0780  -39.1200  -32.3030 C.3       1 PHO407      0.0000 
     46 C2         36.4150  -37.8900  -32.8930 C.2       1 PHO407      0.0000 
     47 C3         36.1450  -36.8100  -32.1400 C.2       1 PHO407      0.0000 
     48 C4         36.4710  -36.8370  -30.6790 C.3       1 PHO407      0.0000 
     49 C5         35.4910  -35.5770  -32.7280 C.3       1 PHO407      0.0000 
     50 C6         35.6580  -35.4950  -34.2460 C.3       1 PHO407      0.0000 
     51 C7         34.9930  -34.2260  -34.7870 C.3       1 PHO407      0.0000 
     52 C8         35.1800  -34.0500  -36.2950 C.3       1 PHO407      0.0000 
     53 C9         36.6220  -33.7320  -36.6510 C.3       1 PHO407      0.0000 
     54 C10        34.2450  -32.9510  -36.7870 C.3       1 PHO407      0.0000 
     55 C11        34.4150  -32.5970  -38.2630 C.3       1 PHO407      0.0000 
     56 C12        34.2180  -33.7720  -39.2200 C.3       1 PHO407      0.0000 
     57 C13        32.8700  -34.4550  -39.0620 C.3       1 PHO407      0.0000 
     58 C14        32.8350  -35.7850  -39.8110 C.3       1 PHO407      0.0000 
     59 C15        31.7650  -33.5290  -39.5460 C.3       1 PHO407      0.0000 
     60 C16        30.4250  -34.2330  -39.3730 C.3       1 PHO407      0.0000 
     61 C17        29.2650  -33.3040  -39.6930 C.3       1 PHO407      0.0000 
     62 C18        27.9510  -34.0640  -39.5920 C.3       1 PHO407      0.0000 
     63 C19        27.9240  -35.2250  -40.5920 C.3       1 PHO407      0.0000 
     64 C20        26.7670  -33.1230  -39.7790 C.3       1 PHO407      0.0000 
@<TRIPOS>BOND
     1    1    6 2    
     2    1   36 1    
     3    1   40 1    
     4    2    9 1    
     5    2   17 2    
     6    3   20 2    
     7    3   25 1    
     8    4   28 2    
     9    4   33 1    
    10    5    6 1    
    11    5    9 2    
    12    6    7 1    
    13    7    8 1    
    14    7   11 1    
    15    8    9 1    
    16    8   10 1    
    17   11   12 1    
    18   12   13 1    
    19   13   14 2    
    20   13   15 1    
    21   15   45 1    
    22   16   17 1    
    23   16   20 1    
    24   17   18 1    
    25   18   19 2    
    26   18   21 1    
    27   19   20 1    
    28   19   22 1    
    29   22   23 2    
    30   24   25 2    
    31   24   28 1    
    32   25   26 1    
    33   26   27 2    
    34   26   29 1    
    35   27   28 1    
    36   27   30 1    
    37   30   31 1    
    38   32   33 1    
    39   32   36 1    
    40   33   34 2    
    41   34   35 1    
    42   34   37 1    
    43   35   36 2    
    44   35   38 1    
    45   38   39 2    
    46   38   40 1    
    47   40   41 1    
    48   41   42 2    
    49   41   43 1    
    50   43   44 1    
    51   45   46 1    
    52   46   47 2    
    53   47   48 1    
    54   47   49 1    
    55   49   50 1    
    56   50   51 1    
    57   51   52 1    
    58   52   53 1    
    59   52   54 1    
    60   54   55 1    
    61   55   56 1    
    62   56   57 1    
    63   57   58 1    
    64   57   59 1    
    65   59   60 1    
    66   60   61 1    
    67   61   62 1    
    68   62   63 1    
    69   62   64 1    
@<TRIPOS>SUBSTRUCTURE
     1 PHO407      1 GROUP   
@<TRIPOS>SET

