#    Name: 6bzq_1_FAD
#    Modification time : Fri May 22 19:27:27 2020

@<TRIPOS>MOLECULE
6bzq_1_FAD
   53    58     1     0     1
SMALL
NO_CHARGES


@<TRIPOS>ATOM
      1 PA        -10.9330   48.8960  -42.3200 P.3       1 FAD601      0.0000 
      2 O1A       -10.8280   48.1550  -43.6330 O.co2     1 FAD601      0.0000 
      3 O2A        -9.7440   49.6770  -41.8120 O.co2     1 FAD601      0.0000 
      4 O5B       -12.2000   49.8920  -42.3950 O.3       1 FAD601      0.0000 
      5 C5B       -12.5960   50.6710  -41.2650 C.3       1 FAD601      0.0000 
      6 C4B       -13.4340   51.8610  -41.7200 C.3       1 FAD601      0.0000 
      7 O4B       -13.9390   52.5740  -40.5830 O.3       1 FAD601      0.0000 
      8 C3B       -12.6310   52.8650  -42.5410 C.3       1 FAD601      0.0000 
      9 O3B       -13.3240   53.1830  -43.7550 O.3       1 FAD601      0.0000 
     10 C2B       -12.5030   54.0790  -41.6390 C.3       1 FAD601      0.0000 
     11 O2B       -12.4410   55.3150  -42.3530 O.3       1 FAD601      0.0000 
     12 C1B       -13.7620   53.9790  -40.7870 C.3       1 FAD601      0.0000 
     13 N9A       -13.7150   54.7530  -39.5120 N.pl3     1 FAD601      0.0000 
     14 C8A       -12.6570   54.9190  -38.6890 C.2       1 FAD601      0.0000 
     15 N7A       -12.9870   55.6940  -37.6250 N.2       1 FAD601      0.0000 
     16 C5A       -14.2800   56.0390  -37.7480 C.ar      1 FAD601      0.0000 
     17 C6A       -15.2590   56.8450  -36.9710 C.ar      1 FAD601      0.0000 
     18 N6A       -14.9050   57.4510  -35.8120 N.pl3     1 FAD601      0.0000 
     19 N1A       -16.5190   56.9550  -37.4620 N.ar      1 FAD601      0.0000 
     20 C2A       -16.8960   56.3580  -38.6150 C.ar      1 FAD601      0.0000 
     21 N3A       -16.0530   55.6130  -39.3680 N.ar      1 FAD601      0.0000 
     22 C4A       -14.7570   55.4180  -38.9980 C.ar      1 FAD601      0.0000 
     23 N1         -4.9760   41.2480  -41.4000 N.2       1 FAD601      0.0000 
     24 C2         -4.6800   40.1650  -42.1670 C.2       1 FAD601      0.0000 
     25 O2         -5.5280   39.2530  -42.2660 O.2       1 FAD601      0.0000 
     26 N3         -3.5070   40.0320  -42.8260 N.am      1 FAD601      0.0000 
     27 C4         -2.5440   40.9670  -42.7630 C.2       1 FAD601      0.0000 
     28 O4         -1.4690   40.8100  -43.3850 O.2       1 FAD601      0.0000 
     29 C4X        -2.7900   42.1810  -41.9350 C.2       1 FAD601      0.0000 
     30 N5         -1.8860   43.1740  -41.8260 N.2       1 FAD601      0.0000 
     31 C5X        -2.1240   44.2720  -41.0710 C.ar      1 FAD601      0.0000 
     32 C6         -1.1320   45.2450  -41.0020 C.ar      1 FAD601      0.0000 
     33 C7         -1.3090   46.3980  -40.2440 C.ar      1 FAD601      0.0000 
     34 C7M        -0.1920   47.4100  -40.2200 C.3       1 FAD601      0.0000 
     35 C8         -2.5940   46.5970  -39.5000 C.ar      1 FAD601      0.0000 
     36 C8M        -2.8490   47.8300  -38.6640 C.3       1 FAD601      0.0000 
     37 C9         -3.5920   45.6200  -39.5720 C.ar      1 FAD601      0.0000 
     38 C9A        -3.4190   44.4460  -40.3300 C.ar      1 FAD601      0.0000 
     39 N10        -4.3970   43.4030  -40.4310 N.pl3     1 FAD601      0.0000 
     40 C10        -4.0980   42.2710  -41.2330 C.2       1 FAD601      0.0000 
     41 C1'        -5.7170   43.4540  -39.7750 C.3       1 FAD601      0.0000 
     42 C2'        -6.6910   44.0190  -40.8100 C.3       1 FAD601      0.0000 
     43 O2'        -6.4950   45.4390  -40.8470 O.3       1 FAD601      0.0000 
     44 C3'        -8.1620   43.7050  -40.5360 C.3       1 FAD601      0.0000 
     45 O3'        -8.3580   42.2860  -40.4850 O.3       1 FAD601      0.0000 
     46 C4'        -9.1260   44.2920  -41.5820 C.3       1 FAD601      0.0000 
     47 O4'        -8.5050   45.3000  -42.3920 O.3       1 FAD601      0.0000 
     48 C5'       -10.3380   44.9160  -40.9060 C.3       1 FAD601      0.0000 
     49 O5'       -11.2730   45.4280  -41.8520 O.3       1 FAD601      0.0000 
     50 P         -12.3070   46.5710  -41.3820 P.3       1 FAD601      0.0000 
     51 O1P       -12.8290   46.1850  -40.0170 O.co2     1 FAD601      0.0000 
     52 O2P       -13.2760   46.8290  -42.5110 O.co2     1 FAD601      0.0000 
     53 O3P       -11.3550   47.8580  -41.1620 O.3       1 FAD601      0.0000 
@<TRIPOS>BOND
     1    1    2 ar   
     2    1    3 ar   
     3    1    4 1    
     4    1   53 1    
     5    4    5 1    
     6    5    6 1    
     7    6    7 1    
     8    6    8 1    
     9    7   12 1    
    10    8    9 1    
    11    8   10 1    
    12   10   11 1    
    13   10   12 1    
    14   12   13 1    
    15   13   14 1    
    16   13   22 1    
    17   14   15 2    
    18   15   16 1    
    19   16   17 ar   
    20   16   22 ar   
    21   17   18 1    
    22   17   19 ar   
    23   19   20 ar   
    24   20   21 ar   
    25   21   22 ar   
    26   23   24 1    
    27   23   40 2    
    28   24   25 2    
    29   24   26 am   
    30   26   27 am   
    31   27   28 2    
    32   27   29 1    
    33   29   30 2    
    34   29   40 1    
    35   30   31 1    
    36   31   32 ar   
    37   31   38 ar   
    38   32   33 ar   
    39   33   34 1    
    40   33   35 ar   
    41   35   36 1    
    42   35   37 ar   
    43   37   38 ar   
    44   38   39 1    
    45   39   40 1    
    46   39   41 1    
    47   41   42 1    
    48   42   43 1    
    49   42   44 1    
    50   44   45 1    
    51   44   46 1    
    52   46   47 1    
    53   46   48 1    
    54   48   49 1    
    55   49   50 1    
    56   50   51 ar   
    57   50   52 ar   
    58   50   53 1    
@<TRIPOS>SUBSTRUCTURE
     1 FAD601      1 GROUP   
@<TRIPOS>SET
ATOM$ORANGE STATIC     ATOMS   COLORGROUP SYSTEM 
54 5 5 6 6 8 8 10 10 12 12 14 14 16 16 17 17 20 \
20 22 22 24 24 27 27 29 29 31 31 32 32 33 33 34 34 35 \
35 36 36 37 37 38 38 40 40 41 41 42 42 44 44 46 46 48 \
48 

