#    Name: 6bzq_3_FAD
#    Modification time : Fri May 22 19:27:44 2020

@<TRIPOS>MOLECULE
6bzq_3_FAD
   53    58     1     0     1
SMALL
NO_CHARGES


@<TRIPOS>ATOM
      1 PA        -27.6840   70.5010  -10.5680 P.3       1 FAD601      0.0000 
      2 O1A       -27.6720   71.5020   -9.4350 O.co2     1 FAD601      0.0000 
      3 O2A       -28.9690   70.2570  -11.3240 O.co2     1 FAD601      0.0000 
      4 O5B       -26.5610   70.9380  -11.6430 O.3       1 FAD601      0.0000 
      5 C5B       -26.2000   70.0730  -12.7220 C.3       1 FAD601      0.0000 
      6 C4B       -25.3500   70.8230  -13.7450 C.3       1 FAD601      0.0000 
      7 O4B       -24.9210   69.9600  -14.8090 O.3       1 FAD601      0.0000 
      8 C3B       -26.1040   71.9740  -14.4060 C.3       1 FAD601      0.0000 
      9 O3B       -25.5030   73.2220  -14.0610 O.3       1 FAD601      0.0000 
     10 C2B       -26.0060   71.7280  -15.9010 C.3       1 FAD601      0.0000 
     11 O2B       -25.7310   72.9130  -16.6560 O.3       1 FAD601      0.0000 
     12 C1B       -24.8640   70.7270  -16.0180 C.3       1 FAD601      0.0000 
     13 N9A       -24.9550   69.9050  -17.2570 N.pl3     1 FAD601      0.0000 
     14 C8A       -26.0350   69.2220  -17.6920 C.2       1 FAD601      0.0000 
     15 N7A       -25.7640   68.5980  -18.8650 N.2       1 FAD601      0.0000 
     16 C5A       -24.4890   68.8610  -19.1980 C.ar      1 FAD601      0.0000 
     17 C6A       -23.5700   68.5000  -20.3120 C.ar      1 FAD601      0.0000 
     18 N6A       -23.9720   67.7030  -21.3320 N.pl3     1 FAD601      0.0000 
     19 N1A       -22.3110   69.0000  -20.2760 N.ar      1 FAD601      0.0000 
     20 C2A       -21.8800   69.7950  -19.2700 C.ar      1 FAD601      0.0000 
     21 N3A       -22.6670   70.1570  -18.2300 N.ar      1 FAD601      0.0000 
     22 C4A       -23.9570   69.7300  -18.1330 C.ar      1 FAD601      0.0000 
     23 N1        -33.5630   66.7880   -3.9530 N.2       1 FAD601      0.0000 
     24 C2        -33.8670   67.0970   -2.6630 C.2       1 FAD601      0.0000 
     25 O2        -33.0100   66.8900   -1.7800 O.2       1 FAD601      0.0000 
     26 N3        -35.0590   67.6170   -2.2980 N.am      1 FAD601      0.0000 
     27 C4        -36.0340   67.8640   -3.1870 C.2       1 FAD601      0.0000 
     28 O4        -37.1280   68.3440   -2.8140 O.2       1 FAD601      0.0000 
     29 C4X       -35.7770   67.5470   -4.6190 C.2       1 FAD601      0.0000 
     30 N5        -36.6980   67.7760   -5.5730 N.2       1 FAD601      0.0000 
     31 C5X       -36.4610   67.4890   -6.8730 C.ar      1 FAD601      0.0000 
     32 C6        -37.4760   67.7490   -7.7900 C.ar      1 FAD601      0.0000 
     33 C7        -37.3000   67.4790   -9.1440 C.ar      1 FAD601      0.0000 
     34 C7M       -38.4410   67.7870  -10.0810 C.3       1 FAD601      0.0000 
     35 C8        -35.9980   66.9080   -9.6140 C.ar      1 FAD601      0.0000 
     36 C8M       -35.7500   66.5960  -11.0710 C.3       1 FAD601      0.0000 
     37 C9        -34.9770   66.6490   -8.6920 C.ar      1 FAD601      0.0000 
     38 C9A       -35.1420   66.9150   -7.3190 C.ar      1 FAD601      0.0000 
     39 N10       -34.1410   66.6600   -6.3230 N.pl3     1 FAD601      0.0000 
     40 C10       -34.4460   66.9760   -4.9680 C.2       1 FAD601      0.0000 
     41 C1'       -32.8010   66.1060   -6.6230 C.3       1 FAD601      0.0000 
     42 C2'       -31.8020   67.2630   -6.7270 C.3       1 FAD601      0.0000 
     43 O2'       -31.6060   67.5700   -8.1140 O.3       1 FAD601      0.0000 
     44 C3'       -30.4510   66.9750   -6.0560 C.3       1 FAD601      0.0000 
     45 O3'       -30.6490   66.7140   -4.6630 O.3       1 FAD601      0.0000 
     46 C4'       -29.4250   68.1130   -6.2050 C.3       1 FAD601      0.0000 
     47 O4'       -30.0580   69.3630   -6.4930 O.3       1 FAD601      0.0000 
     48 C5'       -28.4200   67.8240   -7.3130 C.3       1 FAD601      0.0000 
     49 O5'       -27.5160   68.9070   -7.5100 O.3       1 FAD601      0.0000 
     50 P         -26.3760   68.8070   -8.6460 P.3       1 FAD601      0.0000 
     51 O1P       -25.3960   69.9260   -8.3930 O.co2     1 FAD601      0.0000 
     52 O2P       -25.8750   67.3810   -8.7010 O.co2     1 FAD601      0.0000 
     53 O3P       -27.1620   69.0660  -10.0370 O.3       1 FAD601      0.0000 
@<TRIPOS>BOND
     1    1    2 ar   
     2    1    3 ar   
     3    1    4 1    
     4    1   53 1    
     5    4    5 1    
     6    5    6 1    
     7    6    7 1    
     8    6    8 1    
     9    7   12 1    
    10    8    9 1    
    11    8   10 1    
    12   10   11 1    
    13   10   12 1    
    14   12   13 1    
    15   13   14 1    
    16   13   22 1    
    17   14   15 2    
    18   15   16 1    
    19   16   17 ar   
    20   16   22 ar   
    21   17   18 1    
    22   17   19 ar   
    23   19   20 ar   
    24   20   21 ar   
    25   21   22 ar   
    26   23   24 1    
    27   23   40 2    
    28   24   25 2    
    29   24   26 am   
    30   26   27 am   
    31   27   28 2    
    32   27   29 1    
    33   29   30 2    
    34   29   40 1    
    35   30   31 1    
    36   31   32 ar   
    37   31   38 ar   
    38   32   33 ar   
    39   33   34 1    
    40   33   35 ar   
    41   35   36 1    
    42   35   37 ar   
    43   37   38 ar   
    44   38   39 1    
    45   39   40 1    
    46   39   41 1    
    47   41   42 1    
    48   42   43 1    
    49   42   44 1    
    50   44   45 1    
    51   44   46 1    
    52   46   47 1    
    53   46   48 1    
    54   48   49 1    
    55   49   50 1    
    56   50   51 ar   
    57   50   52 ar   
    58   50   53 1    
@<TRIPOS>SUBSTRUCTURE
     1 FAD601      1 GROUP   
@<TRIPOS>SET
ATOM$ORANGE STATIC     ATOMS   COLORGROUP SYSTEM 
54 5 5 6 6 8 8 10 10 12 12 14 14 16 16 17 17 20 \
20 22 22 24 24 27 27 29 29 31 31 32 32 33 33 34 34 35 \
35 36 36 37 37 38 38 40 40 41 41 42 42 44 44 46 46 48 \
48 

