#    Name: 6bzq_4_FAD
#    Modification time : Fri May 22 19:27:53 2020

@<TRIPOS>MOLECULE
6bzq_4_FAD
   53    58     1     0     1
SMALL
NO_CHARGES


@<TRIPOS>ATOM
      1 PA         -8.3210   66.6170  -60.9520 P.3       1 FAD601      0.0000 
      2 O1A        -8.2870   65.3160  -61.7230 O.co2     1 FAD601      0.0000 
      3 O2A        -9.6030   67.0560  -60.2860 O.co2     1 FAD601      0.0000 
      4 O5B        -7.1800   66.5680  -59.8150 O.3       1 FAD601      0.0000 
      5 C5B        -6.7180   67.7740  -59.2060 C.3       1 FAD601      0.0000 
      6 C4B        -5.9470   67.4590  -57.9280 C.3       1 FAD601      0.0000 
      7 O4B        -5.5070   68.6700  -57.3010 O.3       1 FAD601      0.0000 
      8 C3B        -6.7850   66.7090  -56.8960 C.3       1 FAD601      0.0000 
      9 O3B        -6.2840   65.3770  -56.7130 O.3       1 FAD601      0.0000 
     10 C2B        -6.6940   67.5450  -55.6270 C.3       1 FAD601      0.0000 
     11 O2B        -6.4480   66.7580  -54.4600 O.3       1 FAD601      0.0000 
     12 C1B        -5.5370   68.5060  -55.8820 C.3       1 FAD601      0.0000 
     13 N9A        -5.6620   69.8040  -55.1560 N.pl3     1 FAD601      0.0000 
     14 C8A        -6.7320   70.6270  -55.1410 C.2       1 FAD601      0.0000 
     15 N7A        -6.4940   71.7220  -54.3710 N.2       1 FAD601      0.0000 
     16 C5A        -5.2490   71.6120  -53.8750 C.ar      1 FAD601      0.0000 
     17 C6A        -4.3660   72.4180  -52.9890 C.ar      1 FAD601      0.0000 
     18 N6A        -4.7840   73.5950  -52.4660 N.pl3     1 FAD601      0.0000 
     19 N1A        -3.1260   71.9370  -52.7190 N.ar      1 FAD601      0.0000 
     20 C2A        -2.6820   70.7660  -53.2290 C.ar      1 FAD601      0.0000 
     21 N3A        -3.4360   69.9870  -54.0390 N.ar      1 FAD601      0.0000 
     22 C4A        -4.7020   70.3450  -54.3950 C.ar      1 FAD601      0.0000 
     23 N1        -14.4940   67.0870  -68.3490 N.2       1 FAD601      0.0000 
     24 C2        -14.8650   66.2560  -69.3530 C.2       1 FAD601      0.0000 
     25 O2        -14.0360   66.0400  -70.2620 O.2       1 FAD601      0.0000 
     26 N3        -16.0830   65.6710  -69.4000 N.am      1 FAD601      0.0000 
     27 C4        -17.0080   65.8780  -68.4450 C.2       1 FAD601      0.0000 
     28 O4        -18.1260   65.3200  -68.5230 O.2       1 FAD601      0.0000 
     29 C4X       -16.6690   66.7840  -67.3080 C.2       1 FAD601      0.0000 
     30 N5        -17.5230   67.0420  -66.2960 N.2       1 FAD601      0.0000 
     31 C5X       -17.1930   67.8680  -65.2730 C.ar      1 FAD601      0.0000 
     32 C6        -18.1390   68.0920  -64.2740 C.ar      1 FAD601      0.0000 
     33 C7        -17.8570   68.9290  -63.1970 C.ar      1 FAD601      0.0000 
     34 C7M       -18.9240   69.1260  -62.1500 C.3       1 FAD601      0.0000 
     35 C8        -16.5160   69.5900  -63.1090 C.ar      1 FAD601      0.0000 
     36 C8M       -16.1550   70.5050  -61.9630 C.3       1 FAD601      0.0000 
     37 C9        -15.5650   69.3640  -64.1090 C.ar      1 FAD601      0.0000 
     38 C9A       -15.8400   68.5250  -65.2060 C.ar      1 FAD601      0.0000 
     39 N10       -14.9130   68.2610  -66.2670 N.pl3     1 FAD601      0.0000 
     40 C10       -15.3150   67.3960  -67.3170 C.2       1 FAD601      0.0000 
     41 C1'       -13.5480   68.8190  -66.3360 C.3       1 FAD601      0.0000 
     42 C2'       -12.5530   67.7410  -65.8990 C.3       1 FAD601      0.0000 
     43 O2'       -12.9570   67.2300  -64.6250 O.3       1 FAD601      0.0000 
     44 C3'       -11.1410   68.2950  -65.7830 C.3       1 FAD601      0.0000 
     45 O3'       -10.7600   68.9240  -67.0150 O.3       1 FAD601      0.0000 
     46 C4'       -10.0780   67.2470  -65.4390 C.3       1 FAD601      0.0000 
     47 O4'       -10.5550   66.2860  -64.4900 O.3       1 FAD601      0.0000 
     48 C5'        -8.8590   67.9590  -64.8680 C.3       1 FAD601      0.0000 
     49 O5'        -7.9080   67.0630  -64.3060 O.3       1 FAD601      0.0000 
     50 P          -6.8840   67.6400  -63.2030 P.3       1 FAD601      0.0000 
     51 O1P        -6.4520   69.0240  -63.6380 O.co2     1 FAD601      0.0000 
     52 O2P        -5.8480   66.5760  -62.9330 O.co2     1 FAD601      0.0000 
     53 O3P        -7.8300   67.8270  -61.9050 O.3       1 FAD601      0.0000 
@<TRIPOS>BOND
     1   13   22 1    
     2   14   15 2    
     3   15   16 1    
     4   16   17 ar   
     5   16   22 ar   
     6   17   18 1    
     7   17   19 ar   
     8   19   20 ar   
     9   20   21 ar   
    10   21   22 ar   
    11   23   24 1    
    12   23   40 2    
    13   24   25 2    
    14   24   26 am   
    15   26   27 am   
    16   27   28 2    
    17   27   29 1    
    18   29   30 2    
    19   29   40 1    
    20   30   31 1    
    21   31   32 ar   
    22   31   38 ar   
    23   32   33 ar   
    24   33   34 1    
    25   33   35 ar   
    26   35   36 1    
    27   35   37 ar   
    28   37   38 ar   
    29   38   39 1    
    30   39   40 1    
    31   39   41 1    
    32   41   42 1    
    33   42   43 1    
    34   42   44 1    
    35   44   45 1    
    36   44   46 1    
    37   46   47 1    
    38   46   48 1    
    39   48   49 1    
    40   49   50 1    
    41   50   51 ar   
    42   50   52 ar   
    43   50   53 1    
    44    1    2 ar   
    45    1    3 ar   
    46    1    4 1    
    47    1   53 1    
    48    4    5 1    
    49    5    6 1    
    50    6    7 1    
    51    6    8 1    
    52    7   12 1    
    53    8    9 1    
    54    8   10 1    
    55   10   11 1    
    56   10   12 1    
    57   12   13 1    
    58   13   14 1    
@<TRIPOS>SUBSTRUCTURE
     1 FAD601      1 GROUP   
@<TRIPOS>SET
ATOM$ORANGE STATIC     ATOMS   COLORGROUP SYSTEM 
54 5 5 6 6 8 8 10 10 12 12 14 14 16 16 17 17 20 \
20 22 22 24 24 27 27 29 29 31 31 32 32 33 33 34 34 35 \
35 36 36 37 37 38 38 40 40 41 41 42 42 44 44 46 46 48 \
48 

