#    Name: 6bzq_2_FAD
#    Modification time : Fri May 22 19:27:36 2020

@<TRIPOS>MOLECULE
6bzq_2_FAD
   53    58     1     0     1
SMALL
NO_CHARGES


@<TRIPOS>ATOM
      1 PA        -30.8240   94.5020  -19.9870 P.3       1 FAD601      0.0000 
      2 O1A       -30.9610   94.7890  -18.5110 O.co2     1 FAD601      0.0000 
      3 O2A       -29.4860   94.0410  -20.5150 O.co2     1 FAD601      0.0000 
      4 O5B       -31.9230   93.3980  -20.4030 O.3       1 FAD601      0.0000 
      5 C5B       -32.1740   93.1250  -21.7810 C.3       1 FAD601      0.0000 
      6 C4B       -32.8270   91.7590  -21.9490 C.3       1 FAD601      0.0000 
      7 O4B       -33.2760   91.5930  -23.3010 O.3       1 FAD601      0.0000 
      8 C3B       -31.8610   90.6140  -21.6520 C.3       1 FAD601      0.0000 
      9 O3B       -32.3580   89.7970  -20.5830 O.3       1 FAD601      0.0000 
     10 C2B       -31.7460   89.8480  -22.9610 C.3       1 FAD601      0.0000 
     11 O2B       -31.6920   88.4290  -22.7760 O.3       1 FAD601      0.0000 
     12 C1B       -32.9980   90.2570  -23.7360 C.3       1 FAD601      0.0000 
     13 N9A       -32.8880   90.1460  -25.2260 N.pl3     1 FAD601      0.0000 
     14 C8A       -31.8090   90.3940  -26.0030 C.2       1 FAD601      0.0000 
     15 N7A       -32.0930   90.1780  -27.3150 N.2       1 FAD601      0.0000 
     16 C5A       -33.3760   89.7830  -27.4020 C.ar      1 FAD601      0.0000 
     17 C6A       -34.3150   89.3910  -28.4900 C.ar      1 FAD601      0.0000 
     18 N6A       -33.9270   89.3790  -29.7880 N.pl3     1 FAD601      0.0000 
     19 N1A       -35.5800   89.0440  -28.1420 N.ar      1 FAD601      0.0000 
     20 C2A       -35.9980   89.0480  -26.8570 C.ar      1 FAD601      0.0000 
     21 N3A       -35.1930   89.3920  -25.8240 N.ar      1 FAD601      0.0000 
     22 C4A       -33.8960   89.7630  -26.0220 C.ar      1 FAD601      0.0000 
     23 N1        -24.7930  101.6630  -18.1270 N.2       1 FAD601      0.0000 
     24 C2        -24.4790  102.3080  -16.9700 C.2       1 FAD601      0.0000 
     25 O2        -25.3280  103.0650  -16.4490 O.2       1 FAD601      0.0000 
     26 N3        -23.2830  102.1660  -16.3600 N.am      1 FAD601      0.0000 
     27 C4        -22.3160  101.3770  -16.8580 C.2       1 FAD601      0.0000 
     28 O4        -21.2210  101.2690  -16.2630 O.2       1 FAD601      0.0000 
     29 C4X       -22.5810  100.6390  -18.1240 C.2       1 FAD601      0.0000 
     30 N5        -21.6680   99.8170  -18.6850 N.2       1 FAD601      0.0000 
     31 C5X       -21.9170   99.1500  -19.8370 C.ar      1 FAD601      0.0000 
     32 C6        -20.9200   98.3290  -20.3570 C.ar      1 FAD601      0.0000 
     33 C7        -21.1240   97.6200  -21.5380 C.ar      1 FAD601      0.0000 
     34 C7M       -20.0070   96.7480  -22.0480 C.3       1 FAD601      0.0000 
     35 C8        -22.4330   97.7380  -22.2530 C.ar      1 FAD601      0.0000 
     36 C8M       -22.7120   96.9930  -23.5360 C.3       1 FAD601      0.0000 
     37 C9        -23.4340   98.5600  -21.7310 C.ar      1 FAD601      0.0000 
     38 C9A       -23.2400   99.2830  -20.5380 C.ar      1 FAD601      0.0000 
     39 N10       -24.2250  100.1520  -19.9620 N.pl3     1 FAD601      0.0000 
     40 C10       -23.9170  100.8310  -18.7510 C.2       1 FAD601      0.0000 
     41 C1'       -25.5540  100.3480  -20.5650 C.3       1 FAD601      0.0000 
     42 C2'       -26.5130   99.3080  -19.9840 C.3       1 FAD601      0.0000 
     43 O2'       -26.7690   98.2950  -20.9670 O.3       1 FAD601      0.0000 
     44 C3'       -27.8340   99.9290  -19.5190 C.3       1 FAD601      0.0000 
     45 O3'       -27.5670  100.8850  -18.4850 O.3       1 FAD601      0.0000 
     46 C4'       -28.8480   98.9050  -18.9830 C.3       1 FAD601      0.0000 
     47 O4'       -28.2220   97.6690  -18.6060 O.3       1 FAD601      0.0000 
     48 C5'       -29.9400   98.5920  -20.0000 C.3       1 FAD601      0.0000 
     49 O5'       -30.9420   97.7990  -19.3680 O.3       1 FAD601      0.0000 
     50 P         -32.0760   97.0630  -20.2430 P.3       1 FAD601      0.0000 
     51 O1P       -32.4350   97.9820  -21.3890 O.co2     1 FAD601      0.0000 
     52 O2P       -33.1530   96.5560  -19.3110 O.co2     1 FAD601      0.0000 
     53 O3P       -31.2930   95.7890  -20.8480 O.3       1 FAD601      0.0000 
@<TRIPOS>BOND
     1    1    2 ar   
     2    1    3 ar   
     3    1    4 1    
     4    1   53 1    
     5    4    5 1    
     6    5    6 1    
     7    6    7 1    
     8    6    8 1    
     9    7   12 1    
    10    8    9 1    
    11    8   10 1    
    12   10   11 1    
    13   10   12 1    
    14   12   13 1    
    15   13   14 1    
    16   13   22 1    
    17   14   15 2    
    18   15   16 1    
    19   16   17 ar   
    20   16   22 ar   
    21   17   18 1    
    22   17   19 ar   
    23   19   20 ar   
    24   20   21 ar   
    25   21   22 ar   
    26   23   24 1    
    27   23   40 2    
    28   24   25 2    
    29   24   26 am   
    30   26   27 am   
    31   27   28 2    
    32   27   29 1    
    33   29   30 2    
    34   29   40 1    
    35   30   31 1    
    36   31   32 ar   
    37   31   38 ar   
    38   32   33 ar   
    39   33   34 1    
    40   33   35 ar   
    41   35   36 1    
    42   35   37 ar   
    43   37   38 ar   
    44   38   39 1    
    45   39   40 1    
    46   39   41 1    
    47   41   42 1    
    48   42   43 1    
    49   42   44 1    
    50   44   45 1    
    51   44   46 1    
    52   46   47 1    
    53   46   48 1    
    54   48   49 1    
    55   49   50 1    
    56   50   51 ar   
    57   50   52 ar   
    58   50   53 1    
@<TRIPOS>SUBSTRUCTURE
     1 FAD601      1 GROUP   
@<TRIPOS>SET
ATOM$ORANGE STATIC     ATOMS   COLORGROUP SYSTEM 
54 5 5 6 6 8 8 10 10 12 12 14 14 16 16 17 17 20 \
20 22 22 24 24 27 27 29 29 31 31 32 32 33 33 34 34 35 \
35 36 36 37 37 38 38 40 40 41 41 42 42 44 44 46 46 48 \
48 

