#    Name: 6sda_2_FAD
#    Modification time : Fri May 22 19:33:09 2020

@<TRIPOS>MOLECULE
6sda_2_FAD
   53    58     1     0     1
SMALL
NO_CHARGES


@<TRIPOS>ATOM
      1 PA        -16.0010  -59.4580   13.7430 P.3       1 FAD601      0.0000 
      2 O1A       -17.0290  -60.5090   13.9270 O.co2     1 FAD601      0.0000 
      3 O2A       -14.6600  -59.8740   13.2750 O.co2     1 FAD601      0.0000 
      4 O5B       -16.5780  -58.3400   12.7700 O.3       1 FAD601      0.0000 
      5 C5B       -15.7620  -57.8130   11.7100 C.3       1 FAD601      0.0000 
      6 C4B       -16.6800  -57.2500   10.6560 C.3       1 FAD601      0.0000 
      7 O4B       -17.2690  -58.3440    9.9100 O.3       1 FAD601      0.0000 
      8 C3B       -17.8660  -56.4250   11.1770 C.3       1 FAD601      0.0000 
      9 O3B       -18.0250  -55.2640   10.3860 O.3       1 FAD601      0.0000 
     10 C2B       -19.0740  -57.3430   10.9690 C.3       1 FAD601      0.0000 
     11 O2B       -20.2540  -56.6390   10.6760 O.3       1 FAD601      0.0000 
     12 C1B       -18.6410  -58.1040    9.7300 C.3       1 FAD601      0.0000 
     13 N9A       -19.3020  -59.3790    9.5310 N.pl3     1 FAD601      0.0000 
     14 C8A       -19.1710  -60.5010   10.2880 C.2       1 FAD601      0.0000 
     15 N7A       -19.8840  -61.5040    9.8350 N.2       1 FAD601      0.0000 
     16 C5A       -20.4940  -61.0090    8.6960 C.ar      1 FAD601      0.0000 
     17 C6A       -21.3630  -61.5820    7.7600 C.ar      1 FAD601      0.0000 
     18 N6A       -21.7770  -62.8380    7.8250 N.pl3     1 FAD601      0.0000 
     19 N1A       -21.7630  -60.8080    6.7290 N.ar      1 FAD601      0.0000 
     20 C2A       -21.3380  -59.5450    6.6730 C.ar      1 FAD601      0.0000 
     21 N3A       -20.5400  -58.8980    7.5050 N.ar      1 FAD601      0.0000 
     22 C4A       -20.1440  -59.6960    8.5020 C.ar      1 FAD601      0.0000 
     23 N1        -18.3640  -59.4710   24.0580 N.2       1 FAD601      0.0000 
     24 C2        -18.7610  -60.2680   25.0400 C.2       1 FAD601      0.0000 
     25 O2        -18.9940  -61.4450   24.8110 O.2       1 FAD601      0.0000 
     26 N3        -18.9350  -59.8130   26.3040 N.am      1 FAD601      0.0000 
     27 C4        -18.7040  -58.5010   26.6420 C.2       1 FAD601      0.0000 
     28 O4        -18.8800  -58.1250   27.7830 O.2       1 FAD601      0.0000 
     29 C4X       -18.2830  -57.6350   25.6330 C.2       1 FAD601      0.0000 
     30 N5        -18.0550  -56.3810   25.9180 N.2       1 FAD601      0.0000 
     31 C5X       -17.6450  -55.5670   24.8940 C.ar      1 FAD601      0.0000 
     32 C6        -17.3890  -54.2170   25.1760 C.ar      1 FAD601      0.0000 
     33 C7        -16.9690  -53.3480   24.2040 C.ar      1 FAD601      0.0000 
     34 C7M       -16.7170  -51.9160   24.5700 C.3       1 FAD601      0.0000 
     35 C8        -16.8090  -53.8090   22.8790 C.ar      1 FAD601      0.0000 
     36 C8M       -16.3630  -52.8840   21.7840 C.3       1 FAD601      0.0000 
     37 C9        -17.0440  -55.1290   22.5870 C.ar      1 FAD601      0.0000 
     38 C9A       -17.4630  -56.0310   23.5780 C.ar      1 FAD601      0.0000 
     39 N10       -17.7270  -57.3730   23.3200 N.pl3     1 FAD601      0.0000 
     40 C10       -18.1360  -58.2120   24.3280 C.2       1 FAD601      0.0000 
     41 C1'       -17.5080  -57.9410   21.9830 C.3       1 FAD601      0.0000 
     42 C2'       -18.5050  -57.5210   20.9690 C.3       1 FAD601      0.0000 
     43 O2'       -19.7200  -58.2100   21.2050 O.3       1 FAD601      0.0000 
     44 C3'       -17.8940  -57.9460   19.6370 C.3       1 FAD601      0.0000 
     45 O3'       -16.8060  -57.1200   19.3370 O.3       1 FAD601      0.0000 
     46 C4'       -18.8330  -57.9170   18.4380 C.3       1 FAD601      0.0000 
     47 O4'       -19.7220  -59.0270   18.5460 O.3       1 FAD601      0.0000 
     48 C5'       -18.0760  -57.9280   17.1290 C.3       1 FAD601      0.0000 
     49 O5'       -17.3890  -59.1830   16.9680 O.3       1 FAD601      0.0000 
     50 P         -15.8430  -59.1890   16.6230 P.3       1 FAD601      0.0000 
     51 O1P       -15.2180  -58.2110   17.5320 O.co2     1 FAD601      0.0000 
     52 O2P       -15.3370  -60.5790   16.6270 O.co2     1 FAD601      0.0000 
     53 O3P       -15.8560  -58.6630   15.1220 O.3       1 FAD601      0.0000 
@<TRIPOS>BOND
     1    1    2 ar   
     2    1    3 ar   
     3    1    4 1    
     4    1   53 1    
     5    4    5 1    
     6    5    6 1    
     7    6    7 1    
     8    6    8 1    
     9    7   12 1    
    10    8    9 1    
    11    8   10 1    
    12   10   11 1    
    13   10   12 1    
    14   12   13 1    
    15   13   14 1    
    16   13   22 1    
    17   14   15 2    
    18   15   16 1    
    19   16   17 ar   
    20   16   22 ar   
    21   17   18 1    
    22   17   19 ar   
    23   19   20 ar   
    24   20   21 ar   
    25   21   22 ar   
    26   23   24 1    
    27   23   40 2    
    28   24   25 2    
    29   24   26 am   
    30   26   27 am   
    31   27   28 2    
    32   27   29 1    
    33   29   30 2    
    34   29   40 1    
    35   30   31 1    
    36   31   32 ar   
    37   31   38 ar   
    38   32   33 ar   
    39   33   34 1    
    40   33   35 ar   
    41   35   36 1    
    42   35   37 ar   
    43   37   38 ar   
    44   38   39 1    
    45   39   40 1    
    46   39   41 1    
    47   41   42 1    
    48   42   43 1    
    49   42   44 1    
    50   44   45 1    
    51   44   46 1    
    52   46   47 1    
    53   46   48 1    
    54   48   49 1    
    55   49   50 1    
    56   50   51 ar   
    57   50   52 ar   
    58   50   53 1    
@<TRIPOS>SUBSTRUCTURE
     1 FAD601      1 GROUP   
@<TRIPOS>SET
ATOM$ORANGE STATIC     ATOMS   COLORGROUP SYSTEM 
54 5 5 6 6 8 8 10 10 12 12 14 14 16 16 17 17 20 \
20 22 22 24 24 27 27 29 29 31 31 32 32 33 33 34 34 35 \
35 36 36 37 37 38 38 40 40 41 41 42 42 44 44 46 46 48 \
48 

