#    Name: 5mvn_2_PFL
#    Modification time : Fri May 22 19:11:52 2020

@<TRIPOS>MOLECULE
5mvn_2_PFL
   13    13     1     0     0
SMALL
NO_CHARGES


@<TRIPOS>ATOM
      1 O1         51.1770  -47.6420   41.1620 O.3       1 PFL407      0.0000 
      2 C1         51.7980  -46.8520   42.0600 C.ar      1 PFL407      0.0000 
      3 C2         51.7690  -47.3080   43.3870 C.ar      1 PFL407      0.0000 
      4 C6         52.3440  -45.6350   41.7010 C.ar      1 PFL407      0.0000 
      5 C3         52.2250  -46.4290   44.3810 C.ar      1 PFL407      0.0000 
      6 C7         51.3730  -48.7230   43.6610 C.3       1 PFL407      0.0000 
      7 C4         52.7340  -45.1870   44.0430 C.ar      1 PFL407      0.0000 
      8 C5         52.8110  -44.7910   42.7110 C.ar      1 PFL407      0.0000 
      9 C10        52.4860  -45.2930   40.2230 C.3       1 PFL407      0.0000 
     10 C8         52.5760  -49.6170   43.9370 C.3       1 PFL407      0.0000 
     11 C9         50.3350  -48.8150   44.7650 C.3       1 PFL407      0.0000 
     12 C11        51.3970  -44.3480   39.7370 C.3       1 PFL407      0.0000 
     13 C12        53.8690  -44.7700   39.8910 C.3       1 PFL407      0.0000 
@<TRIPOS>BOND
     1    1    2 1    
     2    2    3 ar   
     3    2    4 ar   
     4    3    5 ar   
     5    3    6 1    
     6    4    8 ar   
     7    4    9 1    
     8    5    7 ar   
     9    6   10 1    
    10    6   11 1    
    11    7    8 ar   
    12    9   12 1    
    13    9   13 1    
@<TRIPOS>SUBSTRUCTURE
     1 PFL407      1 GROUP   
@<TRIPOS>SET

