#    Name: 5mvn_3_PFL
#    Modification time : Fri May 22 19:11:55 2020

@<TRIPOS>MOLECULE
5mvn_3_PFL
   13    13     1     0     0
SMALL
NO_CHARGES


@<TRIPOS>ATOM
      1 O1         72.0570  -35.1010   31.6460 O.3       1 PFL410      0.0000 
      2 C1         71.4350  -35.4150   32.8220 C.ar      1 PFL410      0.0000 
      3 C2         70.1510  -34.9150   33.0760 C.ar      1 PFL410      0.0000 
      4 C6         72.1390  -36.1710   33.7520 C.ar      1 PFL410      0.0000 
      5 C3         69.6140  -35.1450   34.3480 C.ar      1 PFL410      0.0000 
      6 C7         69.3510  -34.2880   31.9560 C.3       1 PFL410      0.0000 
      7 C4         70.3140  -35.8780   35.2970 C.ar      1 PFL410      0.0000 
      8 C5         71.5670  -36.4010   35.0000 C.ar      1 PFL410      0.0000 
      9 C10        73.5230  -36.7040   33.3840 C.3       1 PFL410      0.0000 
     10 C8         68.3900  -35.2710   31.3060 C.3       1 PFL410      0.0000 
     11 C9         68.6070  -33.0200   32.3550 C.3       1 PFL410      0.0000 
     12 C11        74.5720  -35.6210   33.5400 C.3       1 PFL410      0.0000 
     13 C12        73.9140  -37.9500   34.1600 C.3       1 PFL410      0.0000 
@<TRIPOS>BOND
     1    1    2 1    
     2    2    3 ar   
     3    2    4 ar   
     4    3    5 ar   
     5    3    6 1    
     6    4    8 ar   
     7    4    9 1    
     8    5    7 ar   
     9    6   10 1    
    10    6   11 1    
    11    7    8 ar   
    12    9   12 1    
    13    9   13 1    
@<TRIPOS>SUBSTRUCTURE
     1 PFL410      1 GROUP   
@<TRIPOS>SET

