#    Name: 5mvn_4_PFL
#    Modification time : Fri May 22 19:12:03 2020

@<TRIPOS>MOLECULE
5mvn_4_PFL
   13    13     1     0     0
SMALL
NO_CHARGES


@<TRIPOS>ATOM
      1 O1         65.6860  -10.7780   33.3790 O.3       1 PFL408      0.0000 
      2 C1         66.3710  -11.6180   34.1760 C.ar      1 PFL408      0.0000 
      3 C2         65.5850  -12.6150   34.7460 C.ar      1 PFL408      0.0000 
      4 C6         67.7210  -11.4460   34.4960 C.ar      1 PFL408      0.0000 
      5 C3         66.1580  -13.4020   35.7450 C.ar      1 PFL408      0.0000 
      6 C7         64.2100  -12.8920   34.1680 C.3       1 PFL408      0.0000 
      7 C4         67.4850  -13.2220   36.1140 C.ar      1 PFL408      0.0000 
      8 C5         68.2680  -12.2670   35.4840 C.ar      1 PFL408      0.0000 
      9 C10        68.5650  -10.4520   33.7230 C.3       1 PFL408      0.0000 
     10 C8         64.1870  -14.0910   33.2350 C.3       1 PFL408      0.0000 
     11 C9         63.1280  -13.0290   35.2150 C.3       1 PFL408      0.0000 
     12 C11        69.0050   -9.2610   34.5690 C.3       1 PFL408      0.0000 
     13 C12        69.7490  -11.1130   33.0340 C.3       1 PFL408      0.0000 
@<TRIPOS>BOND
     1    1    2 1    
     2    2    3 ar   
     3    2    4 ar   
     4    3    5 ar   
     5    3    6 1    
     6    4    8 ar   
     7    4    9 1    
     8    5    7 ar   
     9    6   10 1    
    10    6   11 1    
    11    7    8 ar   
    12    9   12 1    
    13    9   13 1    
@<TRIPOS>SUBSTRUCTURE
     1 PFL408      1 GROUP   
@<TRIPOS>SET

