#    Name: 5mvn_1_PFL
#    Modification time : Fri May 22 19:11:47 2020

@<TRIPOS>MOLECULE
5mvn_1_PFL
   13    13     1     0     0
SMALL
NO_CHARGES


@<TRIPOS>ATOM
      1 O1         35.3530  -30.7510   49.8760 O.3       1 PFL410      0.0000 
      2 C1         36.4960  -30.2070   50.3600 C.ar      1 PFL410      0.0000 
      3 C2         37.6680  -30.0540   49.6170 C.ar      1 PFL410      0.0000 
      4 C6         36.4370  -29.8110   51.6820 C.ar      1 PFL410      0.0000 
      5 C3         38.7810  -29.4880   50.2500 C.ar      1 PFL410      0.0000 
      6 C7         37.6870  -30.4960   48.1760 C.3       1 PFL410      0.0000 
      7 C4         38.7290  -29.1070   51.5820 C.ar      1 PFL410      0.0000 
      8 C5         37.5600  -29.2690   52.3010 C.ar      1 PFL410      0.0000 
      9 C10        35.1430  -29.9950   52.4460 C.3       1 PFL410      0.0000 
     10 C8         37.9340  -29.3600   47.2010 C.3       1 PFL410      0.0000 
     11 C9         38.6440  -31.6410   47.9190 C.3       1 PFL410      0.0000 
     12 C11        35.3930  -30.9680   53.5690 C.3       1 PFL410      0.0000 
     13 C12        34.6490  -28.6620   52.9600 C.3       1 PFL410      0.0000 
@<TRIPOS>BOND
     1    1    2 1    
     2    2    3 ar   
     3    2    4 ar   
     4    3    5 ar   
     5    3    6 1    
     6    4    8 ar   
     7    4    9 1    
     8    5    7 ar   
     9    6   10 1    
    10    6   11 1    
    11    7    8 ar   
    12    9   12 1    
    13    9   13 1    
@<TRIPOS>SUBSTRUCTURE
     1 PFL410      1 GROUP   
@<TRIPOS>SET

