#    Name: 6qeb_1_AZM_CAVITY_N1_6
#    Modification time : Fri May 22 19:25:51 2020

@<TRIPOS>MOLECULE
6qeb_1_AZM_CAVITY_N1_6
   28     0     6     0     0
SMALL
NO_CHARGES


@<TRIPOS>ATOM
      1 OG         -3.9000   -1.7400    3.6900 O.3       1 SER1        0.0000 
      2 OD1        -6.4400   -7.4300    2.4200 O.co2     2 ASP3        0.0000 
      3 OD1        -6.8700   -7.5600    3.8500 O.co2     2 ASP3        0.0000 
      4 OD1        -6.3700   -8.9700    3.8700 O.co2     2 ASP3        0.0000 
      5 OD1        -4.2300   -6.7000    0.0000 O.co2     2 ASP3        0.0000 
      6 OD1        -4.6600   -6.8200    1.4300 O.co2     2 ASP3        0.0000 
      7 OD1        -5.0900   -6.9500    2.8700 O.co2     2 ASP3        0.0000 
      8 OD1        -3.3200   -6.3400    1.8800 O.co2     2 ASP3        0.0000 
      9 NZ         -2.8800   -6.2100    0.4500 N.4       3 LYS4        0.0000 
     10 NZ         -1.9700   -5.8600    2.3300 N.4       3 LYS4        0.0000 
     11 CZ         -4.7300   -5.2800   -0.0200 C.ar      4 PHE5        0.0000 
     12 CZ         -5.1600   -5.4100    1.4100 C.ar      4 PHE5        0.0000 
     13 CZ         -4.3100   -3.5100    1.8300 C.ar      4 PHE5        0.0000 
     14 CZ         -3.3800   -4.8000    0.4300 C.ar      4 PHE5        0.0000 
     15 CZ         -3.8100   -4.9300    1.8600 C.ar      4 PHE5        0.0000 
     16 CZ         -3.4000   -3.1500    3.7100 C.ar      4 PHE5        0.0000 
     17 CA         -7.4500   -2.9600    5.6500 C.3       5 GLY6        0.0000 
     18 CA         -6.5200   -4.2500    4.2500 C.3       5 GLY6        0.0000 
     19 CA         -5.5900   -5.5400    2.8400 C.3       5 GLY6        0.0000 
     20 CA         -6.0200   -5.6600    4.2700 C.3       5 GLY6        0.0000 
     21 CA         -6.6100   -1.0600    6.0700 C.3       5 GLY6        0.0000 
     22 CA         -4.8300   -0.4500    5.0900 C.3       5 GLY6        0.0000 
     23 DU         -5.6800   -2.3500    4.6700 H         6 CUB7        0.0000 
     24 DU         -4.7400   -3.6400    3.2600 H         6 CUB7        0.0000 
     25 DU         -5.1800   -3.7600    4.6900 H         6 CUB7        0.0000 
     26 DU         -4.2500   -5.0500    3.2900 H         6 CUB7        0.0000 
     27 DU         -5.2600   -0.5800    6.5200 H         6 CUB7        0.0000 
     28 DU         -4.3300   -1.8700    5.1200 H         6 CUB7        0.0000 
@<TRIPOS>BOND
@<TRIPOS>SUBSTRUCTURE
     1 SER1        1 GROUP   
     2 ASP3        2 GROUP   
     3 LYS4        9 GROUP   
     4 PHE5       11 GROUP   
     5 GLY6       17 GROUP   
     6 CUB7       23 GROUP   
@<TRIPOS>SET

