#    Name: 6qeb_1_AZM_CAVITY_N1_8
#    Modification time : Fri May 22 19:25:51 2020

@<TRIPOS>MOLECULE
6qeb_1_AZM_CAVITY_N1_8
   55     0     7     0     0
SMALL
NO_CHARGES


@<TRIPOS>ATOM
      1 OG         -7.3600   -7.7900    0.5400 O.3       1 SER1        0.0000 
      2 OG         -7.7900   -7.9200    1.9700 O.3       1 SER1        0.0000 
      3 OG         -5.6500   -5.6400   -1.9000 O.3       1 SER1        0.0000 
      4 OG         -5.1500   -7.0600   -1.8800 O.3       1 SER1        0.0000 
      5 OG         -3.9000   -1.7400    3.6900 O.3       1 SER1        0.0000 
      6 O          -7.8600   -6.3800    0.5100 O.2       2 ALA2        0.0000 
      7 OD1        -5.5800   -7.1800   -0.4400 O.co2     3 ASP3        0.0000 
      8 OD1        -6.0100   -7.3100    0.9900 O.co2     3 ASP3        0.0000 
      9 OD1        -6.4400   -7.4300    2.4200 O.co2     3 ASP3        0.0000 
     10 OD1        -6.8700   -7.5600    3.8500 O.co2     3 ASP3        0.0000 
     11 OD1        -6.3700   -8.9700    3.8700 O.co2     3 ASP3        0.0000 
     12 OD1        -4.2300   -6.7000    0.0000 O.co2     3 ASP3        0.0000 
     13 OD1        -4.6600   -6.8200    1.4300 O.co2     3 ASP3        0.0000 
     14 OD1        -5.0900   -6.9500    2.8700 O.co2     3 ASP3        0.0000 
     15 OD1        -3.3200   -6.3400    1.8800 O.co2     3 ASP3        0.0000 
     16 NZ         -4.3000   -5.1600   -1.4500 N.4       4 LYS4        0.0000 
     17 NZ         -2.8800   -6.2100    0.4500 N.4       4 LYS4        0.0000 
     18 NZ         -1.9700   -5.8600    2.3300 N.4       4 LYS4        0.0000 
     19 CZ         -6.5800   -4.3500   -0.5000 C.ar      5 PHE5        0.0000 
     20 CZ         -6.0800   -5.7700   -0.4700 C.ar      5 PHE5        0.0000 
     21 CZ         -6.1600   -2.5800    1.3600 C.ar      5 PHE5        0.0000 
     22 CZ         -5.6600   -4.0000    1.3800 C.ar      5 PHE5        0.0000 
     23 CZ         -4.7300   -5.2800   -0.0200 C.ar      5 PHE5        0.0000 
     24 CZ         -5.1600   -5.4100    1.4100 C.ar      5 PHE5        0.0000 
     25 CZ         -4.8100   -2.1000    1.8100 C.ar      5 PHE5        0.0000 
     26 CZ         -4.3100   -3.5100    1.8300 C.ar      5 PHE5        0.0000 
     27 CZ         -3.3800   -4.8000    0.4300 C.ar      5 PHE5        0.0000 
     28 CZ         -3.8100   -4.9300    1.8600 C.ar      5 PHE5        0.0000 
     29 CZ         -3.4000   -3.1500    3.7100 C.ar      5 PHE5        0.0000 
     30 CA         -6.9200   -7.6600   -0.8900 C.3       6 GLY6        0.0000 
     31 CA         -7.0100   -4.4800    0.9300 C.3       6 GLY6        0.0000 
     32 CA         -6.5100   -5.8900    0.9600 C.3       6 GLY6        0.0000 
     33 CA         -6.9400   -6.0200    2.3900 C.3       6 GLY6        0.0000 
     34 CA         -7.3700   -6.1500    3.8200 C.3       6 GLY6        0.0000 
     35 CA         -7.0900   -1.2900    2.7600 C.3       6 GLY6        0.0000 
     36 CA         -6.5900   -2.7100    2.7900 C.3       6 GLY6        0.0000 
     37 CA         -7.0200   -2.8300    4.2200 C.3       6 GLY6        0.0000 
     38 CA         -7.4500   -2.9600    5.6500 C.3       6 GLY6        0.0000 
     39 CA         -6.0900   -4.1200    2.8100 C.3       6 GLY6        0.0000 
     40 CA         -6.5200   -4.2500    4.2500 C.3       6 GLY6        0.0000 
     41 CA         -5.5900   -5.5400    2.8400 C.3       6 GLY6        0.0000 
     42 CA         -6.0200   -5.6600    4.2700 C.3       6 GLY6        0.0000 
     43 CA         -5.3100   -0.6800    1.7800 C.3       6 GLY6        0.0000 
     44 CA         -5.7400   -0.8100    3.2100 C.3       6 GLY6        0.0000 
     45 CA         -6.1700   -0.9400    4.6400 C.3       6 GLY6        0.0000 
     46 CA         -6.6100   -1.0600    6.0700 C.3       6 GLY6        0.0000 
     47 CA         -4.4000   -0.3300    3.6600 C.3       6 GLY6        0.0000 
     48 CA         -4.8300   -0.4500    5.0900 C.3       6 GLY6        0.0000 
     49 DU         -5.2400   -2.2200    3.2400 H         7 CUB7        0.0000 
     50 DU         -5.6800   -2.3500    4.6700 H         7 CUB7        0.0000 
     51 DU         -4.7400   -3.6400    3.2600 H         7 CUB7        0.0000 
     52 DU         -5.1800   -3.7600    4.6900 H         7 CUB7        0.0000 
     53 DU         -4.2500   -5.0500    3.2900 H         7 CUB7        0.0000 
     54 DU         -5.2600   -0.5800    6.5200 H         7 CUB7        0.0000 
     55 DU         -4.3300   -1.8700    5.1200 H         7 CUB7        0.0000 
@<TRIPOS>BOND
@<TRIPOS>SUBSTRUCTURE
     1 SER1        1 GROUP   
     2 ALA2        6 GROUP   
     3 ASP3        7 GROUP   
     4 LYS4       16 GROUP   
     5 PHE5       19 GROUP   
     6 GLY6       30 GROUP   
     7 CUB7       49 GROUP   
@<TRIPOS>SET

