#    Name: 6qeb_1_AZM_CAVITY_N1_12
#    Modification time : Fri May 22 19:25:51 2020

@<TRIPOS>MOLECULE
6qeb_1_AZM_CAVITY_N1_12
   81     0     7     0     0
SMALL
NO_CHARGES


@<TRIPOS>ATOM
      1 OG         -7.3600   -7.7900    0.5400 O.3       1 SER1        0.0000 
      2 OG         -7.7900   -7.9200    1.9700 O.3       1 SER1        0.0000 
      3 OG         -5.6500   -5.6400   -1.9000 O.3       1 SER1        0.0000 
      4 OG         -5.1500   -7.0600   -1.8800 O.3       1 SER1        0.0000 
      5 OG         -3.9000   -1.7400    3.6900 O.3       1 SER1        0.0000 
      6 N         -10.1900   -5.6800   -3.2700 N.am      2 ALA2        0.0000 
      7 N          -9.3400   -3.7800   -2.8500 N.am      2 ALA2        0.0000 
      8 N          -8.8400   -5.1900   -2.8200 N.am      2 ALA2        0.0000 
      9 N          -9.2700   -5.3200   -1.3900 N.am      2 ALA2        0.0000 
     10 N          -8.9200   -2.0100   -1.0000 N.am      2 ALA2        0.0000 
     11 N          -8.4200   -3.4200   -0.9700 N.am      2 ALA2        0.0000 
     12 N          -7.9200   -4.8400   -0.9500 N.am      2 ALA2        0.0000 
     13 O          -7.8600   -6.3800    0.5100 O.2       2 ALA2        0.0000 
     14 OD1        -5.5800   -7.1800   -0.4400 O.co2     3 ASP3        0.0000 
     15 OD1        -6.0100   -7.3100    0.9900 O.co2     3 ASP3        0.0000 
     16 OD1        -6.4400   -7.4300    2.4200 O.co2     3 ASP3        0.0000 
     17 OD1        -6.8700   -7.5600    3.8500 O.co2     3 ASP3        0.0000 
     18 OD1        -6.3700   -8.9700    3.8700 O.co2     3 ASP3        0.0000 
     19 OD1        -4.2300   -6.7000    0.0000 O.co2     3 ASP3        0.0000 
     20 OD1        -4.6600   -6.8200    1.4300 O.co2     3 ASP3        0.0000 
     21 OD1        -5.0900   -6.9500    2.8700 O.co2     3 ASP3        0.0000 
     22 OD1        -3.3200   -6.3400    1.8800 O.co2     3 ASP3        0.0000 
     23 NZ         -4.3000   -5.1600   -1.4500 N.4       4 LYS4        0.0000 
     24 NZ         -2.8800   -6.2100    0.4500 N.4       4 LYS4        0.0000 
     25 NZ         -1.9700   -5.8600    2.3300 N.4       4 LYS4        0.0000 
     26 CZ         -8.4100   -5.0700   -4.2600 C.ar      5 PHE5        0.0000 
     27 CZ         -7.9100   -6.4800   -4.2300 C.ar      5 PHE5        0.0000 
     28 CZ         -7.5600   -3.1700   -3.8300 C.ar      5 PHE5        0.0000 
     29 CZ         -7.9900   -3.3000   -2.4000 C.ar      5 PHE5        0.0000 
     30 CZ         -7.0600   -4.5800   -3.8100 C.ar      5 PHE5        0.0000 
     31 CZ         -7.4900   -4.7100   -2.3800 C.ar      5 PHE5        0.0000 
     32 CZ         -6.9900   -6.1200   -2.3500 C.ar      5 PHE5        0.0000 
     33 CZ         -7.5700   -1.5200   -0.5500 C.ar      5 PHE5        0.0000 
     34 CZ         -7.0800   -2.9400   -0.5200 C.ar      5 PHE5        0.0000 
     35 CZ         -6.1400   -4.2300   -1.9300 C.ar      5 PHE5        0.0000 
     36 CZ         -6.5800   -4.3500   -0.5000 C.ar      5 PHE5        0.0000 
     37 CZ         -6.0800   -5.7700   -0.4700 C.ar      5 PHE5        0.0000 
     38 CZ         -6.6600   -1.1700    1.3300 C.ar      5 PHE5        0.0000 
     39 CZ         -6.1600   -2.5800    1.3600 C.ar      5 PHE5        0.0000 
     40 CZ         -5.6600   -4.0000    1.3800 C.ar      5 PHE5        0.0000 
     41 CZ         -4.7300   -5.2800   -0.0200 C.ar      5 PHE5        0.0000 
     42 CZ         -5.1600   -5.4100    1.4100 C.ar      5 PHE5        0.0000 
     43 CZ         -4.8100   -2.1000    1.8100 C.ar      5 PHE5        0.0000 
     44 CZ         -4.3100   -3.5100    1.8300 C.ar      5 PHE5        0.0000 
     45 CZ         -3.3800   -4.8000    0.4300 C.ar      5 PHE5        0.0000 
     46 CZ         -3.8100   -4.9300    1.8600 C.ar      5 PHE5        0.0000 
     47 CZ         -3.4000   -3.1500    3.7100 C.ar      5 PHE5        0.0000 
     48 CA         -8.3400   -6.6100   -2.8000 C.3       6 GLY6        0.0000 
     49 CA         -8.4900   -1.8800   -2.4300 C.3       6 GLY6        0.0000 
     50 CA         -8.8500   -3.5500    0.4600 C.3       6 GLY6        0.0000 
     51 CA         -8.3500   -4.9600    0.4900 C.3       6 GLY6        0.0000 
     52 CA         -7.4200   -6.2500   -0.9200 C.3       6 GLY6        0.0000 
     53 CA         -6.4900   -7.5400   -2.3200 C.3       6 GLY6        0.0000 
     54 CA         -6.9200   -7.6600   -0.8900 C.3       6 GLY6        0.0000 
     55 CA         -8.0100   -1.6500    0.8800 C.3       6 GLY6        0.0000 
     56 CA         -7.5100   -3.0600    0.9100 C.3       6 GLY6        0.0000 
     57 CA         -7.0100   -4.4800    0.9300 C.3       6 GLY6        0.0000 
     58 CA         -6.5100   -5.8900    0.9600 C.3       6 GLY6        0.0000 
     59 CA         -6.9400   -6.0200    2.3900 C.3       6 GLY6        0.0000 
     60 CA         -7.3700   -6.1500    3.8200 C.3       6 GLY6        0.0000 
     61 CA         -7.0900   -1.2900    2.7600 C.3       6 GLY6        0.0000 
     62 CA         -6.5900   -2.7100    2.7900 C.3       6 GLY6        0.0000 
     63 CA         -7.0200   -2.8300    4.2200 C.3       6 GLY6        0.0000 
     64 CA         -7.4500   -2.9600    5.6500 C.3       6 GLY6        0.0000 
     65 CA         -6.0900   -4.1200    2.8100 C.3       6 GLY6        0.0000 
     66 CA         -6.5200   -4.2500    4.2500 C.3       6 GLY6        0.0000 
     67 CA         -5.5900   -5.5400    2.8400 C.3       6 GLY6        0.0000 
     68 CA         -6.0200   -5.6600    4.2700 C.3       6 GLY6        0.0000 
     69 CA         -5.3100   -0.6800    1.7800 C.3       6 GLY6        0.0000 
     70 CA         -5.7400   -0.8100    3.2100 C.3       6 GLY6        0.0000 
     71 CA         -6.1700   -0.9400    4.6400 C.3       6 GLY6        0.0000 
     72 CA         -6.6100   -1.0600    6.0700 C.3       6 GLY6        0.0000 
     73 CA         -4.4000   -0.3300    3.6600 C.3       6 GLY6        0.0000 
     74 CA         -4.8300   -0.4500    5.0900 C.3       6 GLY6        0.0000 
     75 DU         -5.2400   -2.2200    3.2400 H         7 CUB7        0.0000 
     76 DU         -5.6800   -2.3500    4.6700 H         7 CUB7        0.0000 
     77 DU         -4.7400   -3.6400    3.2600 H         7 CUB7        0.0000 
     78 DU         -5.1800   -3.7600    4.6900 H         7 CUB7        0.0000 
     79 DU         -4.2500   -5.0500    3.2900 H         7 CUB7        0.0000 
     80 DU         -5.2600   -0.5800    6.5200 H         7 CUB7        0.0000 
     81 DU         -4.3300   -1.8700    5.1200 H         7 CUB7        0.0000 
@<TRIPOS>BOND
@<TRIPOS>SUBSTRUCTURE
     1 SER1        1 GROUP   
     2 ALA2        6 GROUP   
     3 ASP3       14 GROUP   
     4 LYS4       23 GROUP   
     5 PHE5       26 GROUP   
     6 GLY6       48 GROUP   
     7 CUB7       75 GROUP   
@<TRIPOS>SET

