#    Name: 6qeb_1_AZM_CAVITY_N1_4
#    Modification time : Fri May 22 19:25:51 2020

@<TRIPOS>MOLECULE
6qeb_1_AZM_CAVITY_N1_4
    2     0     2     0     0
SMALL
NO_CHARGES


@<TRIPOS>ATOM
      1 OD1        -3.3200   -6.3400    1.8800 O.co2     1 ASP3        0.0000 
      2 NZ         -1.9700   -5.8600    2.3300 N.4       2 LYS4        0.0000 
@<TRIPOS>BOND
@<TRIPOS>SUBSTRUCTURE
     1 ASP3        1 GROUP   
     2 LYS4        2 GROUP   
@<TRIPOS>SET

