#    Name: 6qeb_1_AZM
#    Modification time : Fri May 22 19:25:50 2020

@<TRIPOS>MOLECULE
6qeb_1_AZM
   13    14     1     0     0
SMALL
NO_CHARGES


@<TRIPOS>ATOM
      1 C1         -0.7740   -6.6350    6.0380 C.2       1 AZM302      0.0000 
      2 C2         -2.2560   -6.6080    7.4710 C.2       1 AZM302      0.0000 
      3 C3         -3.6920   -5.5260    9.0640 C.2       1 AZM302      0.0000 
      4 C4         -4.7760   -5.6040   10.1080 C.3       1 AZM302      0.0000 
      5 N1          0.6930   -5.5610    3.9620 N.pl3     1 AZM302      0.0000 
      6 N2         -1.4680   -5.6750    7.4200 Du        1 AZM302      0.0000 
      7 N3         -1.0770   -5.2790    6.5220 N.2       1 AZM302      0.0000 
      8 N4         -3.2680   -6.6530    8.4500 N.am      1 AZM302      0.0000 
      9 O1          1.4130   -7.6020    5.1450 O.2       1 AZM302      0.0000 
     10 O2         -0.6410   -7.6010    3.6920 O.2       1 AZM302      0.0000 
     11 O3         -3.2070   -4.4500    8.7790 O.2       1 AZM302      0.0000 
     12 S1          0.2330   -7.0050    4.6380 S.o2      1 AZM302      0.0000 
     13 S2         -1.5880   -7.9490    7.3240 S.3       1 AZM302      0.0000 
@<TRIPOS>BOND
     1    1    6 du   
     2    1    7 2    
     3    1   12 1    
     4    1   13 1    
     5    2    6 du   
     6    2    8 1    
     7    2   13 1    
     8    3    4 1    
     9    3    8 am   
    10    3   11 2    
    11    5   12 1    
    12    6    7 du   
    13    9   12 2    
    14   10   12 2    
@<TRIPOS>SUBSTRUCTURE
     1 AZM302      1 GROUP   
@<TRIPOS>SET

