#    Name: 6gb7_3_PHE_ALA_PRO_GLY_ASN_TYR_PRO_CAVITY_N1_12
#    Modification time : Fri May 22 19:29:06 2020

@<TRIPOS>MOLECULE
6gb7_3_PHE_ALA_PRO_GLY_ASN_TYR_PRO_CAVITY_N1_12
   88     0     7     0     0
SMALL
NO_CHARGES


@<TRIPOS>ATOM
      1 OG        -38.1000   -0.0900  104.5700 O.3       1 SER1        0.0000 
      2 OG        -37.1300   -1.2100  104.7500 O.3       1 SER1        0.0000 
      3 OG        -35.1800   -3.4600  105.1100 O.3       1 SER1        0.0000 
      4 OG        -37.5700    0.6800  106.4800 O.3       1 SER1        0.0000 
      5 OG        -36.1000   -0.2400  105.2500 O.3       1 SER1        0.0000 
      6 OG        -37.0900   -0.6500  108.0600 O.3       1 SER1        0.0000 
      7 OG        -34.6300   -1.1600  104.0300 O.3       1 SER1        0.0000 
      8 OG        -35.1300   -1.3700  105.4300 O.3       1 SER1        0.0000 
      9 OG        -33.6500   -2.2800  104.2100 O.3       1 SER1        0.0000 
     10 OG        -34.1500   -2.4900  105.6100 O.3       1 SER1        0.0000 
     11 OG        -33.1400   -3.0600  109.1000 O.3       1 SER1        0.0000 
     12 OG        -30.1000   -0.7000  107.3100 O.3       1 SER1        0.0000 
     13 OG        -30.5900   -0.9100  108.7100 O.3       1 SER1        0.0000 
     14 OG        -29.1200   -1.8300  107.4900 O.3       1 SER1        0.0000 
     15 OG        -25.6500   -2.9000  106.9600 O.3       1 SER1        0.0000 
     16 OG        -26.1500   -3.1100  108.3600 O.3       1 SER1        0.0000 
     17 OG        -24.6200   -1.9300  107.4600 O.3       1 SER1        0.0000 
     18 N         -35.5600    2.0600  104.1800 N.am      2 ALA2        0.0000 
     19 N         -34.5800    0.9400  104.3600 N.am      2 ALA2        0.0000 
     20 N         -35.0800    0.7300  105.7600 N.am      2 ALA2        0.0000 
     21 O         -35.5700    0.5200  107.1600 O.2       2 ALA2        0.0000 
     22 O         -36.0700    0.3200  108.5600 O.2       2 ALA2        0.0000 
     23 N         -34.1000   -0.3900  105.9400 N.am      2 ALA2        0.0000 
     24 O         -34.6000   -0.6000  107.3400 O.2       2 ALA2        0.0000 
     25 O         -35.0900   -0.8100  108.7400 O.2       2 ALA2        0.0000 
     26 O         -34.1200   -1.9300  108.9200 O.2       2 ALA2        0.0000 
     27 N         -33.5600    1.9100  104.8700 N.am      2 ALA2        0.0000 
     28 N         -32.5800    0.7800  105.0500 N.am      2 ALA2        0.0000 
     29 N         -33.0800    0.5800  106.4500 N.am      2 ALA2        0.0000 
     30 O         -33.5700    0.3700  107.8500 O.2       2 ALA2        0.0000 
     31 O         -34.0700    0.1600  109.2500 O.2       2 ALA2        0.0000 
     32 O         -32.6000   -0.7500  108.0300 O.2       2 ALA2        0.0000 
     33 O         -24.6900   -3.0500  100.8500 O.2       2 ALA2        0.0000 
     34 O         -25.1900   -3.2500  102.2500 O.2       2 ALA2        0.0000 
     35 O         -25.6800   -3.4600  103.6500 O.2       2 ALA2        0.0000 
     36 O         -24.1600   -2.2800  102.7600 O.2       2 ALA2        0.0000 
     37 O         -24.6600   -2.4900  104.1600 O.2       2 ALA2        0.0000 
     38 OD1       -29.6000   -0.5000  105.9100 O.co2     3 ASP3        0.0000 
     39 OD1       -27.1400   -1.0000  101.8900 O.co2     3 ASP3        0.0000 
     40 OD1       -26.1600   -2.1300  102.0700 O.co2     3 ASP3        0.0000 
     41 OD1       -26.6600   -2.3300  103.4700 O.co2     3 ASP3        0.0000 
     42 OD1       -27.1500   -2.5400  104.8700 O.co2     3 ASP3        0.0000 
     43 OD1       -28.5800    0.4700  106.4200 O.co2     3 ASP3        0.0000 
     44 OD1       -27.6000   -0.6500  106.6000 O.co2     3 ASP3        0.0000 
     45 OD1       -25.1400   -1.1600  102.5800 O.co2     3 ASP3        0.0000 
     46 OD1       -26.6200   -1.7800  106.7800 O.co2     3 ASP3        0.0000 
     47 OD1       -25.1500   -2.6900  105.5600 O.co2     3 ASP3        0.0000 
     48 NZ        -33.0900   -0.9600  109.4300 N.4       4 LYS4        0.0000 
     49 NZ        -28.0500    1.2400  108.3200 N.4       4 LYS4        0.0000 
     50 NZ        -25.6000   -0.8100  107.2800 N.4       4 LYS4        0.0000 
     51 NZ        -24.1300   -1.7200  106.0600 N.4       4 LYS4        0.0000 
     52 CZ        -36.6000   -0.4500  106.6600 C.ar      5 PHE5        0.0000 
     53 CZ        -35.6200   -1.5700  106.8400 C.ar      5 PHE5        0.0000 
     54 CZ        -36.1200   -1.7800  108.2400 C.ar      5 PHE5        0.0000 
     55 CZ        -34.6500   -2.7000  107.0200 C.ar      5 PHE5        0.0000 
     56 CZ        -35.1400   -2.9000  108.4200 C.ar      5 PHE5        0.0000 
     57 CZ        -33.1700   -3.6100  105.7900 C.ar      5 PHE5        0.0000 
     58 CZ        -33.6700   -3.8200  107.2000 C.ar      5 PHE5        0.0000 
     59 CZ        -32.1500   -2.6400  106.3000 C.ar      5 PHE5        0.0000 
     60 CZ        -32.6500   -2.8500  107.7000 C.ar      5 PHE5        0.0000 
     61 CZ        -31.1200   -1.6700  106.8100 C.ar      5 PHE5        0.0000 
     62 CZ        -31.6200   -1.8800  108.2100 C.ar      5 PHE5        0.0000 
     63 CZ        -28.6300   -1.6200  106.0900 C.ar      5 PHE5        0.0000 
     64 CZ        -27.6500   -2.7500  106.2700 C.ar      5 PHE5        0.0000 
     65 CZ        -26.1800   -3.6700  105.0500 C.ar      5 PHE5        0.0000 
     66 CZ        -26.6700   -3.8700  106.4500 C.ar      5 PHE5        0.0000 
     67 CZ        -29.5700    0.0600  109.2200 C.ar      5 PHE5        0.0000 
     68 CZ        -28.1000   -0.8600  108.0000 C.ar      5 PHE5        0.0000 
     69 CZ        -28.5900   -1.0600  109.4000 C.ar      5 PHE5        0.0000 
     70 CZ        -27.1200   -1.9800  108.1800 C.ar      5 PHE5        0.0000 
     71 CZ        -23.6700   -2.0800  101.3600 C.ar      5 PHE5        0.0000 
     72 CZ        -27.0700    0.1100  108.5000 C.ar      5 PHE5        0.0000 
     73 CA        -32.0800    0.9900  103.6500 C.3       6 GLY6        0.0000 
     74 CA        -27.1900   -3.1000  101.5600 C.3       6 GLY6        0.0000 
     75 CA        -27.6800   -3.3100  102.9700 C.3       6 GLY6        0.0000 
     76 CA        -31.5500    1.7500  105.5500 C.3       6 GLY6        0.0000 
     77 CA        -30.5800    0.6300  105.7300 C.3       6 GLY6        0.0000 
     78 CA        -25.6700   -1.9200  100.6700 C.3       6 GLY6        0.0000 
     79 CA        -29.5500    1.6000  106.2400 C.3       6 GLY6        0.0000 
     80 CA        -24.6700   -4.0300  107.1400 C.3       6 GLY6        0.0000 
     81 DU        -33.6000   -0.1900  104.5400 H         7 CUB7        0.0000 
     82 DU        -32.6300   -1.3100  104.7200 H         7 CUB7        0.0000 
     83 DU        -33.1300   -1.5200  106.1200 H         7 CUB7        0.0000 
     84 DU        -33.6200   -1.7300  107.5200 H         7 CUB7        0.0000 
     85 DU        -31.6000   -0.3400  105.2300 H         7 CUB7        0.0000 
     86 DU        -32.1000   -0.5500  106.6300 H         7 CUB7        0.0000 
     87 DU        -31.0700    0.4200  107.1300 H         7 CUB7        0.0000 
     88 DU        -29.0700    0.2700  107.8200 H         7 CUB7        0.0000 
@<TRIPOS>BOND
@<TRIPOS>SUBSTRUCTURE
     1 SER1        1 GROUP   
     2 ALA2       18 GROUP   
     3 ASP3       38 GROUP   
     4 LYS4       48 GROUP   
     5 PHE5       52 GROUP   
     6 GLY6       73 GROUP   
     7 CUB7       81 GROUP   
@<TRIPOS>SET

