#    Name: 6gb7_2_PHE_ALA_PRO_GLY_ASN_TYR_PRO_CAVITY_N1_12
#    Modification time : Fri May 22 19:28:59 2020

@<TRIPOS>MOLECULE
6gb7_2_PHE_ALA_PRO_GLY_ASN_TYR_PRO_CAVITY_N1_12
   88     0     7     0     0
SMALL
NO_CHARGES


@<TRIPOS>ATOM
      1 OG         13.0000  -39.8600  103.9600 O.3       1 SER1        0.0000 
      2 OG         13.4800  -41.1900  105.5400 O.3       1 SER1        0.0000 
      3 OG         14.5100  -40.2200  106.0500 O.3       1 SER1        0.0000 
      4 OG         17.9800  -41.2900  105.5100 O.3       1 SER1        0.0000 
      5 OG         17.4800  -41.5000  106.9100 O.3       1 SER1        0.0000 
      6 OG         19.0100  -40.3200  106.0200 O.3       1 SER1        0.0000 
      7 OG         18.5100  -40.5300  107.4200 O.3       1 SER1        0.0000 
      8 OG         22.4500  -41.9500  102.1800 O.3       1 SER1        0.0000 
      9 OG         19.5400  -39.5600  107.9300 O.3       1 SER1        0.0000 
     10 OG         22.5000  -39.8600  102.5000 O.3       1 SER1        0.0000 
     11 OG         23.4700  -40.9800  102.6800 O.3       1 SER1        0.0000 
     12 OG         22.9700  -41.1900  104.0900 O.3       1 SER1        0.0000 
     13 OG         24.9400  -41.9000  101.4600 O.3       1 SER1        0.0000 
     14 OG         24.4500  -42.1100  102.8600 O.3       1 SER1        0.0000 
     15 OG         23.0200  -39.0900  104.4100 O.3       1 SER1        0.0000 
     16 OG         25.4700  -41.1400  103.3700 O.3       1 SER1        0.0000 
     17 OG         26.4500  -42.2600  103.5500 O.3       1 SER1        0.0000 
     18 OG         25.9500  -42.4700  104.9500 O.3       1 SER1        0.0000 
     19 OG         23.0600  -38.5300  107.7200 O.3       1 SER1        0.0000 
     20 O          14.4900  -39.2400   99.7600 O.2       2 ALA2        0.0000 
     21 O          13.9900  -39.4500  101.1600 O.2       2 ALA2        0.0000 
     22 O          13.5000  -39.6500  102.5600 O.2       2 ALA2        0.0000 
     23 O          15.0200  -38.4800  101.6700 O.2       2 ALA2        0.0000 
     24 N          21.4500  -42.3700  104.9800 N.am      2 ALA2        0.0000 
     25 N          22.9300  -43.2800  103.7600 N.am      2 ALA2        0.0000 
     26 O          21.9800  -41.6000  106.8900 O.2       2 ALA2        0.0000 
     27 N          23.9500  -42.3100  104.2700 N.am      2 ALA2        0.0000 
     28 N          23.4500  -42.5200  105.6700 N.am      2 ALA2        0.0000 
     29 N          25.4200  -43.2300  103.0400 N.am      2 ALA2        0.0000 
     30 O          23.0100  -40.6300  107.3900 O.2       2 ALA2        0.0000 
     31 O          24.0300  -39.6600  107.9000 O.2       2 ALA2        0.0000 
     32 OD1        14.4400  -41.3400   99.4300 O.co2     3 ASP3        0.0000 
     33 OD1        15.4700  -40.3700   99.9400 O.co2     3 ASP3        0.0000 
     34 OD1        15.9900  -39.6000  101.8500 O.co2     3 ASP3        0.0000 
     35 OD1        15.5000  -39.8100  103.2500 O.co2     3 ASP3        0.0000 
     36 OD1        15.0000  -40.0100  104.6500 O.co2     3 ASP3        0.0000 
     37 OD1        15.9800  -41.1400  104.8300 O.co2     3 ASP3        0.0000 
     38 OD1        16.9500  -42.2600  105.0100 O.co2     3 ASP3        0.0000 
     39 OD1        18.9700  -40.8800  102.7100 O.co2     3 ASP3        0.0000 
     40 NZ         13.9400  -41.5400  100.8400 N.4       4 LYS4        0.0000 
     41 NZ         13.9800  -40.9800  104.1400 N.4       4 LYS4        0.0000 
     42 NZ         18.4900  -39.5500  101.1300 N.4       4 LYS4        0.0000 
     43 NZ         19.4900  -41.6500  107.6000 N.4       4 LYS4        0.0000 
     44 CZ         12.4400  -41.1800   98.7500 C.ar      5 PHE5        0.0000 
     45 CZ         11.9400  -41.3900  100.1500 C.ar      5 PHE5        0.0000 
     46 CZ         13.4600  -40.2100   99.2500 C.ar      5 PHE5        0.0000 
     47 CZ         12.9700  -40.4200  100.6600 C.ar      5 PHE5        0.0000 
     48 CZ         12.4700  -40.6200  102.0600 C.ar      5 PHE5        0.0000 
     49 CZ         14.5200  -38.6800  103.0700 C.ar      5 PHE5        0.0000 
     50 CZ         14.0300  -38.8900  104.4700 C.ar      5 PHE5        0.0000 
     51 CZ         15.4800  -41.3400  106.2300 C.ar      5 PHE5        0.0000 
     52 CZ         16.4600  -42.4700  106.4100 C.ar      5 PHE5        0.0000 
     53 CZ         18.0000  -39.7600  102.5300 C.ar      5 PHE5        0.0000 
     54 CZ         18.4800  -41.0900  104.1100 C.ar      5 PHE5        0.0000 
     55 CZ         20.4900  -39.7000  101.8200 C.ar      5 PHE5        0.0000 
     56 CZ         20.0000  -39.9100  103.2200 C.ar      5 PHE5        0.0000 
     57 CZ         19.5000  -40.1200  104.6200 C.ar      5 PHE5        0.0000 
     58 CZ         21.0200  -38.9400  103.7300 C.ar      5 PHE5        0.0000 
     59 CZ         20.5300  -39.1400  105.1300 C.ar      5 PHE5        0.0000 
     60 CZ         22.0000  -40.0600  103.9100 C.ar      5 PHE5        0.0000 
     61 CZ         21.5000  -40.2700  105.3100 C.ar      5 PHE5        0.0000 
     62 CZ         21.0100  -40.4800  106.7100 C.ar      5 PHE5        0.0000 
     63 CZ         22.5300  -39.3000  105.8100 C.ar      5 PHE5        0.0000 
     64 CZ         22.0300  -39.5100  107.2100 C.ar      5 PHE5        0.0000 
     65 CZ         24.0000  -40.2200  104.5900 C.ar      5 PHE5        0.0000 
     66 CZ         23.5000  -40.4200  105.9900 C.ar      5 PHE5        0.0000 
     67 CZ         24.9800  -41.3400  104.7700 C.ar      5 PHE5        0.0000 
     68 CZ         24.4800  -41.5500  106.1700 C.ar      5 PHE5        0.0000 
     69 CZ         22.0800  -37.4100  107.5400 C.ar      5 PHE5        0.0000 
     70 CZ         23.5500  -38.3300  106.3200 C.ar      5 PHE5        0.0000 
     71 CA         13.4100  -42.3100   98.9300 C.3       6 GLY6        0.0000 
     72 CA         13.5300  -39.0900  105.8700 C.3       6 GLY6        0.0000 
     73 CA         17.9300  -43.3900  105.1900 C.3       6 GLY6        0.0000 
     74 CA         19.4700  -40.6700  101.3100 C.3       6 GLY6        0.0000 
     75 CA         19.9500  -42.0000  102.8900 C.3       6 GLY6        0.0000 
     76 CA         19.4500  -42.2100  104.2900 C.3       6 GLY6        0.0000 
     77 CA         20.9200  -43.1300  103.0700 C.3       6 GLY6        0.0000 
     78 CA         20.4300  -43.3400  104.4700 C.3       6 GLY6        0.0000 
     79 CA         21.5200  -38.7300  102.3200 C.3       6 GLY6        0.0000 
     80 CA         20.5100  -40.6800  108.1100 C.3       6 GLY6        0.0000 
     81 CA         21.5400  -39.7100  108.6100 C.3       6 GLY6        0.0000 
     82 DU         18.9600  -42.4200  105.6900 H         7 CUB7        0.0000 
     83 DU         21.4700  -40.8300  102.0000 H         7 CUB7        0.0000 
     84 DU         20.9700  -41.0300  103.4000 H         7 CUB7        0.0000 
     85 DU         20.4800  -41.2400  104.8000 H         7 CUB7        0.0000 
     86 DU         19.9800  -41.4500  106.2000 H         7 CUB7        0.0000 
     87 DU         21.9500  -42.1600  103.5800 H         7 CUB7        0.0000 
     88 DU         22.4800  -41.3900  105.4900 H         7 CUB7        0.0000 
@<TRIPOS>BOND
@<TRIPOS>SUBSTRUCTURE
     1 SER1        1 GROUP   
     2 ALA2       20 GROUP   
     3 ASP3       32 GROUP   
     4 LYS4       40 GROUP   
     5 PHE5       44 GROUP   
     6 GLY6       71 GROUP   
     7 CUB7       82 GROUP   
@<TRIPOS>SET

