#    Name: 6gb7_2_PHE_ALA_PRO_GLY_ASN_TYR_PRO
#    Modification time : Fri May 22 19:28:57 2020

@<TRIPOS>MOLECULE
6gb7_2_PHE_ALA_PRO_GLY_ASN_TYR_PRO
   55    58     7     0     0
SMALL
NO_CHARGES


@<TRIPOS>ATOM
      1 N          12.6450  -40.0820  106.3270 N.4       1 PHE1        0.0000 
      2 CA         13.5380  -40.4000  105.1840 C.3       1 PHE1        0.0000 
      3 C          14.9600  -40.6180  105.6860 C.2       1 PHE1        0.0000 
      4 O          15.6520  -39.6690  106.0540 O.2       1 PHE1        0.0000 
      5 CB         13.4800  -39.2740  104.1620 C.3       1 PHE1        0.0000 
      6 CG         14.0530  -39.6330  102.8300 C.ar      1 PHE1        0.0000 
      7 CD1        13.3110  -40.3610  101.9180 C.ar      1 PHE1        0.0000 
      8 CD2        15.3290  -39.2360  102.4840 C.ar      1 PHE1        0.0000 
      9 CE1        13.8330  -40.6890  100.6840 C.ar      1 PHE1        0.0000 
     10 CE2        15.8570  -39.5620  101.2550 C.ar      1 PHE1        0.0000 
     11 CZ         15.1080  -40.2860  100.3510 C.ar      1 PHE1        0.0000 
     12 N          15.3890  -41.8780  105.6920 N.am      2 ALA2        0.0000 
     13 CA         16.5980  -42.2550  106.4020 C.3       2 ALA2        0.0000 
     14 C          17.8470  -41.7630  105.6690 C.2       2 ALA2        0.0000 
     15 O          17.8670  -41.6890  104.4380 O.2       2 ALA2        0.0000 
     16 CB         16.6690  -43.7700  106.5640 C.3       2 ALA2        0.0000 
     17 N          18.9080  -41.4330  106.4030 N.am      3 PRO3        0.0000 
     18 CA         20.1500  -41.0170  105.7470 C.3       3 PRO3        0.0000 
     19 C          20.8360  -42.1820  105.0550 C.2       3 PRO3        0.0000 
     20 O          20.7620  -43.3320  105.4940 O.2       3 PRO3        0.0000 
     21 CB         21.0010  -40.4890  106.9070 C.3       3 PRO3        0.0000 
     22 CG         20.5240  -41.2720  108.0800 C.3       3 PRO3        0.0000 
     23 CD         19.0390  -41.4110  107.8720 C.3       3 PRO3        0.0000 
     24 N          21.4980  -41.8680  103.9470 N.am      4 GLY4        0.0000 
     25 CA         22.4040  -42.8010  103.3140 C.3       4 GLY4        0.0000 
     26 C          23.8270  -42.3350  103.5240 C.2       4 GLY4        0.0000 
     27 O          24.2330  -41.3070  102.9720 O.2       4 GLY4        0.0000 
     28 N          24.5880  -43.0580  104.3390 N.am      5 ASN5        0.0000 
     29 CA         25.9370  -42.6210  104.6580 C.3       5 ASN5        0.0000 
     30 C          26.7670  -42.4990  103.3850 C.2       5 ASN5        0.0000 
     31 O          26.4440  -43.0670  102.3370 O.2       5 ASN5        0.0000 
     32 CB         26.5910  -43.5810  105.6490 C.3       5 ASN5        0.0000 
     33 CG         26.0840  -43.3800  107.0630 C.2       5 ASN5        0.0000 
     34 OD1        25.1640  -42.5950  107.2960 O.2       5 ASN5        0.0000 
     35 ND2        26.6820  -44.0850  108.0160 N.am      5 ASN5        0.0000 
     36 N          27.8420  -41.7310  103.4840 N.am      6 TYR6        0.0000 
     37 CA         28.6060  -41.3570  102.3050 C.3       6 TYR6        0.0000 
     38 C          29.4880  -42.5180  101.8610 C.2       6 TYR6        0.0000 
     39 O          30.3520  -42.9530  102.6310 O.2       6 TYR6        0.0000 
     40 CB         29.4630  -40.1360  102.5960 C.3       6 TYR6        0.0000 
     41 CG         30.2510  -39.6590  101.4000 C.ar      6 TYR6        0.0000 
     42 CD1        29.6090  -39.1110  100.3000 C.ar      6 TYR6        0.0000 
     43 CD2        31.6340  -39.7520  101.3730 C.ar      6 TYR6        0.0000 
     44 CE1        30.3200  -38.6710   99.2040 C.ar      6 TYR6        0.0000 
     45 CE2        32.3560  -39.3140  100.2810 C.ar      6 TYR6        0.0000 
     46 CZ         31.6920  -38.7740   99.1990 C.ar      6 TYR6        0.0000 
     47 OH         32.3990  -38.3340   98.1060 O.3       6 TYR6        0.0000 
     48 N          29.3100  -43.0520  100.6420 N.am      7 PRO7        0.0000 
     49 CA         30.2430  -44.0680  100.1470 C.3       7 PRO7        0.0000 
     50 C          31.6920  -43.6030  100.2060 C.2       7 PRO7        0.0000 
     51 O          32.4580  -44.0650  101.0490 O.2       7 PRO7        0.0000 
     52 CB         29.7900  -44.2750   98.7000 C.3       7 PRO7        0.0000 
     53 CG         28.3380  -43.9670   98.7300 C.3       7 PRO7        0.0000 
     54 CD         28.1950  -42.8340   99.7030 C.3       7 PRO7        0.0000 
     55 OXT        32.1250  -42.7530   99.4260 O.3       7 PRO7        0.0000 
@<TRIPOS>BOND
     1    1    2 1    
     2    2    3 1    
     3    2    5 1    
     4    3    4 2    
     5    3   12 am   
     6    5    6 1    
     7    6    7 ar   
     8    6    8 ar   
     9    7    9 ar   
    10    8   10 ar   
    11    9   11 ar   
    12   10   11 ar   
    13   12   13 1    
    14   13   14 1    
    15   13   16 1    
    16   14   15 2    
    17   14   17 am   
    18   17   18 1    
    19   17   23 1    
    20   18   19 1    
    21   18   21 1    
    22   19   20 2    
    23   19   24 am   
    24   21   22 1    
    25   22   23 1    
    26   24   25 1    
    27   25   26 1    
    28   26   27 2    
    29   26   28 am   
    30   28   29 1    
    31   29   30 1    
    32   29   32 1    
    33   30   31 2    
    34   30   36 am   
    35   32   33 1    
    36   33   34 2    
    37   33   35 am   
    38   36   37 1    
    39   37   38 1    
    40   37   40 1    
    41   38   39 2    
    42   38   48 am   
    43   40   41 1    
    44   41   42 ar   
    45   41   43 ar   
    46   42   44 ar   
    47   43   45 ar   
    48   44   46 ar   
    49   45   46 ar   
    50   46   47 1    
    51   48   49 1    
    52   48   54 1    
    53   49   50 1    
    54   49   52 1    
    55   50   51 2    
    56   50   55 1    
    57   52   53 1    
    58   53   54 1    
@<TRIPOS>SUBSTRUCTURE
     1 PHE1        1 RESIDUE 
     2 ALA2       12 RESIDUE 
     3 PRO3       17 RESIDUE 
     4 GLY4       24 RESIDUE 
     5 ASN5       28 RESIDUE 
     6 TYR6       36 RESIDUE 
     7 PRO7       48 RESIDUE 
@<TRIPOS>SET

