#    Name: 6gb7_3_PHE_ALA_PRO_GLY_ASN_TYR_PRO
#    Modification time : Fri May 22 19:29:04 2020

@<TRIPOS>MOLECULE
6gb7_3_PHE_ALA_PRO_GLY_ASN_TYR_PRO
   55    58     7     0     0
SMALL
NO_CHARGES


@<TRIPOS>ATOM
      1 N         -23.9370   -2.2620  108.5520 N.4       1 PHE1        0.0000 
      2 CA        -24.6730   -2.0160  107.2800 C.3       1 PHE1        0.0000 
      3 C         -26.1550   -1.8160  107.5780 C.2       1 PHE1        0.0000 
      4 O         -26.9080   -2.7790  107.7090 O.2       1 PHE1        0.0000 
      5 CB        -24.4620   -3.1790  106.3140 C.3       1 PHE1        0.0000 
      6 CG        -24.9870   -2.9260  104.9310 C.ar      1 PHE1        0.0000 
      7 CD1       -24.2650   -2.1570  104.0330 C.ar      1 PHE1        0.0000 
      8 CD2       -26.1910   -3.4690  104.5230 C.ar      1 PHE1        0.0000 
      9 CE1       -24.7380   -1.9290  102.7560 C.ar      1 PHE1        0.0000 
     10 CE2       -26.6720   -3.2430  103.2490 C.ar      1 PHE1        0.0000 
     11 CZ        -25.9430   -2.4720  102.3630 C.ar      1 PHE1        0.0000 
     12 N         -26.5600   -0.5530  107.6800 N.am      2 ALA2        0.0000 
     13 CA        -27.8860   -0.2250  108.1720 C.3       2 ALA2        0.0000 
     14 C         -28.9660   -0.6840  107.1900 C.2       2 ALA2        0.0000 
     15 O         -28.7090   -0.8240  105.9920 O.2       2 ALA2        0.0000 
     16 CB        -28.0090    1.2770  108.4040 C.3       2 ALA2        0.0000 
     17 N         -30.1830   -0.9290  107.6760 N.am      3 PRO3        0.0000 
     18 CA        -31.2880   -1.2880  106.7860 C.3       3 PRO3        0.0000 
     19 C         -31.9860   -0.0710  106.1950 C.2       3 PRO3        0.0000 
     20 O         -31.8780    1.0530  106.6910 O.2       3 PRO3        0.0000 
     21 CB        -32.2380   -2.0510  107.7180 C.3       3 PRO3        0.0000 
     22 CG        -32.0500   -1.3690  109.0240 C.3       3 PRO3        0.0000 
     23 CD        -30.5740   -1.0430  109.0920 C.3       3 PRO3        0.0000 
     24 N         -32.7180   -0.3270  105.1120 N.am      4 GLY4        0.0000 
     25 CA        -33.6090    0.6540  104.5270 C.3       4 GLY4        0.0000 
     26 C         -35.0400    0.1590  104.5720 C.2       4 GLY4        0.0000 
     27 O         -35.3650   -0.8680  103.9680 O.2       4 GLY4        0.0000 
     28 N         -35.9010    0.8680  105.2950 N.am      5 ASN5        0.0000 
     29 CA        -37.2650    0.4030  105.4920 C.3       5 ASN5        0.0000 
     30 C         -38.0360    0.4120  104.1780 C.2       5 ASN5        0.0000 
     31 O         -37.7850    1.2240  103.2830 O.2       5 ASN5        0.0000 
     32 CB        -37.9760    1.2660  106.5300 C.3       5 ASN5        0.0000 
     33 CG        -37.4470    1.0380  107.9330 C.2       5 ASN5        0.0000 
     34 OD1       -36.4970    0.2830  108.1350 O.2       5 ASN5        0.0000 
     35 ND2       -38.0540    1.7010  108.9080 N.am      5 ASN5        0.0000 
     36 N         -38.9780   -0.5150  104.0720 N.am      6 TYR6        0.0000 
     37 CA        -39.7840   -0.6680  102.8710 C.3       6 TYR6        0.0000 
     38 C         -40.6170    0.5910  102.6360 C.2       6 TYR6        0.0000 
     39 O         -41.4660    0.9230  103.4750 O.2       6 TYR6        0.0000 
     40 CB        -40.6890   -1.8890  103.0130 C.3       6 TYR6        0.0000 
     41 CG        -41.3970   -2.2920  101.7410 C.ar      6 TYR6        0.0000 
     42 CD1       -40.6910   -2.8220  100.6700 C.ar      6 TYR6        0.0000 
     43 CD2       -42.7720   -2.1600  101.6180 C.ar      6 TYR6        0.0000 
     44 CE1       -41.3350   -3.1980   99.5050 C.ar      6 TYR6        0.0000 
     45 CE2       -43.4260   -2.5340  100.4590 C.ar      6 TYR6        0.0000 
     46 CZ        -42.7030   -3.0530   99.4060 C.ar      6 TYR6        0.0000 
     47 OH        -43.3500   -3.4280   98.2500 O.3       6 TYR6        0.0000 
     48 N         -40.4180    1.3180  101.5230 N.am      7 PRO7        0.0000 
     49 CA        -41.1970    2.5450  101.3110 C.3       7 PRO7        0.0000 
     50 C         -42.6950    2.2790  101.1710 C.2       7 PRO7        0.0000 
     51 O         -43.5240    3.1570  101.4110 O.2       7 PRO7        0.0000 
     52 CB        -40.6160    3.1090  100.0090 C.3       7 PRO7        0.0000 
     53 CG        -40.0370    1.9300   99.3080 C.3       7 PRO7        0.0000 
     54 CD        -39.5250    1.0280  100.3880 C.3       7 PRO7        0.0000 
     55 OXT       -43.1140    1.1770  100.8190 O.3       7 PRO7        0.0000 
@<TRIPOS>BOND
     1    1    2 1    
     2    2    3 1    
     3    2    5 1    
     4    3    4 2    
     5    3   12 am   
     6    5    6 1    
     7    6    7 ar   
     8    6    8 ar   
     9    7    9 ar   
    10    8   10 ar   
    11    9   11 ar   
    12   10   11 ar   
    13   12   13 1    
    14   13   14 1    
    15   13   16 1    
    16   14   15 2    
    17   14   17 am   
    18   17   18 1    
    19   17   23 1    
    20   18   19 1    
    21   18   21 1    
    22   19   20 2    
    23   19   24 am   
    24   21   22 1    
    25   22   23 1    
    26   24   25 1    
    27   25   26 1    
    28   26   27 2    
    29   26   28 am   
    30   28   29 1    
    31   29   30 1    
    32   29   32 1    
    33   30   31 2    
    34   30   36 am   
    35   32   33 1    
    36   33   34 2    
    37   33   35 am   
    38   36   37 1    
    39   37   38 1    
    40   37   40 1    
    41   38   39 2    
    42   38   48 am   
    43   40   41 1    
    44   41   42 ar   
    45   41   43 ar   
    46   42   44 ar   
    47   43   45 ar   
    48   44   46 ar   
    49   45   46 ar   
    50   46   47 1    
    51   48   49 1    
    52   48   54 1    
    53   49   50 1    
    54   49   52 1    
    55   50   51 2    
    56   50   55 1    
    57   52   53 1    
    58   53   54 1    
@<TRIPOS>SUBSTRUCTURE
     1 PHE1        1 RESIDUE 
     2 ALA2       12 RESIDUE 
     3 PRO3       17 RESIDUE 
     4 GLY4       24 RESIDUE 
     5 ASN5       28 RESIDUE 
     6 TYR6       36 RESIDUE 
     7 PRO7       48 RESIDUE 
@<TRIPOS>SET

