#    Name: 6g8f_1_K0I
#    Modification time : Fri May 22 19:29:36 2020

@<TRIPOS>MOLECULE
6g8f_1_K0I
   29    32     1     0     0
SMALL
NO_CHARGES


@<TRIPOS>ATOM
      1 O2         21.4140    8.8330   12.8310 O.co2     1 K0I1503     0.0000 
      2 C1         22.6690    8.7750   12.6200 C.2       1 K0I1503     0.0000 
      3 O1         23.3710    9.8260   12.4320 O.co2     1 K0I1503     0.0000 
      4 C2         23.3200    7.3890   12.5710 C.3       1 K0I1503     0.0000 
      5 C3         23.0760    6.7830   11.1880 C.3       1 K0I1503     0.0000 
      6 N1         23.4340    5.3720   11.2390 N.pl3     1 K0I1503     0.0000 
      7 C4         22.7960    4.3960   10.3970 C.ar      1 K0I1503     0.0000 
      8 N3         23.2850    3.1600   10.3830 N.ar      1 K0I1503     0.0000 
      9 C7         22.7250    2.2360    9.6110 C.ar      1 K0I1503     0.0000 
     10 C8         23.3320    0.8360    9.6070 C.ar      1 K0I1503     0.0000 
     11 N4         24.4630    0.6300   10.2490 N.ar      1 K0I1503     0.0000 
     12 C12        25.0520   -0.5500   10.2780 C.ar      1 K0I1503     0.0000 
     13 C11        24.4950   -1.6410    9.6220 C.ar      1 K0I1503     0.0000 
     14 C10        23.3060   -1.4700    8.9190 C.ar      1 K0I1503     0.0000 
     15 C9         22.7250   -0.2010    8.9030 C.ar      1 K0I1503     0.0000 
     16 N2         21.6790    2.5150    8.8350 N.ar      1 K0I1503     0.0000 
     17 C6         21.1240    3.7250    8.7970 C.ar      1 K0I1503     0.0000 
     18 C5         21.6940    4.7250    9.5980 C.ar      1 K0I1503     0.0000 
     19 N5         19.9700    3.9800    7.9370 N.3       1 K0I1503     0.0000 
     20 C22        19.1640    5.1150    8.3380 C.3       1 K0I1503     0.0000 
     21 C21        18.2460    4.8780    9.5420 C.3       1 K0I1503     0.0000 
     22 C20        16.9900    3.9920    9.3080 C.ar      1 K0I1503     0.0000 
     23 C15        17.1060    2.6780    8.9070 C.ar      1 K0I1503     0.0000 
     24 C14        18.5030    2.0600    8.6570 C.3       1 K0I1503     0.0000 
     25 C13        19.2550    2.7720    7.5260 C.3       1 K0I1503     0.0000 
     26 C19        15.7100    4.5340    9.5340 C.ar      1 K0I1503     0.0000 
     27 C18        14.5670    3.7650    9.3570 C.ar      1 K0I1503     0.0000 
     28 C17        14.6870    2.4440    8.9440 C.ar      1 K0I1503     0.0000 
     29 C16        15.9460    1.9010    8.7190 C.ar      1 K0I1503     0.0000 
@<TRIPOS>BOND
     1    1    2 ar   
     2    2    3 ar   
     3    2    4 1    
     4    4    5 1    
     5    5    6 1    
     6    6    7 1    
     7    7    8 ar   
     8    7   18 ar   
     9    8    9 ar   
    10    9   10 1    
    11    9   16 ar   
    12   10   11 ar   
    13   10   15 ar   
    14   11   12 ar   
    15   12   13 ar   
    16   13   14 ar   
    17   14   15 ar   
    18   16   17 ar   
    19   17   18 ar   
    20   17   19 1    
    21   19   20 1    
    22   19   25 1    
    23   20   21 1    
    24   21   22 1    
    25   22   23 ar   
    26   22   26 ar   
    27   23   24 1    
    28   23   29 ar   
    29   24   25 1    
    30   26   27 ar   
    31   27   28 ar   
    32   28   29 ar   
@<TRIPOS>SUBSTRUCTURE
     1 K0I1503     1 GROUP   
@<TRIPOS>SET

