#    Name: 5qic_1_FMN_CAVITY_N1_ALL
#    Modification time : Fri May 22 19:12:13 2020

@<TRIPOS>MOLECULE
5qic_1_FMN_CAVITY_N1_ALL
   73     0     7     0     0
SMALL
NO_CHARGES


@<TRIPOS>ATOM
      1 OG          7.9000   29.1000   18.1700 O.3       1 SER1        0.0000 
      2 OG          6.7300   29.3100   21.6500 O.3       1 SER1        0.0000 
      3 OG          7.9300   29.1300   20.7700 O.3       1 SER1        0.0000 
      4 OG          5.0500   30.6100   21.6500 O.3       1 SER1        0.0000 
      5 OG          8.6600   30.0800   19.0200 O.3       1 SER1        0.0000 
      6 OG          7.9600   29.1700   23.3700 O.3       1 SER1        0.0000 
      7 OG          6.2800   30.4700   23.3700 O.3       1 SER1        0.0000 
      8 OG          7.4900   30.2900   22.4900 O.3       1 SER1        0.0000 
      9 OG          8.2200   31.2300   20.7400 O.3       1 SER1        0.0000 
     10 O          10.6800   22.3000   18.2400 O.2       2 ALA2        0.0000 
     11 O          11.4400   23.2800   19.0800 O.2       2 ALA2        0.0000 
     12 O          12.6400   23.1000   18.2000 O.2       2 ALA2        0.0000 
     13 O           9.2900   25.7000   18.2100 O.2       2 ALA2        0.0000 
     14 N           8.8500   26.8500   19.9300 N.am      2 ALA2        0.0000 
     15 N          10.0500   26.6800   19.0500 N.am      2 ALA2        0.0000 
     16 O          11.0300   24.4700   23.4000 O.2       2 ALA2        0.0000 
     17 N           9.6100   27.8300   20.7700 N.am      2 ALA2        0.0000 
     18 N           9.1300   28.9600   19.8900 N.am      2 ALA2        0.0000 
     19 N           9.3800   25.8000   26.0000 N.am      2 ALA2        0.0000 
     20 N           8.6900   30.1100   21.6200 N.am      2 ALA2        0.0000 
     21 N           9.4200   31.0600   19.8600 N.am      2 ALA2        0.0000 
     22 N           8.9500   32.1800   18.9900 N.am      2 ALA2        0.0000 
     23 O           8.9800   32.2100   21.5800 O.2       2 ALA2        0.0000 
     24 OD1         9.9500   21.3500   19.9900 O.co2     3 ASP3        0.0000 
     25 OD1        10.7100   22.3300   20.8300 O.co2     3 ASP3        0.0000 
     26 OD1         8.8200   26.8200   17.3300 O.co2     3 ASP3        0.0000 
     27 OD1         9.7900   24.6100   21.6800 O.co2     3 ASP3        0.0000 
     28 OD1         9.5800   27.8000   18.1700 O.co2     3 ASP3        0.0000 
     29 OD1         8.1500   25.9500   24.2800 O.co2     3 ASP3        0.0000 
     30 OD1         7.6700   27.0700   23.4000 O.co2     3 ASP3        0.0000 
     31 OD1         8.8800   26.8900   22.5200 O.co2     3 ASP3        0.0000 
     32 OD1         7.2000   28.1900   22.5300 O.co2     3 ASP3        0.0000 
     33 OD1         8.4000   28.0100   21.6500 O.co2     3 ASP3        0.0000 
     34 OD1         5.5200   29.4900   22.5300 O.co2     3 ASP3        0.0000 
     35 OD1         9.8600   29.9000   18.1400 O.co2     3 ASP3        0.0000 
     36 OD1         8.9100   26.9300   25.1200 O.co2     3 ASP3        0.0000 
     37 OD1         8.4300   28.0500   24.2500 O.co2     3 ASP3        0.0000 
     38 NZ         10.2100   23.4200   17.3600 N.4       4 LYS4        0.0000 
     39 NZ         10.9700   24.4000   18.2000 N.4       4 LYS4        0.0000 
     40 NZ         10.4900   25.5200   17.3300 N.4       4 LYS4        0.0000 
     41 NZ         12.9300   25.2000   18.1700 N.4       4 LYS4        0.0000 
     42 NZ         11.2500   26.5000   18.1700 N.4       4 LYS4        0.0000 
     43 CZ          7.6100   26.9900   18.2100 C.ar      5 PHE5        0.0000 
     44 CZ          8.3700   27.9800   19.0500 C.ar      5 PHE5        0.0000 
     45 CZ          5.8100   31.5900   22.4900 C.ar      5 PHE5        0.0000 
     46 CZ          7.0100   31.4100   21.6200 C.ar      5 PHE5        0.0000 
     47 CA         11.1500   21.1700   19.1100 C.3       6 GLY6        0.0000 
     48 CA          9.0300   23.6300   20.8400 C.3       6 GLY6        0.0000 
     49 CA         10.2400   23.4500   19.9600 C.3       6 GLY6        0.0000 
     50 CA          7.3600   24.9300   20.8400 C.3       6 GLY6        0.0000 
     51 CA          8.5600   24.7500   19.9600 C.3       6 GLY6        0.0000 
     52 CA          9.7600   24.5700   19.0800 C.3       6 GLY6        0.0000 
     53 CA         12.1700   24.2200   17.3300 C.3       6 GLY6        0.0000 
     54 CA          8.0900   25.8700   19.0800 C.3       6 GLY6        0.0000 
     55 CA         10.2700   23.4900   22.5600 C.3       6 GLY6        0.0000 
     56 CA          8.5900   24.7900   22.5600 C.3       6 GLY6        0.0000 
     57 CA         11.0000   24.4300   20.8000 C.3       6 GLY6        0.0000 
     58 CA          8.1200   25.9100   21.6800 C.3       6 GLY6        0.0000 
     59 CA         10.5200   25.5500   19.9300 C.3       6 GLY6        0.0000 
     60 CA         11.7300   25.3800   19.0500 C.3       6 GLY6        0.0000 
     61 CA          7.6400   27.0300   20.8000 C.3       6 GLY6        0.0000 
     62 CA          9.8200   24.6500   24.2800 C.3       6 GLY6        0.0000 
     63 CA          9.3500   25.7700   23.4000 C.3       6 GLY6        0.0000 
     64 CA         10.5500   25.5900   22.5200 C.3       6 GLY6        0.0000 
     65 CA         10.0800   26.7100   21.6500 C.3       6 GLY6        0.0000 
     66 CA         11.2800   26.5300   20.7700 C.3       6 GLY6        0.0000 
     67 CA         10.5800   25.6300   25.1200 C.3       6 GLY6        0.0000 
     68 CA         10.1100   26.7500   24.2400 C.3       6 GLY6        0.0000 
     69 CA          9.6400   27.8700   23.3700 C.3       6 GLY6        0.0000 
     70 CA          9.1600   28.9900   22.4900 C.3       6 GLY6        0.0000 
     71 CA          8.2500   31.2700   23.3400 C.3       6 GLY6        0.0000 
     72 CA          7.7700   32.3900   22.4600 C.3       6 GLY6        0.0000 
     73 DU          9.3200   25.7300   20.8000 H         7 CUB7        0.0000 
@<TRIPOS>BOND
@<TRIPOS>SUBSTRUCTURE
     1 SER1        1 GROUP   
     2 ALA2       10 GROUP   
     3 ASP3       24 GROUP   
     4 LYS4       38 GROUP   
     5 PHE5       43 GROUP   
     6 GLY6       47 GROUP   
     7 CUB7       73 GROUP   
@<TRIPOS>SET

