#    Name: 5qic_1_FMN
#    Modification time : Fri May 22 19:12:11 2020

@<TRIPOS>MOLECULE
5qic_1_FMN
   31    33     1     0     1
SMALL
NO_CHARGES


@<TRIPOS>ATOM
      1 N1          8.8090   30.1190   18.4540 N.2       1 FMN401      0.0000 
      2 C2          8.9150   31.4330   18.1400 C.2       1 FMN401      0.0000 
      3 O2          8.8740   31.7160   16.9350 O.2       1 FMN401      0.0000 
      4 N3          9.0510   32.3850   19.0920 N.am      1 FMN401      0.0000 
      5 C4          9.0170   32.1720   20.3830 C.2       1 FMN401      0.0000 
      6 O4          9.1500   33.0750   21.2140 O.2       1 FMN401      0.0000 
      7 C4A         8.8800   30.8050   20.8600 C.2       1 FMN401      0.0000 
      8 N5          8.8460   30.5040   22.1850 N.2       1 FMN401      0.0000 
      9 C5A         8.7680   29.2090   22.5490 C.ar      1 FMN401      0.0000 
     10 C6          8.7700   28.9090   23.9240 C.ar      1 FMN401      0.0000 
     11 C7          8.7000   27.5960   24.3030 C.ar      1 FMN401      0.0000 
     12 C7M         8.7120   27.2210   25.7330 C.3       1 FMN401      0.0000 
     13 C8          8.7280   26.5340   23.3350 C.ar      1 FMN401      0.0000 
     14 C8M         8.7100   25.0720   23.7900 C.3       1 FMN401      0.0000 
     15 C9          8.7240   26.8200   22.0020 C.ar      1 FMN401      0.0000 
     16 C9A         8.7350   28.1400   21.5390 C.ar      1 FMN401      0.0000 
     17 N10         8.7190   28.5000   20.1670 N.pl3     1 FMN401      0.0000 
     18 C10         8.7730   29.8290   19.7760 C.2       1 FMN401      0.0000 
     19 C1'         8.8360   27.4740   19.1290 C.3       1 FMN401      0.0000 
     20 C2'        10.3200   27.0840   18.9740 C.3       1 FMN401      0.0000 
     21 O2'        11.0250   28.1370   18.2510 O.3       1 FMN401      0.0000 
     22 C3'        10.5750   25.8100   18.2050 C.3       1 FMN401      0.0000 
     23 O3'         9.7750   25.8280   16.9770 O.3       1 FMN401      0.0000 
     24 C4'        10.2390   24.5430   18.9750 C.3       1 FMN401      0.0000 
     25 O4'        10.6510   24.7050   20.3760 O.3       1 FMN401      0.0000 
     26 C5'        10.9530   23.3600   18.4190 C.3       1 FMN401      0.0000 
     27 O5'        10.5770   22.1130   18.9990 O.3       1 FMN401      0.0000 
     28 P          11.3760   21.3950   20.2290 P.3       1 FMN401      0.0000 
     29 O1P        12.8500   21.4060   19.9600 O.co2     1 FMN401      0.0000 
     30 O2P        10.7590   20.0270   20.1860 O.co2     1 FMN401      0.0000 
     31 O3P        11.0550   22.1710   21.4710 O.co2     1 FMN401      0.0000 
@<TRIPOS>BOND
     1    1    2 1    
     2    1   18 2    
     3    2    3 2    
     4    2    4 am   
     5    4    5 am   
     6    5    6 2    
     7    5    7 1    
     8    7    8 2    
     9    7   18 1    
    10    8    9 1    
    11    9   10 ar   
    12    9   16 ar   
    13   10   11 ar   
    14   11   12 1    
    15   11   13 ar   
    16   13   14 1    
    17   13   15 ar   
    18   15   16 ar   
    19   16   17 1    
    20   17   18 1    
    21   17   19 1    
    22   19   20 1    
    23   20   21 1    
    24   20   22 1    
    25   22   23 1    
    26   22   24 1    
    27   24   25 1    
    28   24   26 1    
    29   26   27 1    
    30   27   28 1    
    31   28   29 ar   
    32   28   30 ar   
    33   28   31 ar   
@<TRIPOS>SUBSTRUCTURE
     1 FMN401      1 GROUP   
@<TRIPOS>SET
ATOM$ORANGE STATIC     ATOMS   COLORGROUP SYSTEM 
34 2 2 5 5 7 7 9 9 10 10 11 11 12 12 13 13 14 \
14 15 15 16 16 18 18 19 19 20 20 22 22 24 24 26 26 

