#    Name: 5yzx_1_B4P
#    Modification time : Fri May 22 19:24:57 2020

@<TRIPOS>MOLECULE
5yzx_1_B4P
   53    58     1     0     0
SMALL
NO_CHARGES


@<TRIPOS>ATOM
      1 PA         95.8370   71.8670   45.0210 P.3       1 B4P601      0.0000 
      2 O1A        94.3980   72.2340   44.6580 O.co2     1 B4P601      0.0000 
      3 O2A        96.7810   72.2800   43.8500 O.co2     1 B4P601      0.0000 
      4 O3A        95.9280   70.1940   45.3340 O.3       1 B4P601      0.0000 
      5 PB         96.7670   69.0930   44.4540 P.3       1 B4P601      0.0000 
      6 O1B        98.0220   69.7190   43.9530 O.co2     1 B4P601      0.0000 
      7 O2B        97.0920   67.9220   45.3200 O.co2     1 B4P601      0.0000 
      8 O3B        95.8300   68.5470   43.1380 O.3       1 B4P601      0.0000 
      9 PG         95.7460   69.3220   41.6400 P.3       1 B4P601      0.0000 
     10 O1G        96.6490   70.5200   41.6220 O.co2     1 B4P601      0.0000 
     11 O2G        94.3490   69.7790   41.4190 O.co2     1 B4P601      0.0000 
     12 O3G        96.1920   68.2710   40.4430 O.3       1 B4P601      0.0000 
     13 PD         95.1570   67.7510   39.2440 P.3       1 B4P601      0.0000 
     14 O1D        93.7630   67.5210   39.8300 O.co2     1 B4P601      0.0000 
     15 O2D        95.0940   68.7810   38.1220 O.co2     1 B4P601      0.0000 
     16 O5E        96.2800   72.6740   46.4370 O.3       1 B4P601      0.0000 
     17 C5E        95.5730   72.4280   47.5830 C.3       1 B4P601      0.0000 
     18 C4E        96.4800   71.8090   48.6640 C.3       1 B4P601      0.0000 
     19 O4E        97.3240   70.9490   48.1220 O.3       1 B4P601      0.0000 
     20 C3E        97.3490   72.8860   49.3090 C.3       1 B4P601      0.0000 
     21 O3E        96.7490   73.3670   50.4250 O.3       1 B4P601      0.0000 
     22 C2E        98.6760   72.1410   49.6730 C.3       1 B4P601      0.0000 
     23 O2E        98.6150   71.6520   51.0750 O.3       1 B4P601      0.0000 
     24 C1E        98.7660   71.1360   48.8520 C.3       1 B4P601      0.0000 
     25 N9A        99.8130   71.3560   47.8470 N.pl3     1 B4P601      0.0000 
     26 C8A        99.6120   71.6150   46.5390 C.2       1 B4P601      0.0000 
     27 N7A       100.8050   71.7480   45.9470 N.2       1 B4P601      0.0000 
     28 C5A       101.7500   71.5680   46.8860 C.ar      1 B4P601      0.0000 
     29 C6A       103.1200   71.5950   46.8240 C.ar      1 B4P601      0.0000 
     30 N6A       104.0110   71.8330   45.6980 N.pl3     1 B4P601      0.0000 
     31 N1A       103.8430   71.3820   47.9170 N.ar      1 B4P601      0.0000 
     32 C2A       103.2290   71.1390   49.0930 C.ar      1 B4P601      0.0000 
     33 N3A       101.8740   71.1100   49.1610 N.ar      1 B4P601      0.0000 
     34 C4A       101.1390   71.3250   48.0570 C.ar      1 B4P601      0.0000 
     35 O5F        95.7080   66.3030   38.6510 O.3       1 B4P601      0.0000 
     36 C5F        94.9420   65.1690   38.9510 C.3       1 B4P601      0.0000 
     37 C4F        95.7090   64.2580   39.9710 C.3       1 B4P601      0.0000 
     38 O4F        96.9900   64.3030   39.7380 O.3       1 B4P601      0.0000 
     39 C3F        95.5770   64.7960   41.3920 C.3       1 B4P601      0.0000 
     40 O3F        94.4900   64.2770   41.9710 O.3       1 B4P601      0.0000 
     41 C2F        96.8630   64.2650   42.0990 C.3       1 B4P601      0.0000 
     42 O2F        96.5550   62.9870   42.8200 O.3       1 B4P601      0.0000 
     43 C1F        97.7250   64.0340   41.1670 C.3       1 B4P601      0.0000 
     44 N9B        98.8570   64.9230   41.2970 N.pl3     1 B4P601      0.0000 
     45 C8B        98.8420   66.2340   41.0130 C.2       1 B4P601      0.0000 
     46 N7B       100.0670   66.7300   41.2520 N.2       1 B4P601      0.0000 
     47 C5B       100.8330   65.7270   41.6780 C.ar      1 B4P601      0.0000 
     48 C6B       102.1620   65.6760   42.0590 C.ar      1 B4P601      0.0000 
     49 N6B       103.2970   66.6660   42.1710 N.pl3     1 B4P601      0.0000 
     50 N1B       102.7010   64.5190   42.4540 N.ar      1 B4P601      0.0000 
     51 C2B       101.9350   63.3880   42.4830 C.ar      1 B4P601      0.0000 
     52 N3B       100.6250   63.4360   42.1030 N.ar      1 B4P601      0.0000 
     53 C4B       100.0840   64.6070   41.7060 C.ar      1 B4P601      0.0000 
@<TRIPOS>BOND
     1    1    2 ar   
     2    1    3 ar   
     3    1    4 1    
     4    1   16 1    
     5    4    5 1    
     6    5    6 ar   
     7    5    7 ar   
     8    5    8 1    
     9    8    9 1    
    10    9   10 ar   
    11    9   11 ar   
    12    9   12 1    
    13   12   13 1    
    14   13   14 ar   
    15   13   15 ar   
    16   13   35 1    
    17   16   17 1    
    18   17   18 1    
    19   18   19 1    
    20   18   20 1    
    21   19   24 1    
    22   20   21 1    
    23   20   22 1    
    24   22   23 1    
    25   22   24 1    
    26   24   25 1    
    27   25   26 1    
    28   25   34 1    
    29   26   27 2    
    30   27   28 1    
    31   28   29 ar   
    32   28   34 ar   
    33   29   30 1    
    34   29   31 ar   
    35   31   32 ar   
    36   32   33 ar   
    37   33   34 ar   
    38   35   36 1    
    39   36   37 1    
    40   37   38 1    
    41   37   39 1    
    42   38   43 1    
    43   39   40 1    
    44   39   41 1    
    45   41   42 1    
    46   41   43 1    
    47   43   44 1    
    48   44   45 1    
    49   44   53 1    
    50   45   46 2    
    51   46   47 1    
    52   47   48 ar   
    53   47   53 ar   
    54   48   49 1    
    55   48   50 ar   
    56   50   51 ar   
    57   51   52 ar   
    58   52   53 ar   
@<TRIPOS>SUBSTRUCTURE
     1 B4P601      1 GROUP   
@<TRIPOS>SET

