#    Name: 5yzx_3_B4P
#    Modification time : Fri May 22 19:25:12 2020

@<TRIPOS>MOLECULE
5yzx_3_B4P
   53    58     1     0     0
SMALL
NO_CHARGES


@<TRIPOS>ATOM
      1 PA        122.3470   56.1510   13.9850 P.3       1 B4P601      0.0000 
      2 O1A       123.3270   54.9870   14.1400 O.co2     1 B4P601      0.0000 
      3 O2A       122.4410   57.0880   15.2300 O.co2     1 B4P601      0.0000 
      4 O3A       120.7750   55.5300   13.8360 O.3       1 B4P601      0.0000 
      5 PB        119.5730   55.8560   14.8930 P.3       1 B4P601      0.0000 
      6 O1B       119.6400   57.2930   15.2740 O.co2     1 B4P601      0.0000 
      7 O2B       118.2690   55.5510   14.2370 O.co2     1 B4P601      0.0000 
      8 O3B       119.7580   54.8710   16.2720 O.3       1 B4P601      0.0000 
      9 PG        120.4710   55.3430   17.7290 P.3       1 B4P601      0.0000 
     10 O1G       120.5850   56.8360   17.7750 O.co2     1 B4P601      0.0000 
     11 O2G       121.8350   54.7590   17.8260 O.co2     1 B4P601      0.0000 
     12 O3G       119.5260   54.8020   18.9820 O.3       1 B4P601      0.0000 
     13 PD        119.9830   53.6870   20.1410 P.3       1 B4P601      0.0000 
     14 O1D       120.9670   52.6630   19.5760 O.co2     1 B4P601      0.0000 
     15 O2D       120.6220   54.4130   21.3180 O.co2     1 B4P601      0.0000 
     16 O5E       122.6940   57.0120   12.5690 O.3       1 B4P601      0.0000 
     17 C5E       122.8310   56.3380   11.3840 C.3       1 B4P601      0.0000 
     18 C4E       122.1710   57.1140   10.2250 C.3       1 B4P601      0.0000 
     19 O4E       120.9400   57.4770   10.5400 O.3       1 B4P601      0.0000 
     20 C3E       122.9120   58.4220    9.9490 C.3       1 B4P601      0.0000 
     21 O3E       123.8990   58.2290    9.0420 O.3       1 B4P601      0.0000 
     22 C2E       121.8000   59.3560    9.3650 C.3       1 B4P601      0.0000 
     23 O2E       121.7410   59.2240    7.8840 O.3       1 B4P601      0.0000 
     24 C1E       120.6850   58.9530    9.9020 C.3       1 B4P601      0.0000 
     25 N9A       120.2530   59.8760   10.9550 N.pl3     1 B4P601      0.0000 
     26 C8A       120.4910   59.7320   12.2720 C.2       1 B4P601      0.0000 
     27 N7A       119.9430   60.7710   12.9090 N.2       1 B4P601      0.0000 
     28 C5A       119.3570   61.5590   11.9920 C.ar      1 B4P601      0.0000 
     29 C6A       118.6600   62.7360   12.1080 C.ar      1 B4P601      0.0000 
     30 N6A       118.3200   63.5220   13.2890 N.pl3     1 B4P601      0.0000 
     31 N1A       118.1780   63.3280   11.0220 N.ar      1 B4P601      0.0000 
     32 C2A       118.3700   62.7730    9.8060 C.ar      1 B4P601      0.0000 
     33 N3A       119.0590   61.6090    9.6880 N.ar      1 B4P601      0.0000 
     34 C4A       119.5500   61.0070   10.7840 C.ar      1 B4P601      0.0000 
     35 O5F       118.6470   52.8590   20.6680 O.3       1 B4P601      0.0000 
     36 C5F       117.4300   53.5410   20.6810 C.3       1 B4P601      0.0000 
     37 C4F       116.4040   52.7500   19.8000 C.3       1 B4P601      0.0000 
     38 O4F       115.2330   53.3390   19.8320 O.3       1 B4P601      0.0000 
     39 C3F       116.8840   52.7550   18.3480 C.3       1 B4P601      0.0000 
     40 O3F       117.2590   51.5190   17.9970 O.3       1 B4P601      0.0000 
     41 C2F       115.6530   53.2220   17.5100 C.3       1 B4P601      0.0000 
     42 O2F       114.9340   52.0260   16.9690 O.3       1 B4P601      0.0000 
     43 C1F       114.8690   53.8350   18.3240 C.3       1 B4P601      0.0000 
     44 N9B       115.0030   55.2720   18.2160 N.pl3     1 B4P601      0.0000 
     45 C8B       116.0900   55.9890   18.5300 C.2       1 B4P601      0.0000 
     46 N7B       115.8230   57.2820   18.2960 N.2       1 B4P601      0.0000 
     47 C5B       114.5740   57.3630   17.8450 C.ar      1 B4P601      0.0000 
     48 C6B       113.8020   58.4400   17.4540 C.ar      1 B4P601      0.0000 
     49 N6B       113.9900   59.9330   17.3590 N.pl3     1 B4P601      0.0000 
     50 N1B       112.5540   58.2450   17.0280 N.ar      1 B4P601      0.0000 
     51 C2B       112.0410   56.9790   16.9790 C.ar      1 B4P601      0.0000 
     52 N3B       112.7980   55.9140   17.3650 N.ar      1 B4P601      0.0000 
     53 C4B       114.0640   56.1180   17.7930 C.ar      1 B4P601      0.0000 
@<TRIPOS>BOND
     1    1    2 ar   
     2    1    3 ar   
     3    1    4 1    
     4    1   16 1    
     5    4    5 1    
     6    5    6 ar   
     7    5    7 ar   
     8    5    8 1    
     9    8    9 1    
    10    9   10 ar   
    11    9   11 ar   
    12    9   12 1    
    13   12   13 1    
    14   13   14 ar   
    15   13   15 ar   
    16   13   35 1    
    17   16   17 1    
    18   17   18 1    
    19   18   19 1    
    20   18   20 1    
    21   19   24 1    
    22   20   21 1    
    23   20   22 1    
    24   22   23 1    
    25   22   24 1    
    26   24   25 1    
    27   25   26 1    
    28   25   34 1    
    29   26   27 2    
    30   27   28 1    
    31   28   29 ar   
    32   28   34 ar   
    33   29   30 1    
    34   29   31 ar   
    35   31   32 ar   
    36   32   33 ar   
    37   33   34 ar   
    38   35   36 1    
    39   36   37 1    
    40   37   38 1    
    41   37   39 1    
    42   38   43 1    
    43   39   40 1    
    44   39   41 1    
    45   41   42 1    
    46   41   43 1    
    47   43   44 1    
    48   44   45 1    
    49   44   53 1    
    50   45   46 2    
    51   46   47 1    
    52   47   48 ar   
    53   47   53 ar   
    54   48   49 1    
    55   48   50 ar   
    56   50   51 ar   
    57   51   52 ar   
    58   52   53 ar   
@<TRIPOS>SUBSTRUCTURE
     1 B4P601      1 GROUP   
@<TRIPOS>SET

