#    Name: 5yzx_3_B4P_CAVITY_N1_6
#    Modification time : Fri May 22 19:25:15 2020

@<TRIPOS>MOLECULE
5yzx_3_B4P_CAVITY_N1_6
  168     0     7     0     0
SMALL
NO_CHARGES


@<TRIPOS>ATOM
      1 OG        120.0100   56.9800   11.9900 O.3       1 SER1        0.0000 
      2 OG        119.7200   57.2100   14.0800 O.3       1 SER1        0.0000 
      3 OG        120.3500   58.0300   12.9900 O.3       1 SER1        0.0000 
      4 OG        120.0600   58.2700   15.0800 O.3       1 SER1        0.0000 
      5 OG        114.8500   58.6500   16.4700 O.3       1 SER1        0.0000 
      6 OG        125.4200   54.5500   21.6400 O.3       1 SER1        0.0000 
      7 OG        126.0500   55.3700   20.5600 O.3       1 SER1        0.0000 
      8 O         115.5600   51.2300   19.5600 O.2       2 ALA2        0.0000 
      9 N         116.1900   52.0500   18.4800 N.am      2 ALA2        0.0000 
     10 O         117.2200   51.6100   20.8300 O.2       2 ALA2        0.0000 
     11 O         117.8500   52.4300   19.7500 O.2       2 ALA2        0.0000 
     12 N         122.1400   51.4600   21.5300 N.am      2 ALA2        0.0000 
     13 O         120.8300   52.1400   21.2700 O.2       2 ALA2        0.0000 
     14 O         119.5100   52.8100   21.0100 O.2       2 ALA2        0.0000 
     15 N         127.0200   53.6300   19.8100 N.am      2 ALA2        0.0000 
     16 N         125.0700   53.4900   20.6300 N.am      2 ALA2        0.0000 
     17 N         121.8500   51.7000   23.6200 N.am      2 ALA2        0.0000 
     18 N         122.4800   52.5200   22.5400 N.am      2 ALA2        0.0000 
     19 N         126.0900   53.0500   22.9800 N.am      2 ALA2        0.0000 
     20 N         123.5100   52.0800   24.8800 N.am      2 ALA2        0.0000 
     21 N         124.1400   52.9000   23.8000 N.am      2 ALA2        0.0000 
     22 N         122.8300   53.5800   23.5400 N.am      2 ALA2        0.0000 
     23 O         124.1000   55.2200   21.3800 O.2       2 ALA2        0.0000 
     24 N         123.4200   56.7200   20.0400 N.am      2 ALA2        0.0000 
     25 N         124.0600   57.5400   18.9500 N.am      2 ALA2        0.0000 
     26 N         122.1100   57.3900   19.7800 N.am      2 ALA2        0.0000 
     27 OD1       118.3900   54.2800   13.1500 O.co2     3 ASP3        0.0000 
     28 OD1       117.7100   55.7700   11.8100 O.co2     3 ASP3        0.0000 
     29 OD1       117.4700   53.6900   16.3200 O.co2     3 ASP3        0.0000 
     30 OD1       118.1000   54.5100   15.2300 O.co2     3 ASP3        0.0000 
     31 OD1       118.7400   55.3300   14.1500 O.co2     3 ASP3        0.0000 
     32 OD1       115.5200   53.5400   17.1400 O.co2     3 ASP3        0.0000 
     33 OD1       114.2000   54.2200   16.8800 O.co2     3 ASP3        0.0000 
     34 OD1       112.8900   54.9000   16.6200 O.co2     3 ASP3        0.0000 
     35 OD1       121.7100   55.0400   15.6800 O.co2     3 ASP3        0.0000 
     36 OD1       122.3500   55.8600   14.6000 O.co2     3 ASP3        0.0000 
     37 OD1       119.1200   54.0700   17.5800 O.co2     3 ASP3        0.0000 
     38 OD1       117.8100   54.7500   17.3200 O.co2     3 ASP3        0.0000 
     39 OD1       118.4500   55.5700   16.2400 O.co2     3 ASP3        0.0000 
     40 OD1       115.8600   54.6000   18.1500 O.co2     3 ASP3        0.0000 
     41 OD1       116.5000   55.4200   17.0600 O.co2     3 ASP3        0.0000 
     42 OD1       115.1800   56.1000   16.8000 O.co2     3 ASP3        0.0000 
     43 OD1       113.8700   56.7700   16.5400 O.co2     3 ASP3        0.0000 
     44 OD1       124.0900   51.6100   20.7100 O.co2     3 ASP3        0.0000 
     45 OD1       124.7300   52.4300   19.6300 O.co2     3 ASP3        0.0000 
     46 OD1       122.7800   52.2800   20.4500 O.co2     3 ASP3        0.0000 
     47 OD1       125.9600   56.3900   15.0400 O.co2     3 ASP3        0.0000 
     48 OD1       121.4600   52.9600   20.1900 O.co2     3 ASP3        0.0000 
     49 OD1       123.3700   55.4200   16.9400 O.co2     3 ASP3        0.0000 
     50 OD1       124.0100   56.2400   15.8600 O.co2     3 ASP3        0.0000 
     51 OD1       124.6400   57.0700   14.7800 O.co2     3 ASP3        0.0000 
     52 OD1       120.1500   53.6300   19.9300 O.co2     3 ASP3        0.0000 
     53 OD1       120.7800   54.4600   18.8500 O.co2     3 ASP3        0.0000 
     54 OD1       121.4200   55.2800   17.7700 O.co2     3 ASP3        0.0000 
     55 OD1       122.0600   56.1000   16.6800 O.co2     3 ASP3        0.0000 
     56 OD1       122.6900   56.9200   15.6000 O.co2     3 ASP3        0.0000 
     57 OD1       118.2000   53.4900   20.7500 O.co2     3 ASP3        0.0000 
     58 OD1       118.8300   54.3100   19.6700 O.co2     3 ASP3        0.0000 
     59 OD1       119.4700   55.1300   18.5900 O.co2     3 ASP3        0.0000 
     60 OD1       120.1100   55.9500   17.5100 O.co2     3 ASP3        0.0000 
     61 OD1       120.7400   56.7700   16.4200 O.co2     3 ASP3        0.0000 
     62 OD1       121.3800   57.5900   15.3400 O.co2     3 ASP3        0.0000 
     63 OD1       116.8800   54.1600   20.4900 O.co2     3 ASP3        0.0000 
     64 OD1       117.5200   54.9900   19.4100 O.co2     3 ASP3        0.0000 
     65 OD1       118.1600   55.8100   18.3300 O.co2     3 ASP3        0.0000 
     66 OD1       118.7900   56.6300   17.2500 O.co2     3 ASP3        0.0000 
     67 OD1       119.4300   57.4500   16.1600 O.co2     3 ASP3        0.0000 
     68 OD1       116.8400   56.4800   18.0700 O.co2     3 ASP3        0.0000 
     69 OD1       125.1100   51.1700   23.0600 O.co2     3 ASP3        0.0000 
     70 OD1       125.7500   51.9900   21.9700 O.co2     3 ASP3        0.0000 
     71 OD1       123.8000   51.8400   22.8000 O.co2     3 ASP3        0.0000 
     72 OD1       124.4300   52.6700   21.7100 O.co2     3 ASP3        0.0000 
     73 OD1       126.3400   55.1300   18.4700 O.co2     3 ASP3        0.0000 
     74 OD1       126.9800   55.9500   17.3900 O.co2     3 ASP3        0.0000 
     75 OD1       123.7600   54.1600   20.3700 O.co2     3 ASP3        0.0000 
     76 OD1       125.0300   55.8100   18.2100 O.co2     3 ASP3        0.0000 
     77 OD1       125.6600   56.6300   17.1300 O.co2     3 ASP3        0.0000 
     78 OD1       122.4400   54.8400   20.1100 O.co2     3 ASP3        0.0000 
     79 OD1       123.0800   55.6600   19.0300 O.co2     3 ASP3        0.0000 
     80 OD1       123.7100   56.4800   17.9500 O.co2     3 ASP3        0.0000 
     81 OD1       119.2200   53.0500   23.1000 O.co2     3 ASP3        0.0000 
     82 OD1       119.8600   53.8700   22.0200 O.co2     3 ASP3        0.0000 
     83 OD1       120.4900   54.6900   20.9400 O.co2     3 ASP3        0.0000 
     84 OD1       121.1300   55.5100   19.8500 O.co2     3 ASP3        0.0000 
     85 OD1       121.7600   56.3300   18.7700 O.co2     3 ASP3        0.0000 
     86 OD1       122.4000   57.1600   17.6900 O.co2     3 ASP3        0.0000 
     87 OD1       123.0400   57.9800   16.6100 O.co2     3 ASP3        0.0000 
     88 OD1       123.6700   58.8000   15.5200 O.co2     3 ASP3        0.0000 
     89 OD1       117.9100   53.7300   22.8400 O.co2     3 ASP3        0.0000 
     90 OD1       117.8200   58.3600   17.9900 O.co2     3 ASP3        0.0000 
     91 OD1       127.3200   57.0100   18.3900 O.co2     3 ASP3        0.0000 
     92 OD1       126.6500   58.5100   17.0500 O.co2     3 ASP3        0.0000 
     93 OD1       121.4700   56.5700   20.8600 O.co2     3 ASP3        0.0000 
     94 NZ        119.7100   53.6000   13.4100 N.4       4 LYS4        0.0000 
     95 NZ        120.9800   55.2400   11.2400 N.4       4 LYS4        0.0000 
     96 NZ        119.0300   55.1000   12.0600 N.4       4 LYS4        0.0000 
     97 NZ        119.6600   55.9200   10.9800 N.4       4 LYS4        0.0000 
     98 NZ        122.0000   54.8000   13.5900 N.4       4 LYS4        0.0000 
     99 NZ        117.5100   51.3700   18.7400 N.4       4 LYS4        0.0000 
    100 NZ        120.0500   54.6600   14.4100 N.4       4 LYS4        0.0000 
    101 NZ        120.6900   55.4800   13.3300 N.4       4 LYS4        0.0000 
    102 NZ        116.8300   52.8700   17.4000 N.4       4 LYS4        0.0000 
    103 NZ        118.4900   53.2500   18.6600 N.4       4 LYS4        0.0000 
    104 NZ        119.7600   54.8900   16.5000 N.4       4 LYS4        0.0000 
    105 NZ        120.4000   55.7200   15.4200 N.4       4 LYS4        0.0000 
    106 NZ        126.5900   57.2100   13.9600 N.4       4 LYS4        0.0000 
    107 NZ        125.2800   57.8900   13.7000 N.4       4 LYS4        0.0000 
    108 NZ        125.9100   58.7100   12.6100 N.4       4 LYS4        0.0000 
    109 NZ        127.6100   56.7700   16.3000 N.4       4 LYS4        0.0000 
    110 NZ        126.3000   57.4500   16.0400 N.4       4 LYS4        0.0000 
    111 NZ        125.6200   58.9400   14.7000 N.4       4 LYS4        0.0000 
    112 NZ        116.5100   59.0400   17.7300 N.4       4 LYS4        0.0000 
    113 NZ        126.0100   57.6800   18.1300 N.4       4 LYS4        0.0000 
    114 NZ        124.7000   58.3600   17.8700 N.4       4 LYS4        0.0000 
    115 NZ        125.3300   59.1800   16.7900 N.4       4 LYS4        0.0000 
    116 NZ        125.9700   60.0000   15.7100 N.4       4 LYS4        0.0000 
    117 NZ        126.3500   58.7400   19.1400 N.4       4 LYS4        0.0000 
    118 CZ        118.3500   56.5900   10.7200 C.ar      5 PHE5        0.0000 
    119 CZ        119.3700   56.1500   13.0700 C.ar      5 PHE5        0.0000 
    120 CZ        118.7000   57.6500   11.7300 C.ar      5 PHE5        0.0000 
    121 CZ        119.0800   56.3900   15.1600 C.ar      5 PHE5        0.0000 
    122 CZ        115.2200   53.7800   19.2300 C.ar      5 PHE5        0.0000 
    123 CZ        113.9100   54.4600   18.9700 C.ar      5 PHE5        0.0000 
    124 CZ        114.5500   55.2800   17.8900 C.ar      5 PHE5        0.0000 
    125 CZ        113.2300   55.9500   17.6300 C.ar      5 PHE5        0.0000 
    126 CZ        115.5700   54.8400   20.2300 C.ar      5 PHE5        0.0000 
    127 CZ        116.2100   55.6600   19.1500 C.ar      5 PHE5        0.0000 
    128 CZ        117.4800   57.3000   16.9900 C.ar      5 PHE5        0.0000 
    129 CZ        114.8900   56.3400   18.8900 C.ar      5 PHE5        0.0000 
    130 CZ        115.5300   57.1600   17.8100 C.ar      5 PHE5        0.0000 
    131 CZ        116.1600   57.9800   16.7300 C.ar      5 PHE5        0.0000 
    132 CZ        114.2100   57.8300   17.5500 C.ar      5 PHE5        0.0000 
    133 CZ        123.1600   51.0200   23.8800 C.ar      5 PHE5        0.0000 
    134 CZ        115.8700   58.2200   18.8200 C.ar      5 PHE5        0.0000 
    135 CZ        114.5600   58.8900   18.5600 C.ar      5 PHE5        0.0000 
    136 CZ        115.2000   59.7100   17.4700 C.ar      5 PHE5        0.0000 
    137 CA        114.8800   52.7200   18.2200 C.3       6 GLY6        0.0000 
    138 CA        113.5700   53.4000   17.9600 C.3       6 GLY6        0.0000 
    139 CA        112.2500   54.0700   17.7000 C.3       6 GLY6        0.0000 
    140 CA        115.9000   52.2800   20.5700 C.3       6 GLY6        0.0000 
    141 CA        114.5900   52.9600   20.3100 C.3       6 GLY6        0.0000 
    142 CA        117.5600   52.6700   21.8300 C.3       6 GLY6        0.0000 
    143 CA        116.2500   53.3400   21.5700 C.3       6 GLY6        0.0000 
    144 CA        127.6600   54.4500   18.7300 C.3       6 GLY6        0.0000 
    145 CA        121.1700   53.2000   22.2800 C.3       6 GLY6        0.0000 
    146 CA        121.8100   54.0200   21.2000 C.3       6 GLY6        0.0000 
    147 CA        125.4600   52.2300   24.0600 C.3       6 GLY6        0.0000 
    148 CA        124.7800   53.7200   22.7200 C.3       6 GLY6        0.0000 
    149 CA        126.6900   56.1900   19.4700 C.3       6 GLY6        0.0000 
    150 CA        123.4700   54.4000   22.4600 C.3       6 GLY6        0.0000 
    151 CA        124.7400   56.0400   20.3000 C.3       6 GLY6        0.0000 
    152 CA        125.3700   56.8600   19.2100 C.3       6 GLY6        0.0000 
    153 CA        122.1500   55.0700   22.2000 C.3       6 GLY6        0.0000 
    154 CA        120.8400   55.7500   21.9400 C.3       6 GLY6        0.0000 
    155 CA        124.4900   53.9600   24.8100 C.3       6 GLY6        0.0000 
    156 CA        125.1200   54.7800   23.7300 C.3       6 GLY6        0.0000 
    157 DU        121.3200   56.3000   12.2500 H         7 CUB7        0.0000 
    158 DU        122.9800   56.6800   13.5100 H         7 CUB7        0.0000 
    159 DU        121.0300   56.5400   14.3400 H         7 CUB7        0.0000 
    160 DU        121.6700   57.3600   13.2500 H         7 CUB7        0.0000 
    161 DU        116.5400   53.1100   19.4900 H         7 CUB7        0.0000 
    162 DU        117.1700   53.9300   18.4000 H         7 CUB7        0.0000 
    163 DU        123.3300   57.7400   14.5200 H         7 CUB7        0.0000 
    164 DU        125.7100   54.3100   19.5500 H         7 CUB7        0.0000 
    165 DU        123.1200   53.3400   21.4500 H         7 CUB7        0.0000 
    166 DU        124.3900   54.9800   19.2900 H         7 CUB7        0.0000 
    167 DU        124.3500   57.3000   16.8700 H         7 CUB7        0.0000 
    168 DU        124.9900   58.1200   15.7800 H         7 CUB7        0.0000 
@<TRIPOS>BOND
@<TRIPOS>SUBSTRUCTURE
     1 SER1        1 GROUP   
     2 ALA2        8 GROUP   
     3 ASP3       27 GROUP   
     4 LYS4       94 GROUP   
     5 PHE5      118 GROUP   
     6 GLY6      137 GROUP   
     7 CUB7      157 GROUP   
@<TRIPOS>SET

