#    Name: 5yzx_2_B4P
#    Modification time : Fri May 22 19:25:05 2020

@<TRIPOS>MOLECULE
5yzx_2_B4P
   53    58     1     0     0
SMALL
NO_CHARGES


@<TRIPOS>ATOM
      1 PA         70.9310  109.0930  105.0250 P.3       1 B4P601      0.0000 
      2 O1A        71.2870  107.6430  104.7060 O.co2     1 B4P601      0.0000 
      3 O2A        69.8320  109.5940  104.0340 O.co2     1 B4P601      0.0000 
      4 O3A        72.3500  110.0240  104.8990 O.3       1 B4P601      0.0000 
      5 PB         72.4350  111.5060  104.2080 P.3       1 B4P601      0.0000 
      6 O1B        71.0930  112.1490  104.2680 O.co2     1 B4P601      0.0000 
      7 O2B        73.4270  112.3350  104.9510 O.co2     1 B4P601      0.0000 
      8 O3B        72.9160  111.3440  102.5790 O.3       1 B4P601      0.0000 
      9 PG         72.0230  110.5120  101.4070 P.3       1 B4P601      0.0000 
     10 O1G        70.6090  111.0120  101.4060 O.co2     1 B4P601      0.0000 
     11 O2G        72.0260  109.0590  101.7180 O.co2     1 B4P601      0.0000 
     12 O3G        72.6830  110.7640   99.9090 O.3       1 B4P601      0.0000 
     13 PD         74.0470  110.0110   99.3030 P.3       1 B4P601      0.0000 
     14 O1D        74.2530  108.6310   99.9300 O.co2     1 B4P601      0.0000 
     15 O2D        73.9150  109.8590   97.7940 O.co2     1 B4P601      0.0000 
     16 O5E        70.3700  109.1970  106.6150 O.3       1 B4P601      0.0000 
     17 C5E        69.8190  110.3760  107.0330 C.3       1 B4P601      0.0000 
     18 C4E        69.9800  110.5530  108.5550 C.3       1 B4P601      0.0000 
     19 O4E        70.4070  111.7760  108.8270 O.3       1 B4P601      0.0000 
     20 C3E        68.6200  110.3920  109.2410 C.3       1 B4P601      0.0000 
     21 O3E        68.6740  109.4030  110.1650 O.3       1 B4P601      0.0000 
     22 C2E        68.2950  111.7690  109.9190 C.3       1 B4P601      0.0000 
     23 O2E        68.3420  111.6420  111.4010 O.3       1 B4P601      0.0000 
     24 C1E        69.1930  112.6180  109.5130 C.3       1 B4P601      0.0000 
     25 N9A        68.6230  113.5990  108.5760 N.pl3     1 B4P601      0.0000 
     26 C8A        68.6440  113.5250  107.2300 C.2       1 B4P601      0.0000 
     27 N7A        68.0330  114.6070  106.7370 N.2       1 B4P601      0.0000 
     28 C5A        67.6290  115.3600  107.7720 C.ar      1 B4P601      0.0000 
     29 C6A        66.9610  116.5570  107.8270 C.ar      1 B4P601      0.0000 
     30 N6A        66.4660  117.4140  106.7550 N.pl3     1 B4P601      0.0000 
     31 N1A        66.6750  117.1050  109.0030 N.ar      1 B4P601      0.0000 
     32 C2A        67.0410  116.4830  110.1430 C.ar      1 B4P601      0.0000 
     33 N3A        67.7010  115.2980  110.0940 N.ar      1 B4P601      0.0000 
     34 C4A        67.9930  114.7390  108.9070 C.ar      1 B4P601      0.0000 
     35 O5F        75.3580  110.9670   99.6390 O.3       1 B4P601      0.0000 
     36 C5F        75.3390  112.2880   99.1840 C.3       1 B4P601      0.0000 
     37 C4F        76.5310  113.0280   99.8840 C.3       1 B4P601      0.0000 
     38 O4F        76.4360  114.3280   99.7490 O.3       1 B4P601      0.0000 
     39 C3F        76.4890  112.7130  101.3790 C.3       1 B4P601      0.0000 
     40 O3F        77.5840  112.0170  101.7120 O.3       1 B4P601      0.0000 
     41 C2F        76.4730  114.0880  102.1190 C.3       1 B4P601      0.0000 
     42 O2F        77.7980  114.3000  102.7940 O.3       1 B4P601      0.0000 
     43 C1F        76.2700  114.9990  101.2270 C.3       1 B4P601      0.0000 
     44 N9B        74.9400  115.5570  101.3500 N.pl3     1 B4P601      0.0000 
     45 C8B        73.8060  114.9280  101.0100 C.2       1 B4P601      0.0000 
     46 N7B        72.7770  115.7540  101.2570 N.2       1 B4P601      0.0000 
     47 C5B        73.2740  116.8880  101.7450 C.ar      1 B4P601      0.0000 
     48 C6B        72.6670  118.0590  102.1620 C.ar      1 B4P601      0.0000 
     49 N6B        71.2490  118.5710  102.2570 N.pl3     1 B4P601      0.0000 
     50 N1B        73.4110  119.0710  102.6200 N.ar      1 B4P601      0.0000 
     51 C2B        74.7700  118.9450  102.6780 C.ar      1 B4P601      0.0000 
     52 N3B        75.3690  117.7920  102.2630 N.ar      1 B4P601      0.0000 
     53 C4B        74.6150  116.7690  101.8020 C.ar      1 B4P601      0.0000 
@<TRIPOS>BOND
     1    1    2 ar   
     2    1    3 ar   
     3    1    4 1    
     4    1   16 1    
     5    4    5 1    
     6    5    6 ar   
     7    5    7 ar   
     8    5    8 1    
     9    8    9 1    
    10    9   10 ar   
    11    9   11 ar   
    12    9   12 1    
    13   12   13 1    
    14   13   14 ar   
    15   13   15 ar   
    16   13   35 1    
    17   16   17 1    
    18   17   18 1    
    19   18   19 1    
    20   18   20 1    
    21   19   24 1    
    22   20   21 1    
    23   20   22 1    
    24   22   23 1    
    25   22   24 1    
    26   24   25 1    
    27   25   26 1    
    28   25   34 1    
    29   26   27 2    
    30   27   28 1    
    31   28   29 ar   
    32   28   34 ar   
    33   29   30 1    
    34   29   31 ar   
    35   31   32 ar   
    36   32   33 ar   
    37   33   34 ar   
    38   35   36 1    
    39   36   37 1    
    40   37   38 1    
    41   37   39 1    
    42   38   43 1    
    43   39   40 1    
    44   39   41 1    
    45   41   42 1    
    46   41   43 1    
    47   43   44 1    
    48   44   45 1    
    49   44   53 1    
    50   45   46 2    
    51   46   47 1    
    52   47   48 ar   
    53   47   53 ar   
    54   48   49 1    
    55   48   50 ar   
    56   50   51 ar   
    57   51   52 ar   
    58   52   53 ar   
@<TRIPOS>SUBSTRUCTURE
     1 B4P601      1 GROUP   
@<TRIPOS>SET

