#    Name: 6m89_1_QUE
#    Modification time : Fri May 22 19:27:24 2020

@<TRIPOS>MOLECULE
6m89_1_QUE
   22    24     1     0     0
SMALL
NO_CHARGES


@<TRIPOS>ATOM
      1 C1          7.2430   24.7990   21.9110 C.ar      1 QUE1001     0.0000 
      2 C2          6.2950   25.8150   21.8110 C.ar      1 QUE1001     0.0000 
      3 C3          5.7980   26.4720   23.0290 C.ar      1 QUE1001     0.0000 
      4 C4          6.3320   26.0020   24.3150 C.ar      1 QUE1001     0.0000 
      5 C5          7.2720   24.9840   24.3270 C.ar      1 QUE1001     0.0000 
      6 C6          7.7170   24.3920   23.1490 C.ar      1 QUE1001     0.0000 
      7 C9          4.7930   27.5570   23.0250 C.2       1 QUE1001     0.0000 
      8 C10         4.3800   28.1430   24.3190 C.2       1 QUE1001     0.0000 
      9 C11         4.9860   27.5970   25.5780 C.2       1 QUE1001     0.0000 
     10 C14         4.6640   28.0640   26.9570 C.ar      1 QUE1001     0.0000 
     11 C15         4.0870   29.3170   27.2370 C.ar      1 QUE1001     0.0000 
     12 C16         3.7940   29.7070   28.5430 C.ar      1 QUE1001     0.0000 
     13 C17         4.0660   28.8550   29.6030 C.ar      1 QUE1001     0.0000 
     14 C18         4.6640   27.5180   29.3200 C.ar      1 QUE1001     0.0000 
     15 C19         4.9410   27.1710   28.0070 C.ar      1 QUE1001     0.0000 
     16 O12         5.9030   26.5660   25.4860 O.3       1 QUE1001     0.0000 
     17 O13         4.3250   27.9690   21.9500 O.2       1 QUE1001     0.0000 
     18 O23         4.9500   26.6300   30.3110 O.3       1 QUE1001     0.0000 
     19 O24         3.7760   29.2520   30.8660 O.3       1 QUE1001     0.0000 
     20 O27         3.4740   29.1470   24.2920 O.co2     1 QUE1001     0.0000 
     21 O29         8.6410   23.3910   23.2110 O.3       1 QUE1001     0.0000 
     22 O30         5.8350   26.1960   20.6110 O.co2     1 QUE1001     0.0000 
@<TRIPOS>BOND
     1    1    2 ar   
     2    1    6 ar   
     3    2    3 ar   
     4    2   22 ar   
     5    3    4 ar   
     6    3    7 1    
     7    4    5 ar   
     8    4   16 1    
     9    5    6 ar   
    10    6   21 1    
    11    7    8 1    
    12    7   17 2    
    13    8    9 2    
    14    8   20 ar   
    15    9   10 1    
    16    9   16 1    
    17   10   11 ar   
    18   10   15 ar   
    19   11   12 ar   
    20   12   13 ar   
    21   13   14 ar   
    22   13   19 1    
    23   14   15 ar   
    24   14   18 1    
@<TRIPOS>SUBSTRUCTURE
     1 QUE1001     1 GROUP   
@<TRIPOS>SET

