#    Name: 6aur_2_H4B_CAVITY_N1_6
#    Modification time : Fri May 22 19:35:08 2020

@<TRIPOS>MOLECULE
6aur_2_H4B_CAVITY_N1_6
   19     0     5     0     0
SMALL
NO_CHARGES


@<TRIPOS>ATOM
      1 N          10.3700    3.1600   54.1100 N.am      1 ALA2        0.0000 
      2 N          10.0200    1.8700   54.7900 N.am      1 ALA2        0.0000 
      3 N          11.1000    5.0400   54.7600 N.am      1 ALA2        0.0000 
      4 N          10.7500    3.7500   55.4400 N.am      1 ALA2        0.0000 
      5 NZ         10.6900   -0.5000   53.9700 N.4       2 LYS4        0.0000 
      6 NZ         12.8300    0.9000   54.4300 N.4       2 LYS4        0.0000 
      7 NZ         11.0700    0.0900   55.2900 N.4       2 LYS4        0.0000 
      8 NZ         13.2100    1.4900   55.7500 N.4       2 LYS4        0.0000 
      9 NZ         11.8000    1.9800   55.9300 N.4       2 LYS4        0.0000 
     10 CZ         12.8100    1.5900   52.4200 C.ar      3 PHE5        0.0000 
     11 CZ         14.5900    1.7000   53.5600 C.ar      3 PHE5        0.0000 
     12 CZ         13.1900    2.1900   53.7500 C.ar      3 PHE5        0.0000 
     13 CZ         11.7800    2.6700   53.9300 C.ar      3 PHE5        0.0000 
     14 CZ         13.5600    2.7800   55.0700 C.ar      3 PHE5        0.0000 
     15 CZ         12.1600    3.2700   55.2500 C.ar      3 PHE5        0.0000 
     16 CA         12.4500    0.3000   53.1000 C.3       4 GLY6        0.0000 
     17 CA         11.4600    6.3300   54.0800 C.3       4 GLY6        0.0000 
     18 DU         11.0500    0.7900   53.2900 H         5 CUB7        0.0000 
     19 DU         11.4200    1.3800   54.6100 H         5 CUB7        0.0000 
@<TRIPOS>BOND
@<TRIPOS>SUBSTRUCTURE
     1 ALA2        1 GROUP   
     2 LYS4        5 GROUP   
     3 PHE5       10 GROUP   
     4 GLY6       16 GROUP   
     5 CUB7       18 GROUP   
@<TRIPOS>SET

