#    Name: 6aur_2_H4B_CAVITY_N1_ALL
#    Modification time : Fri May 22 19:35:08 2020

@<TRIPOS>MOLECULE
6aur_2_H4B_CAVITY_N1_ALL
   78     0     6     0     0
SMALL
NO_CHARGES


@<TRIPOS>ATOM
      1 OG         13.6200    7.0300   56.5400 O.3       1 SER1        0.0000 
      2 N          10.3700    3.1600   54.1100 N.am      2 ALA2        0.0000 
      3 N          10.0200    1.8700   54.7900 N.am      2 ALA2        0.0000 
      4 N           8.2500    1.0600   55.6600 N.am      2 ALA2        0.0000 
      5 N          11.1000    5.0400   54.7600 N.am      2 ALA2        0.0000 
      6 N          10.7500    3.7500   55.4400 N.am      2 ALA2        0.0000 
      7 N           8.9900    2.9500   56.3000 N.am      2 ALA2        0.0000 
      8 N           8.6300    1.6600   56.9800 N.am      2 ALA2        0.0000 
      9 N           8.2700    0.3700   57.6600 N.am      2 ALA2        0.0000 
     10 N           9.3600    3.5400   57.6200 N.am      2 ALA2        0.0000 
     11 N           9.0100    2.2500   58.3000 N.am      2 ALA2        0.0000 
     12 N           8.3300    4.6200   59.1300 N.am      2 ALA2        0.0000 
     13 N           7.9800    3.3300   59.8100 N.am      2 ALA2        0.0000 
     14 NZ         10.6900   -0.5000   53.9700 N.4       3 LYS4        0.0000 
     15 NZ         12.8300    0.9000   54.4300 N.4       3 LYS4        0.0000 
     16 NZ         11.0700    0.0900   55.2900 N.4       3 LYS4        0.0000 
     17 NZ          9.3100   -0.7100   56.1500 N.4       3 LYS4        0.0000 
     18 NZ         13.2100    1.4900   55.7500 N.4       3 LYS4        0.0000 
     19 NZ         11.8000    1.9800   55.9300 N.4       3 LYS4        0.0000 
     20 CZ         12.8100    1.5900   52.4200 C.ar      4 PHE5        0.0000 
     21 CZ         14.5900    1.7000   53.5600 C.ar      4 PHE5        0.0000 
     22 CZ         13.1900    2.1900   53.7500 C.ar      4 PHE5        0.0000 
     23 CZ         11.7800    2.6700   53.9300 C.ar      4 PHE5        0.0000 
     24 CZ         13.5600    2.7800   55.0700 C.ar      4 PHE5        0.0000 
     25 CZ         12.1600    3.2700   55.2500 C.ar      4 PHE5        0.0000 
     26 CZ         13.2400    6.4400   55.2200 C.ar      4 PHE5        0.0000 
     27 CZ         12.8900    5.1500   55.9000 C.ar      4 PHE5        0.0000 
     28 CZ         11.5000    4.9400   58.0900 C.ar      4 PHE5        0.0000 
     29 CZ         10.1000    5.4300   58.2700 C.ar      4 PHE5        0.0000 
     30 CZ         11.1500    3.6500   58.7700 C.ar      4 PHE5        0.0000 
     31 CZ          9.7400    4.1400   58.9500 C.ar      4 PHE5        0.0000 
     32 CZ          6.9200    5.1100   59.3200 C.ar      4 PHE5        0.0000 
     33 CZ          9.3800    2.8500   59.6300 C.ar      4 PHE5        0.0000 
     34 CZ         10.8300    7.3100   58.9100 C.ar      4 PHE5        0.0000 
     35 CZ          9.4200    7.7900   59.1000 C.ar      4 PHE5        0.0000 
     36 CZ          8.0100    8.2800   59.2800 C.ar      4 PHE5        0.0000 
     37 CZ         11.8800    5.5400   59.4100 C.ar      4 PHE5        0.0000 
     38 CZ          9.0600    6.5000   59.7800 C.ar      4 PHE5        0.0000 
     39 CZ          7.6600    6.9900   59.9600 C.ar      4 PHE5        0.0000 
     40 CZ          8.7100    5.2200   60.4600 C.ar      4 PHE5        0.0000 
     41 CZ          7.3000    5.7000   60.6400 C.ar      4 PHE5        0.0000 
     42 CZ          8.3500    3.9300   61.1400 C.ar      4 PHE5        0.0000 
     43 CZ          6.9500    4.4100   61.3200 C.ar      4 PHE5        0.0000 
     44 CA         12.4500    0.3000   53.1000 C.3       5 GLY6        0.0000 
     45 CA          9.2800   -0.0200   54.1500 C.3       5 GLY6        0.0000 
     46 CA          8.6100    2.3500   54.9800 C.3       5 GLY6        0.0000 
     47 CA         11.4600    6.3300   54.0800 C.3       5 GLY6        0.0000 
     48 CA          9.7000    5.5200   54.9400 C.3       5 GLY6        0.0000 
     49 CA          9.3400    4.2400   55.6200 C.3       5 GLY6        0.0000 
     50 CA         11.8400    6.9200   55.4000 C.3       5 GLY6        0.0000 
     51 CA         10.4300    7.4100   55.5800 C.3       5 GLY6        0.0000 
     52 CA         10.0700    6.1200   56.2600 C.3       5 GLY6        0.0000 
     53 CA          8.6700    6.6000   56.4500 C.3       5 GLY6        0.0000 
     54 CA          9.7200    4.8300   56.9400 C.3       5 GLY6        0.0000 
     55 CA         12.2100    7.5200   56.7300 C.3       5 GLY6        0.0000 
     56 CA         10.8100    8.0000   56.9100 C.3       5 GLY6        0.0000 
     57 CA          9.4000    8.4900   57.0900 C.3       5 GLY6        0.0000 
     58 CA          9.0400    7.2000   57.7700 C.3       5 GLY6        0.0000 
     59 CA         12.9100    4.4600   57.9000 C.3       5 GLY6        0.0000 
     60 CA          8.6900    5.9100   58.4500 C.3       5 GLY6        0.0000 
     61 CA          7.2800    6.3900   58.6400 C.3       5 GLY6        0.0000 
     62 CA         11.1800    8.6000   58.2300 C.3       5 GLY6        0.0000 
     63 CA          9.7800    9.0800   58.4200 C.3       5 GLY6        0.0000 
     64 CA         13.6400    6.3400   58.5500 C.3       5 GLY6        0.0000 
     65 CA         12.2400    6.8200   58.7300 C.3       5 GLY6        0.0000 
     66 DU         11.0500    0.7900   53.2900 H         6 CUB7        0.0000 
     67 DU         11.4200    1.3800   54.6100 H         6 CUB7        0.0000 
     68 DU          9.6600    0.5800   55.4700 H         6 CUB7        0.0000 
     69 DU         10.3900    2.4600   56.1200 H         6 CUB7        0.0000 
     70 DU         10.0400    1.1700   56.8000 H         6 CUB7        0.0000 
     71 DU         11.4800    5.6300   56.0800 H         6 CUB7        0.0000 
     72 DU         12.5300    3.8600   56.5800 H         6 CUB7        0.0000 
     73 DU         11.1300    4.3500   56.7600 H         6 CUB7        0.0000 
     74 DU         10.7700    3.0600   57.4400 H         6 CUB7        0.0000 
     75 DU         10.4100    1.7700   58.1200 H         6 CUB7        0.0000 
     76 DU         13.2700    5.7400   57.2200 H         6 CUB7        0.0000 
     77 DU         11.8600    6.2300   57.4100 H         6 CUB7        0.0000 
     78 DU         10.4500    6.7100   57.5900 H         6 CUB7        0.0000 
@<TRIPOS>BOND
@<TRIPOS>SUBSTRUCTURE
     1 SER1        1 GROUP   
     2 ALA2        2 GROUP   
     3 LYS4       14 GROUP   
     4 PHE5       20 GROUP   
     5 GLY6       44 GROUP   
     6 CUB7       66 GROUP   
@<TRIPOS>SET

