#    Name: 6aur_2_H4B_CAVITY_N1_4
#    Modification time : Fri May 22 19:35:08 2020

@<TRIPOS>MOLECULE
6aur_2_H4B_CAVITY_N1_4
    5     0     2     0     0
SMALL
NO_CHARGES


@<TRIPOS>ATOM
      1 CZ         12.8100    1.5900   52.4200 C.ar      1 PHE5        0.0000 
      2 CZ         14.5900    1.7000   53.5600 C.ar      1 PHE5        0.0000 
      3 CZ         13.1900    2.1900   53.7500 C.ar      1 PHE5        0.0000 
      4 CZ         11.7800    2.6700   53.9300 C.ar      1 PHE5        0.0000 
      5 CA         12.4500    0.3000   53.1000 C.3       2 GLY6        0.0000 
@<TRIPOS>BOND
@<TRIPOS>SUBSTRUCTURE
     1 PHE5        1 GROUP   
     2 GLY6        5 GROUP   
@<TRIPOS>SET

