#    Name: 6aur_2_H4B_CAVITY_N1_8
#    Modification time : Fri May 22 19:35:08 2020

@<TRIPOS>MOLECULE
6aur_2_H4B_CAVITY_N1_8
   42     0     6     0     0
SMALL
NO_CHARGES


@<TRIPOS>ATOM
      1 OG         13.6200    7.0300   56.5400 O.3       1 SER1        0.0000 
      2 N          10.3700    3.1600   54.1100 N.am      2 ALA2        0.0000 
      3 N          10.0200    1.8700   54.7900 N.am      2 ALA2        0.0000 
      4 N           8.2500    1.0600   55.6600 N.am      2 ALA2        0.0000 
      5 N          11.1000    5.0400   54.7600 N.am      2 ALA2        0.0000 
      6 N          10.7500    3.7500   55.4400 N.am      2 ALA2        0.0000 
      7 N           8.9900    2.9500   56.3000 N.am      2 ALA2        0.0000 
      8 NZ         10.6900   -0.5000   53.9700 N.4       3 LYS4        0.0000 
      9 NZ         12.8300    0.9000   54.4300 N.4       3 LYS4        0.0000 
     10 NZ         11.0700    0.0900   55.2900 N.4       3 LYS4        0.0000 
     11 NZ          9.3100   -0.7100   56.1500 N.4       3 LYS4        0.0000 
     12 NZ         13.2100    1.4900   55.7500 N.4       3 LYS4        0.0000 
     13 NZ         11.8000    1.9800   55.9300 N.4       3 LYS4        0.0000 
     14 CZ         12.8100    1.5900   52.4200 C.ar      4 PHE5        0.0000 
     15 CZ         14.5900    1.7000   53.5600 C.ar      4 PHE5        0.0000 
     16 CZ         13.1900    2.1900   53.7500 C.ar      4 PHE5        0.0000 
     17 CZ         11.7800    2.6700   53.9300 C.ar      4 PHE5        0.0000 
     18 CZ         13.5600    2.7800   55.0700 C.ar      4 PHE5        0.0000 
     19 CZ         12.1600    3.2700   55.2500 C.ar      4 PHE5        0.0000 
     20 CZ         13.2400    6.4400   55.2200 C.ar      4 PHE5        0.0000 
     21 CZ         12.8900    5.1500   55.9000 C.ar      4 PHE5        0.0000 
     22 CA         12.4500    0.3000   53.1000 C.3       5 GLY6        0.0000 
     23 CA          9.2800   -0.0200   54.1500 C.3       5 GLY6        0.0000 
     24 CA          8.6100    2.3500   54.9800 C.3       5 GLY6        0.0000 
     25 CA         11.4600    6.3300   54.0800 C.3       5 GLY6        0.0000 
     26 CA          9.7000    5.5200   54.9400 C.3       5 GLY6        0.0000 
     27 CA          9.3400    4.2400   55.6200 C.3       5 GLY6        0.0000 
     28 CA         11.8400    6.9200   55.4000 C.3       5 GLY6        0.0000 
     29 CA         10.4300    7.4100   55.5800 C.3       5 GLY6        0.0000 
     30 CA         10.0700    6.1200   56.2600 C.3       5 GLY6        0.0000 
     31 CA          9.7200    4.8300   56.9400 C.3       5 GLY6        0.0000 
     32 CA         12.9100    4.4600   57.9000 C.3       5 GLY6        0.0000 
     33 DU         11.0500    0.7900   53.2900 H         6 CUB7        0.0000 
     34 DU         11.4200    1.3800   54.6100 H         6 CUB7        0.0000 
     35 DU          9.6600    0.5800   55.4700 H         6 CUB7        0.0000 
     36 DU         10.3900    2.4600   56.1200 H         6 CUB7        0.0000 
     37 DU         10.0400    1.1700   56.8000 H         6 CUB7        0.0000 
     38 DU         11.4800    5.6300   56.0800 H         6 CUB7        0.0000 
     39 DU         12.5300    3.8600   56.5800 H         6 CUB7        0.0000 
     40 DU         11.1300    4.3500   56.7600 H         6 CUB7        0.0000 
     41 DU         10.7700    3.0600   57.4400 H         6 CUB7        0.0000 
     42 DU         13.2700    5.7400   57.2200 H         6 CUB7        0.0000 
@<TRIPOS>BOND
@<TRIPOS>SUBSTRUCTURE
     1 SER1        1 GROUP   
     2 ALA2        2 GROUP   
     3 LYS4        8 GROUP   
     4 PHE5       14 GROUP   
     5 GLY6       22 GROUP   
     6 CUB7       33 GROUP   
@<TRIPOS>SET

