#    Name: 6aur_2_H4B
#    Modification time : Fri May 22 19:35:07 2020

@<TRIPOS>MOLECULE
6aur_2_H4B
   17    18     1     0     1
SMALL
NO_CHARGES


@<TRIPOS>ATOM
      1 N1         14.2510    3.3710   48.4940 N.2       1 H4B802      0.0000 
      2 C2         14.3350    2.9360   49.7630 C.2       1 H4B802      0.0000 
      3 N2         13.2630    2.2940   50.2980 N.pl3     1 H4B802      0.0000 
      4 N3         15.4620    3.1420   50.4890 N.am      1 H4B802      0.0000 
      5 C4         16.5250    3.7830   49.9540 C.2       1 H4B802      0.0000 
      6 O4         17.5650    3.9610   50.6340 O.2       1 H4B802      0.0000 
      7 C4A        16.4480    4.2490   48.6530 C.2       1 H4B802      0.0000 
      8 C8A        15.2840    4.0230   47.9230 C.2       1 H4B802      0.0000 
      9 N5         17.4870    4.9160   48.0870 N.3       1 H4B802      0.0000 
     10 N8         15.1360    4.4460   46.6450 N.pl3     1 H4B802      0.0000 
     11 C6         17.1320    5.8050   46.9890 C.3       1 H4B802      0.0000 
     12 C7         16.2570    5.0890   45.9500 C.3       1 H4B802      0.0000 
     13 C9         18.3900    6.4260   46.3830 C.3       1 H4B802      0.0000 
     14 O9         19.3120    5.3830   46.0050 O.3       1 H4B802      0.0000 
     15 C10        18.0680    7.3030   45.1760 C.3       1 H4B802      0.0000 
     16 C11        19.3420    7.9350   44.6120 C.3       1 H4B802      0.0000 
     17 O10        17.1610    8.3450   45.5700 O.3       1 H4B802      0.0000 
@<TRIPOS>BOND
     1    1    2 2    
     2    1    8 1    
     3    2    3 1    
     4    2    4 1    
     5    4    5 am   
     6    5    6 2    
     7    5    7 1    
     8    7    8 2    
     9    7    9 1    
    10    8   10 1    
    11    9   11 1    
    12   10   12 1    
    13   11   12 1    
    14   11   13 1    
    15   13   14 1    
    16   13   15 1    
    17   15   16 1    
    18   15   17 1    
@<TRIPOS>SUBSTRUCTURE
     1 H4B802      1 GROUP   
@<TRIPOS>SET
ATOM$ORANGE STATIC     ATOMS   COLORGROUP SYSTEM 
18 2 2 5 5 7 7 8 8 11 11 12 12 13 13 15 15 16 \
16 

