#    Name: 5zb4_1_TMP
#    Modification time : Fri May 22 19:23:22 2020

@<TRIPOS>MOLECULE
5zb4_1_TMP
   21    22     1     0     0
SMALL
NO_CHARGES


@<TRIPOS>ATOM
      1 P          14.3350   55.2700    3.9240 P.3       1 TMP213      0.0000 
      2 O1P        15.0650   54.7400    2.7050 O.co2     1 TMP213      0.0000 
      3 O2P        13.7390   56.6450    3.7550 O.co2     1 TMP213      0.0000 
      4 O3P        13.3880   54.2430    4.5220 O.co2     1 TMP213      0.0000 
      5 O5'        15.5030   55.5110    5.0520 O.3       1 TMP213      0.0000 
      6 C5'        16.7400   56.2370    4.8000 C.3       1 TMP213      0.0000 
      7 C4'        17.9400   55.5720    5.4520 C.3       1 TMP213      0.0000 
      8 O4'        17.9590   55.7930    6.8850 O.3       1 TMP213      0.0000 
      9 C3'        17.9790   54.0800    5.2780 C.3       1 TMP213      0.0000 
     10 O3'        19.2750   53.5990    4.9370 O.3       1 TMP213      0.0000 
     11 C2'        17.6700   53.5020    6.6260 C.3       1 TMP213      0.0000 
     12 C1'        18.2450   54.5510    7.5480 C.3       1 TMP213      0.0000 
     13 N1         17.6690   54.7160    8.8970 N.am      1 TMP213      0.0000 
     14 C2         18.4730   54.5690   10.0320 C.2       1 TMP213      0.0000 
     15 O2         19.6450   54.2280    9.8710 O.2       1 TMP213      0.0000 
     16 N3         17.9540   54.7980   11.2810 N.am      1 TMP213      0.0000 
     17 C4         16.7060   55.2160   11.4570 C.2       1 TMP213      0.0000 
     18 O4         16.2580   55.4360   12.5820 O.2       1 TMP213      0.0000 
     19 C5         15.8430   55.4020   10.2790 C.2       1 TMP213      0.0000 
     20 C5M        14.4090   55.8460   10.4230 C.3       1 TMP213      0.0000 
     21 C6         16.4010   55.1410    9.0530 C.2       1 TMP213      0.0000 
@<TRIPOS>BOND
     1    1    2 ar   
     2    1    3 ar   
     3    1    4 ar   
     4    1    5 1    
     5    5    6 1    
     6    6    7 1    
     7    7    8 1    
     8    7    9 1    
     9    8   12 1    
    10    9   10 1    
    11    9   11 1    
    12   11   12 1    
    13   12   13 1    
    14   13   14 1    
    15   13   21 1    
    16   14   15 2    
    17   14   16 1    
    18   16   17 1    
    19   17   18 2    
    20   17   19 1    
    21   19   20 1    
    22   19   21 2    
@<TRIPOS>SUBSTRUCTURE
     1 TMP213      1 GROUP   
@<TRIPOS>SET

