#    Name: 5zb4_2_TMP
#    Modification time : Fri May 22 19:23:24 2020

@<TRIPOS>MOLECULE
5zb4_2_TMP
   21    22     1     0     0
SMALL
NO_CHARGES


@<TRIPOS>ATOM
      1 P          24.3370   81.9260   17.6790 P.3       1 TMP209      0.0000 
      2 O1P        24.5320   80.6970   16.7910 O.co2     1 TMP209      0.0000 
      3 O2P        25.3830   82.2050   18.7510 O.co2     1 TMP209      0.0000 
      4 O3P        23.8680   83.1450   16.8970 O.co2     1 TMP209      0.0000 
      5 O5'        23.0330   81.5660   18.5280 O.3       1 TMP209      0.0000 
      6 C5'        23.0790   80.5580   19.5240 C.3       1 TMP209      0.0000 
      7 C4'        21.6820   80.4120   20.0960 C.3       1 TMP209      0.0000 
      8 O4'        21.4170   79.0490   20.3940 O.3       1 TMP209      0.0000 
      9 C3'        21.5410   81.1610   21.4070 C.3       1 TMP209      0.0000 
     10 O3'        20.2630   81.7860   21.3890 O.3       1 TMP209      0.0000 
     11 C2'        21.5290   80.1150   22.4900 C.3       1 TMP209      0.0000 
     12 C1'        21.0140   78.9130   21.7600 C.3       1 TMP209      0.0000 
     13 N1         21.5380   77.6360   22.2190 N.am      1 TMP209      0.0000 
     14 C2         20.6830   76.7230   22.8700 C.2       1 TMP209      0.0000 
     15 O2         19.4770   77.0140   23.0830 O.2       1 TMP209      0.0000 
     16 N3         21.1940   75.5280   23.2510 N.am      1 TMP209      0.0000 
     17 C4         22.4700   75.1620   23.0350 C.2       1 TMP209      0.0000 
     18 O4         22.8820   74.0480   23.3940 O.2       1 TMP209      0.0000 
     19 C5         23.3730   76.0870   22.3620 C.2       1 TMP209      0.0000 
     20 C5M        24.8300   75.7480   22.1090 C.3       1 TMP209      0.0000 
     21 C6         22.8320   77.3130   21.9840 C.2       1 TMP209      0.0000 
@<TRIPOS>BOND
     1    1    2 ar   
     2    1    3 ar   
     3    1    4 ar   
     4    1    5 1    
     5    5    6 1    
     6    6    7 1    
     7    7    8 1    
     8    7    9 1    
     9    8   12 1    
    10    9   10 1    
    11    9   11 1    
    12   11   12 1    
    13   12   13 1    
    14   13   14 1    
    15   13   21 1    
    16   14   15 2    
    17   14   16 1    
    18   16   17 1    
    19   17   18 2    
    20   17   19 1    
    21   19   20 1    
    22   19   21 2    
@<TRIPOS>SUBSTRUCTURE
     1 TMP209      1 GROUP   
@<TRIPOS>SET

