#    Name: 5zb4_1_TMP_CAVITY_N1_4
#    Modification time : Fri May 22 19:23:23 2020

@<TRIPOS>MOLECULE
5zb4_1_TMP_CAVITY_N1_4
   60     0     6     0     0
SMALL
NO_CHARGES


@<TRIPOS>ATOM
      1 O          20.5400   54.3900    8.7500 O.2       1 ALA2        0.0000 
      2 O          21.4500   55.4700    9.2700 O.2       1 ALA2        0.0000 
      3 OD1        15.0300   56.0700    2.0000 O.co2     2 ASP3        0.0000 
      4 OD1        15.3600   55.2100    3.1800 O.co2     2 ASP3        0.0000 
      5 OD1        15.6800   54.3500    4.3700 O.co2     2 ASP3        0.0000 
      6 OD1        15.7700   55.1700    6.8300 O.co2     2 ASP3        0.0000 
      7 OD1        16.1000   54.3200    8.0200 O.co2     2 ASP3        0.0000 
      8 OD1        16.2700   56.2800    3.7100 O.co2     2 ASP3        0.0000 
      9 OD1        16.9200   54.5700    6.0800 O.co2     2 ASP3        0.0000 
     10 OD1        17.2500   53.7100    7.2700 O.co2     2 ASP3        0.0000 
     11 OD1        17.4100   55.6800    2.9500 O.co2     2 ASP3        0.0000 
     12 OD1        17.1800   57.3500    4.2300 O.co2     2 ASP3        0.0000 
     13 OD1        18.0000   57.6100    2.2900 O.co2     2 ASP3        0.0000 
     14 OD1        18.3200   56.7500    3.4800 O.co2     2 ASP3        0.0000 
     15 OD1        17.7600   59.2800    3.5700 O.co2     2 ASP3        0.0000 
     16 OD1        18.0900   58.4300    4.7500 O.co2     2 ASP3        0.0000 
     17 OD1        18.9000   58.6800    2.8100 O.co2     2 ASP3        0.0000 
     18 NZ         17.7400   54.8200    4.1400 N.4       3 LYS4        0.0000 
     19 NZ         18.0700   53.9600    5.3300 N.4       3 LYS4        0.0000 
     20 NZ         18.8900   54.2100    3.3900 N.4       3 LYS4        0.0000 
     21 NZ         19.2200   53.3600    4.5700 N.4       3 LYS4        0.0000 
     22 NZ         20.3800   57.2200    3.2500 N.4       3 LYS4        0.0000 
     23 NZ         20.7100   56.3600    4.4300 N.4       3 LYS4        0.0000 
     24 NZ         21.0300   55.5000    5.6200 N.4       3 LYS4        0.0000 
     25 NZ         21.8500   55.7500    3.6800 N.4       3 LYS4        0.0000 
     26 NZ         20.4700   58.0400    5.7100 N.4       3 LYS4        0.0000 
     27 NZ         22.2700   55.7200    7.3300 N.4       3 LYS4        0.0000 
     28 CZ         17.5800   52.8500    8.4500 C.ar      4 PHE5        0.0000 
     29 CZ         18.4000   53.1100    6.5100 C.ar      4 PHE5        0.0000 
     30 CZ         17.0100   55.3900    8.5400 C.ar      4 PHE5        0.0000 
     31 CZ         17.3400   54.5300    9.7300 C.ar      4 PHE5        0.0000 
     32 CZ         18.1600   54.7800    7.7900 C.ar      4 PHE5        0.0000 
     33 CZ         18.4900   53.9300    8.9800 C.ar      4 PHE5        0.0000 
     34 CZ         19.3100   54.1800    7.0400 C.ar      4 PHE5        0.0000 
     35 CZ         18.7400   56.7100    7.1300 C.ar      4 PHE5        0.0000 
     36 CZ         19.4000   55.0000    9.5000 C.ar      4 PHE5        0.0000 
     37 CZ         19.8900   56.1100    6.3700 C.ar      4 PHE5        0.0000 
     38 CZ         20.2100   55.2500    7.5600 C.ar      4 PHE5        0.0000 
     39 CZ         21.6900   53.7900    7.9900 C.ar      4 PHE5        0.0000 
     40 CZ         20.8000   57.1800    6.9000 C.ar      4 PHE5        0.0000 
     41 CZ         21.1200   56.3200    8.0800 C.ar      4 PHE5        0.0000 
     42 CA         15.4500   56.0300    5.6500 C.3       5 GLY6        0.0000 
     43 CA         16.4300   53.4600    9.2100 C.3       5 GLY6        0.0000 
     44 CA         16.6800   56.2500    7.3600 C.3       5 GLY6        0.0000 
     45 CA         17.5000   56.5000    5.4200 C.3       5 GLY6        0.0000 
     46 CA         20.1300   54.4300    5.1000 C.3       5 GLY6        0.0000 
     47 CA         20.4500   53.5700    6.2800 C.3       5 GLY6        0.0000 
     48 CA         20.9400   54.6800    3.1600 C.3       5 GLY6        0.0000 
     49 CA         18.4100   57.5700    5.9400 C.3       5 GLY6        0.0000 
     50 CA         21.3600   54.6500    6.8100 C.3       5 GLY6        0.0000 
     51 CA         18.9900   59.5000    5.2800 C.3       5 GLY6        0.0000 
     52 CA         19.3200   58.6400    6.4600 C.3       5 GLY6        0.0000 
     53 DU         16.5900   55.4300    4.8900 H         6 CUB7        0.0000 
     54 DU         17.8300   55.6400    6.6000 H         6 CUB7        0.0000 
     55 DU         18.6500   55.8900    4.6600 H         6 CUB7        0.0000 
     56 DU         18.9800   55.0400    5.8500 H         6 CUB7        0.0000 
     57 DU         19.4700   56.1400    2.7200 H         6 CUB7        0.0000 
     58 DU         19.8000   55.2900    3.9100 H         6 CUB7        0.0000 
     59 DU         19.2300   57.8200    4.0000 H         6 CUB7        0.0000 
     60 DU         19.5600   56.9600    5.1900 H         6 CUB7        0.0000 
@<TRIPOS>BOND
@<TRIPOS>SUBSTRUCTURE
     1 ALA2        1 GROUP   
     2 ASP3        3 GROUP   
     3 LYS4       18 GROUP   
     4 PHE5       28 GROUP   
     5 GLY6       42 GROUP   
     6 CUB7       53 GROUP   
@<TRIPOS>SET

