#    Name: 5zb4_2_TMP_CAVITY_N1_ALL
#    Modification time : Fri May 22 19:23:25 2020

@<TRIPOS>MOLECULE
5zb4_2_TMP_CAVITY_N1_ALL
  116     0     6     0     0
SMALL
NO_CHARGES


@<TRIPOS>ATOM
      1 N          15.1400   77.7300   17.6100 N.am      1 ALA2        0.0000 
      2 N          16.2900   77.1300   16.8600 N.am      1 ALA2        0.0000 
      3 N          15.7200   79.6600   16.9500 N.am      1 ALA2        0.0000 
      4 N          16.0500   78.8100   18.1300 N.am      1 ALA2        0.0000 
      5 N          17.2000   78.2000   17.3800 N.am      1 ALA2        0.0000 
      6 O          16.8000   77.9100   22.9700 O.2       1 ALA2        0.0000 
      7 O          17.9400   77.3100   22.2200 O.2       1 ALA2        0.0000 
      8 N          17.7800   80.1300   16.7200 N.am      1 ALA2        0.0000 
      9 N          18.1100   79.2700   17.9000 N.am      1 ALA2        0.0000 
     10 N          18.9300   79.5200   15.9600 N.am      1 ALA2        0.0000 
     11 O          20.0700   78.9200   15.2100 O.2       1 ALA2        0.0000 
     12 N          20.3300   76.9200   23.1700 N.am      1 ALA2        0.0000 
     13 N          20.9800   79.9900   15.7300 N.am      1 ALA2        0.0000 
     14 OD1        14.0800   79.1600   20.8300 O.co2     2 ASP3        0.0000 
     15 OD1        14.4100   78.3000   22.0100 O.co2     2 ASP3        0.0000 
     16 OD1        14.9900   80.2300   21.3500 O.co2     2 ASP3        0.0000 
     17 OD1        15.3200   79.3700   22.5400 O.co2     2 ASP3        0.0000 
     18 OD1        21.5700   81.9200   15.0700 O.co2     2 ASP3        0.0000 
     19 OD1        21.8900   81.0600   16.2600 O.co2     2 ASP3        0.0000 
     20 OD1        21.8200   79.9200   23.0300 O.co2     2 ASP3        0.0000 
     21 OD1        22.6400   80.1700   21.0900 O.co2     2 ASP3        0.0000 
     22 OD1        22.9700   79.3100   22.2800 O.co2     2 ASP3        0.0000 
     23 OD1        22.8000   82.1400   16.7800 O.co2     2 ASP3        0.0000 
     24 OD1        24.2800   80.6700   17.2100 O.co2     2 ASP3        0.0000 
     25 OD1        23.7100   83.2100   17.3000 O.co2     2 ASP3        0.0000 
     26 OD1        24.3700   81.4900   19.6800 O.co2     2 ASP3        0.0000 
     27 OD1        24.6900   80.6400   20.8600 O.co2     2 ASP3        0.0000 
     28 OD1        24.8600   82.6000   16.5500 O.co2     2 ASP3        0.0000 
     29 OD1        25.1900   81.7500   17.7400 O.co2     2 ASP3        0.0000 
     30 OD1        26.3300   81.1400   16.9800 O.co2     2 ASP3        0.0000 
     31 OD1        27.2400   82.2100   17.5000 O.co2     2 ASP3        0.0000 
     32 NZ         14.0000   78.3400   18.3600 N.4       3 LYS4        0.0000 
     33 NZ         16.6200   76.2700   18.0400 N.4       3 LYS4        0.0000 
     34 NZ         15.2300   78.5500   20.0700 N.4       3 LYS4        0.0000 
     35 NZ         15.5600   77.7000   21.2600 N.4       3 LYS4        0.0000 
     36 NZ         16.3800   77.9500   19.3200 N.4       3 LYS4        0.0000 
     37 NZ         16.7100   77.0900   20.5100 N.4       3 LYS4        0.0000 
     38 NZ         17.9600   81.7700   21.6400 N.4       3 LYS4        0.0000 
     39 NZ         19.1100   81.1700   20.8900 N.4       3 LYS4        0.0000 
     40 NZ         20.0200   82.2400   21.4100 N.4       3 LYS4        0.0000 
     41 NZ         20.3400   81.3800   22.6000 N.4       3 LYS4        0.0000 
     42 NZ         20.8400   82.4900   19.4700 N.4       3 LYS4        0.0000 
     43 NZ         21.1600   81.6300   20.6600 N.4       3 LYS4        0.0000 
     44 NZ         21.4900   80.7800   21.8500 N.4       3 LYS4        0.0000 
     45 NZ         22.3100   81.0300   19.9100 N.4       3 LYS4        0.0000 
     46 NZ         22.8900   82.9600   19.2400 N.4       3 LYS4        0.0000 
     47 NZ         23.2200   82.1000   20.4300 N.4       3 LYS4        0.0000 
     48 NZ         24.9500   83.4200   19.0100 N.4       3 LYS4        0.0000 
     49 NZ         25.2800   82.5700   20.2000 N.4       3 LYS4        0.0000 
     50 CZ         17.5300   77.3400   18.5700 C.ar      4 PHE5        0.0000 
     51 CZ         17.8500   76.4900   19.7500 C.ar      4 PHE5        0.0000 
     52 CZ         17.6200   78.1600   21.0300 C.ar      4 PHE5        0.0000 
     53 CZ         18.4400   78.4200   19.0900 C.ar      4 PHE5        0.0000 
     54 CZ         18.7600   77.5600   20.2800 C.ar      4 PHE5        0.0000 
     55 CZ         19.5800   77.8100   18.3400 C.ar      4 PHE5        0.0000 
     56 CZ         20.7300   77.2100   17.5800 C.ar      4 PHE5        0.0000 
     57 CZ         16.2300   80.4500   23.0600 C.ar      4 PHE5        0.0000 
     58 CZ         17.3800   79.8400   22.3100 C.ar      4 PHE5        0.0000 
     59 CZ         18.8500   78.3800   22.7400 C.ar      4 PHE5        0.0000 
     60 CZ         19.6700   78.6300   20.8000 C.ar      4 PHE5        0.0000 
     61 CZ         20.0000   77.7700   21.9900 C.ar      4 PHE5        0.0000 
     62 CZ         20.4900   78.8800   18.8600 C.ar      4 PHE5        0.0000 
     63 CZ         20.8200   78.0300   20.0500 C.ar      4 PHE5        0.0000 
     64 CZ         21.4700   76.3100   22.4200 C.ar      4 PHE5        0.0000 
     65 CZ         18.2900   80.9100   22.8300 C.ar      4 PHE5        0.0000 
     66 CZ         19.4300   80.3100   22.0800 C.ar      4 PHE5        0.0000 
     67 CZ         20.9100   78.8500   22.5100 C.ar      4 PHE5        0.0000 
     68 CZ         21.2400   77.9900   23.7000 C.ar      4 PHE5        0.0000 
     69 CZ         22.0600   78.2400   21.7600 C.ar      4 PHE5        0.0000 
     70 CA         18.6700   76.7400   17.8100 C.3       5 GLY6        0.0000 
     71 CA         19.2500   78.6700   17.1500 C.3       5 GLY6        0.0000 
     72 CA         20.4000   78.0600   16.4000 C.3       5 GLY6        0.0000 
     73 CA         19.5100   81.4500   15.3000 C.3       5 GLY6        0.0000 
     74 CA         20.6600   80.8500   14.5500 C.3       5 GLY6        0.0000 
     75 CA         21.3100   79.1300   16.9200 C.3       5 GLY6        0.0000 
     76 CA         21.6400   78.2800   18.1100 C.3       5 GLY6        0.0000 
     77 CA         22.1300   79.3900   14.9800 C.3       5 GLY6        0.0000 
     78 CA         22.4600   78.5300   16.1700 C.3       5 GLY6        0.0000 
     79 CA         22.3800   77.3800   22.9400 C.3       5 GLY6        0.0000 
     80 CA         22.2200   80.2100   17.4400 C.3       5 GLY6        0.0000 
     81 CA         22.5500   79.3500   18.6300 C.3       5 GLY6        0.0000 
     82 CA         23.2000   77.6400   21.0000 C.3       5 GLY6        0.0000 
     83 CA         23.5300   76.7800   22.1900 C.3       5 GLY6        0.0000 
     84 CA         23.3700   79.6000   16.6900 C.3       5 GLY6        0.0000 
     85 CA         23.2900   78.4600   23.4700 C.3       5 GLY6        0.0000 
     86 CA         23.4600   80.4200   19.1500 C.3       5 GLY6        0.0000 
     87 CA         23.7900   79.5600   20.3400 C.3       5 GLY6        0.0000 
     88 CA         24.1100   78.7100   21.5300 C.3       5 GLY6        0.0000 
     89 CA         25.5100   80.8900   18.9200 C.3       5 GLY6        0.0000 
     90 DU         14.9000   79.4100   18.8900 H         6 CUB7        0.0000 
     91 DU         16.1400   79.6300   20.6000 H         6 CUB7        0.0000 
     92 DU         16.4700   78.7700   21.7800 H         6 CUB7        0.0000 
     93 DU         16.9600   79.8800   18.6600 H         6 CUB7        0.0000 
     94 DU         17.2900   79.0200   19.8400 H         6 CUB7        0.0000 
     95 DU         15.9000   81.3000   21.8700 H         6 CUB7        0.0000 
     96 DU         17.0500   80.7000   21.1200 H         6 CUB7        0.0000 
     97 DU         18.5300   79.2400   21.5500 H         6 CUB7        0.0000 
     98 DU         18.6900   81.2000   17.2400 H         6 CUB7        0.0000 
     99 DU         19.0200   80.3400   18.4300 H         6 CUB7        0.0000 
    100 DU         19.3400   79.4900   19.6100 H         6 CUB7        0.0000 
    101 DU         19.8400   80.6000   16.4900 H         6 CUB7        0.0000 
    102 DU         20.1600   79.7400   17.6700 H         6 CUB7        0.0000 
    103 DU         18.7800   82.0200   19.7000 H         6 CUB7        0.0000 
    104 DU         19.9300   81.4200   18.9500 H         6 CUB7        0.0000 
    105 DU         20.2500   80.5600   20.1400 H         6 CUB7        0.0000 
    106 DU         20.5800   79.7000   21.3200 H         6 CUB7        0.0000 
    107 DU         20.7500   81.6700   17.0100 H         6 CUB7        0.0000 
    108 DU         21.0700   80.8100   18.2000 H         6 CUB7        0.0000 
    109 DU         21.4000   79.9500   19.3800 H         6 CUB7        0.0000 
    110 DU         21.7300   79.1000   20.5700 H         6 CUB7        0.0000 
    111 DU         21.6600   82.7400   17.5300 H         6 CUB7        0.0000 
    112 DU         21.9800   81.8800   18.7200 H         6 CUB7        0.0000 
    113 DU         23.1300   81.2800   17.9700 H         6 CUB7        0.0000 
    114 DU         24.0400   82.3500   18.4900 H         6 CUB7        0.0000 
    115 DU         26.1000   82.8200   18.2600 H         6 CUB7        0.0000 
    116 DU         26.4200   81.9600   19.4500 H         6 CUB7        0.0000 
@<TRIPOS>BOND
@<TRIPOS>SUBSTRUCTURE
     1 ALA2        1 GROUP   
     2 ASP3       14 GROUP   
     3 LYS4       32 GROUP   
     4 PHE5       50 GROUP   
     5 GLY6       70 GROUP   
     6 CUB7       90 GROUP   
@<TRIPOS>SET

