#    Name: 6d5x_2_5AD_CAVITY_N1_8
#    Modification time : Fri May 22 19:28:47 2020

@<TRIPOS>MOLECULE
6d5x_2_5AD_CAVITY_N1_8
   60     0     6     0     0
SMALL
NO_CHARGES


@<TRIPOS>ATOM
      1 N         -44.7300   50.6500   -0.6200 N.am      1 ALA2        0.0000 
      2 N         -44.0700   58.2800   -5.0900 N.am      1 ALA2        0.0000 
      3 O         -43.6600   58.2900   -3.0100 O.2       1 ALA2        0.0000 
      4 N         -42.1800   55.3900   -2.2100 N.am      1 ALA2        0.0000 
      5 OD1       -46.5600   51.7200   -4.5800 O.co2     2 ASP3        0.0000 
      6 OD1       -45.5500   50.6400   -4.7800 O.co2     2 ASP3        0.0000 
      7 OD1       -46.0900   49.9100   -3.5900 O.co2     2 ASP3        0.0000 
      8 OD1       -45.1400   50.6400   -2.7000 O.co2     2 ASP3        0.0000 
      9 NZ        -44.0400   52.1000   -5.0800 N.4       3 LYS4        0.0000 
     10 NZ        -44.5900   51.3700   -3.8900 N.4       3 LYS4        0.0000 
     11 NZ        -44.1200   49.5600   -2.9000 N.4       3 LYS4        0.0000 
     12 NZ        -43.6300   52.1100   -3.0000 N.4       3 LYS4        0.0000 
     13 CZ        -50.1800   49.8900   -1.7100 C.ar      4 PHE5        0.0000 
     14 CZ        -50.7900   50.9900    0.5700 C.ar      4 PHE5        0.0000 
     15 CZ        -49.2200   50.6300   -0.8100 C.ar      4 PHE5        0.0000 
     16 CZ        -47.6600   50.2700   -2.2000 C.ar      4 PHE5        0.0000 
     17 CZ        -48.2100   49.5400   -1.0100 C.ar      4 PHE5        0.0000 
     18 CZ        -46.6400   49.1800   -2.4000 C.ar      4 PHE5        0.0000 
     19 CZ        -49.2800   52.4500    0.2700 C.ar      4 PHE5        0.0000 
     20 CZ        -47.7200   52.0900   -1.1200 C.ar      4 PHE5        0.0000 
     21 CZ        -48.2600   51.3600    0.0800 C.ar      4 PHE5        0.0000 
     22 CZ        -45.6000   52.4600   -3.6900 C.ar      4 PHE5        0.0000 
     23 CZ        -46.1500   51.7300   -2.5000 C.ar      4 PHE5        0.0000 
     24 CZ        -46.7000   51.0000   -1.3100 C.ar      4 PHE5        0.0000 
     25 CZ        -47.2500   50.2700   -0.1200 C.ar      4 PHE5        0.0000 
     26 CZ        -45.6900   49.9200   -1.5100 C.ar      4 PHE5        0.0000 
     27 CZ        -45.1100   55.0100   -3.8000 C.ar      4 PHE5        0.0000 
     28 CZ        -44.6400   53.1900   -2.8000 C.ar      4 PHE5        0.0000 
     29 CZ        -45.1900   52.4600   -1.6100 C.ar      4 PHE5        0.0000 
     30 CZ        -44.1800   51.3800   -1.8100 C.ar      4 PHE5        0.0000 
     31 CZ        -45.1700   56.8300   -2.7100 C.ar      4 PHE5        0.0000 
     32 CZ        -44.1500   55.7400   -2.9100 C.ar      4 PHE5        0.0000 
     33 CZ        -43.6900   53.9300   -1.9100 C.ar      4 PHE5        0.0000 
     34 CZ        -44.2100   57.5600   -1.8200 C.ar      4 PHE5        0.0000 
     35 CZ        -43.1900   56.4800   -2.0200 C.ar      4 PHE5        0.0000 
     36 CZ        -43.7400   55.7500   -0.8300 C.ar      4 PHE5        0.0000 
     37 CZ        -42.7300   54.6600   -1.0200 C.ar      4 PHE5        0.0000 
     38 CA        -45.5200   55.0000   -5.8800 C.3       5 GLY6        0.0000 
     39 CA        -44.5000   53.9200   -6.0800 C.3       5 GLY6        0.0000 
     40 CA        -43.4900   52.8300   -6.2700 C.3       5 GLY6        0.0000 
     41 CA        -44.5600   55.7400   -4.9900 C.3       5 GLY6        0.0000 
     42 CA        -43.5500   54.6500   -5.1900 C.3       5 GLY6        0.0000 
     43 CA        -42.5300   53.5600   -5.3800 C.3       5 GLY6        0.0000 
     44 CA        -43.0800   52.8300   -4.1900 C.3       5 GLY6        0.0000 
     45 CA        -45.0800   59.3700   -4.9000 C.3       5 GLY6        0.0000 
     46 CA        -43.0500   57.2000   -5.2900 C.3       5 GLY6        0.0000 
     47 CA        -43.6000   56.4700   -4.1000 C.3       5 GLY6        0.0000 
     48 CA        -42.0400   56.1100   -5.4900 C.3       5 GLY6        0.0000 
     49 CA        -42.5900   55.3800   -4.2900 C.3       5 GLY6        0.0000 
     50 CA        -41.0200   55.0200   -5.6800 C.3       5 GLY6        0.0000 
     51 CA        -41.5700   54.3000   -4.4900 C.3       5 GLY6        0.0000 
     52 CA        -42.6400   57.2000   -3.2100 C.3       5 GLY6        0.0000 
     53 CA        -41.6300   56.1200   -3.4000 C.3       5 GLY6        0.0000 
     54 DU        -47.1100   51.0000   -3.3900 H         6 CUB7        0.0000 
     55 DU        -45.0500   53.1900   -4.8800 H         6 CUB7        0.0000 
     56 DU        -44.1000   53.9200   -3.9900 H         6 CUB7        0.0000 
     57 DU        -44.6200   57.5600   -3.9000 H         6 CUB7        0.0000 
     58 DU        -43.1400   54.6500   -3.1000 H         6 CUB7        0.0000 
     59 DU        -42.1200   53.5700   -3.3000 H         6 CUB7        0.0000 
     60 DU        -42.6700   52.8400   -2.1100 H         6 CUB7        0.0000 
@<TRIPOS>BOND
@<TRIPOS>SUBSTRUCTURE
     1 ALA2        1 GROUP   
     2 ASP3        5 GROUP   
     3 LYS4        9 GROUP   
     4 PHE5       13 GROUP   
     5 GLY6       38 GROUP   
     6 CUB7       54 GROUP   
@<TRIPOS>SET

