#    Name: 6d5x_1_5AD
#    Modification time : Fri May 22 19:28:41 2020

@<TRIPOS>MOLECULE
6d5x_1_5AD
   18    20     1     0     0
SMALL
NO_CHARGES


@<TRIPOS>ATOM
      1 N1        -26.2880   52.1150  -16.5090 N.ar      1 5AD301      0.0000 
      2 C2        -25.5580   51.4400  -17.4010 C.ar      1 5AD301      0.0000 
      3 N3        -24.2820   51.6230  -17.7500 N.ar      1 5AD301      0.0000 
      4 C4        -23.7380   52.6430  -17.0680 C.ar      1 5AD301      0.0000 
      5 N9        -22.4520   53.1150  -17.1650 N.pl3     1 5AD301      0.0000 
      6 C8        -22.3800   54.1580  -16.2780 C.2       1 5AD301      0.0000 
      7 N7        -23.4930   54.3920  -15.6260 N.2       1 5AD301      0.0000 
      8 C5        -24.3670   53.4280  -16.1240 C.ar      1 5AD301      0.0000 
      9 C6        -25.7120   53.1360  -15.8330 C.ar      1 5AD301      0.0000 
     10 N6        -26.4380   53.7920  -14.9260 N.pl3     1 5AD301      0.0000 
     11 C1'       -21.3880   52.6090  -18.0190 C.3       1 5AD301      0.0000 
     12 C2'       -20.3530   53.6670  -18.4240 C.3       1 5AD301      0.0000 
     13 C3'       -19.2470   53.4130  -17.4030 C.3       1 5AD301      0.0000 
     14 C4'       -19.2910   51.8940  -17.3440 C.3       1 5AD301      0.0000 
     15 C5'       -18.6050   51.2590  -16.1580 C.3       1 5AD301      0.0000 
     16 O4'       -20.6980   51.5850  -17.3180 O.3       1 5AD301      0.0000 
     17 O2'       -19.9000   53.3820  -19.7410 O.3       1 5AD301      0.0000 
     18 O3'       -17.9720   53.8350  -17.8680 O.3       1 5AD301      0.0000 
@<TRIPOS>BOND
     1    4    8 ar   
     2    5    6 1    
     3    5   11 1    
     4    6    7 2    
     5    7    8 1    
     6    8    9 ar   
     7    9   10 1    
     8   11   12 1    
     9   11   16 1    
    10   12   13 1    
    11   12   17 1    
    12   13   14 1    
    13   13   18 1    
    14   14   15 1    
    15   14   16 1    
    16    1    2 ar   
    17    1    9 ar   
    18    2    3 ar   
    19    3    4 ar   
    20    4    5 1    
@<TRIPOS>SUBSTRUCTURE
     1 5AD301      1 GROUP   
@<TRIPOS>SET

