#    Name: 6d5x_2_5AD
#    Modification time : Fri May 22 19:28:46 2020

@<TRIPOS>MOLECULE
6d5x_2_5AD
   18    20     1     0     0
SMALL
NO_CHARGES


@<TRIPOS>ATOM
      1 N1        -45.9980   52.2500  -12.0490 N.ar      1 5AD301      0.0000 
      2 C2        -45.5900   53.2890  -11.3150 C.ar      1 5AD301      0.0000 
      3 N3        -46.3230   54.1790  -10.6400 N.ar      1 5AD301      0.0000 
      4 C4        -47.6310   53.9220  -10.7710 C.ar      1 5AD301      0.0000 
      5 N9        -48.6780   54.6110  -10.2100 N.pl3     1 5AD301      0.0000 
      6 C8        -49.8140   53.9690  -10.6310 C.2       1 5AD301      0.0000 
      7 N7        -49.5860   52.9340  -11.4020 N.2       1 5AD301      0.0000 
      8 C5        -48.2030   52.8900  -11.4980 C.ar      1 5AD301      0.0000 
      9 C6        -47.3240   52.0150  -12.1640 C.ar      1 5AD301      0.0000 
     10 N6        -47.7280   50.9670  -12.8860 N.pl3     1 5AD301      0.0000 
     11 C1'       -48.5950   55.7700   -9.3270 C.3       1 5AD301      0.0000 
     12 C2'       -49.9310   56.4990   -9.1120 C.3       1 5AD301      0.0000 
     13 C3'       -50.3380   56.0410   -7.7100 C.3       1 5AD301      0.0000 
     14 C4'       -48.9900   55.8480   -7.0270 C.3       1 5AD301      0.0000 
     15 C5'       -48.9800   54.8950   -5.8530 C.3       1 5AD301      0.0000 
     16 O4'       -48.1290   55.3360   -8.0610 O.3       1 5AD301      0.0000 
     17 O2'       -49.7480   57.9090   -9.1800 O.3       1 5AD301      0.0000 
     18 O3'       -51.0690   57.0500   -7.0210 O.3       1 5AD301      0.0000 
@<TRIPOS>BOND
     1    1    2 ar   
     2    1    9 ar   
     3    2    3 ar   
     4    3    4 ar   
     5    4    5 1    
     6    4    8 ar   
     7    5    6 1    
     8    5   11 1    
     9    6    7 2    
    10    7    8 1    
    11    8    9 ar   
    12    9   10 1    
    13   11   12 1    
    14   11   16 1    
    15   12   13 1    
    16   12   17 1    
    17   13   14 1    
    18   13   18 1    
    19   14   15 1    
    20   14   16 1    
@<TRIPOS>SUBSTRUCTURE
     1 5AD301      1 GROUP   
@<TRIPOS>SET

