#    Name: 6d5x_1_5AD_CAVITY_N1_4
#    Modification time : Fri May 22 19:28:43 2020

@<TRIPOS>MOLECULE
6d5x_1_5AD_CAVITY_N1_4
   10     0     4     0     0
SMALL
NO_CHARGES


@<TRIPOS>ATOM
      1 OD1       -21.5200   48.1900  -15.9800 O.co2     1 ASP3        0.0000 
      2 OD1       -20.5600   48.9200  -15.0900 O.co2     1 ASP3        0.0000 
      3 CZ        -19.0000   48.5600  -16.4800 C.ar      2 PHE5        0.0000 
      4 CZ        -17.9800   47.4800  -16.6800 C.ar      2 PHE5        0.0000 
      5 CZ        -18.5900   48.5700  -14.4000 C.ar      2 PHE5        0.0000 
      6 CA        -18.3100   50.0200  -20.9500 C.3       3 GLY6        0.0000 
      7 CA        -19.4100   48.5600  -18.5600 C.3       3 GLY6        0.0000 
      8 DU        -18.8600   49.2900  -19.7500 H         4 CUB7        0.0000 
      9 DU        -19.9600   47.8300  -17.3700 H         4 CUB7        0.0000 
     10 DU        -19.5500   47.8400  -15.2900 H         4 CUB7        0.0000 
@<TRIPOS>BOND
@<TRIPOS>SUBSTRUCTURE
     1 ASP3        1 GROUP   
     2 PHE5        3 GROUP   
     3 GLY6        6 GROUP   
     4 CUB7        8 GROUP   
@<TRIPOS>SET

