#    Name: 6d5x_2_5AD_CAVITY_N1_6
#    Modification time : Fri May 22 19:28:47 2020

@<TRIPOS>MOLECULE
6d5x_2_5AD_CAVITY_N1_6
   23     0     6     0     0
SMALL
NO_CHARGES


@<TRIPOS>ATOM
      1 N         -44.0700   58.2800   -5.0900 N.am      1 ALA2        0.0000 
      2 OD1       -46.5600   51.7200   -4.5800 O.co2     2 ASP3        0.0000 
      3 OD1       -45.5500   50.6400   -4.7800 O.co2     2 ASP3        0.0000 
      4 NZ        -44.0400   52.1000   -5.0800 N.4       3 LYS4        0.0000 
      5 NZ        -44.5900   51.3700   -3.8900 N.4       3 LYS4        0.0000 
      6 CZ        -47.7200   52.0900   -1.1200 C.ar      4 PHE5        0.0000 
      7 CZ        -45.6000   52.4600   -3.6900 C.ar      4 PHE5        0.0000 
      8 CZ        -46.1500   51.7300   -2.5000 C.ar      4 PHE5        0.0000 
      9 CZ        -45.1100   55.0100   -3.8000 C.ar      4 PHE5        0.0000 
     10 CZ        -44.6400   53.1900   -2.8000 C.ar      4 PHE5        0.0000 
     11 CZ        -45.1700   56.8300   -2.7100 C.ar      4 PHE5        0.0000 
     12 CZ        -44.1500   55.7400   -2.9100 C.ar      4 PHE5        0.0000 
     13 CA        -45.5200   55.0000   -5.8800 C.3       5 GLY6        0.0000 
     14 CA        -44.5000   53.9200   -6.0800 C.3       5 GLY6        0.0000 
     15 CA        -43.4900   52.8300   -6.2700 C.3       5 GLY6        0.0000 
     16 CA        -44.5600   55.7400   -4.9900 C.3       5 GLY6        0.0000 
     17 CA        -43.5500   54.6500   -5.1900 C.3       5 GLY6        0.0000 
     18 CA        -45.0800   59.3700   -4.9000 C.3       5 GLY6        0.0000 
     19 CA        -43.6000   56.4700   -4.1000 C.3       5 GLY6        0.0000 
     20 DU        -47.1100   51.0000   -3.3900 H         6 CUB7        0.0000 
     21 DU        -45.0500   53.1900   -4.8800 H         6 CUB7        0.0000 
     22 DU        -44.1000   53.9200   -3.9900 H         6 CUB7        0.0000 
     23 DU        -44.6200   57.5600   -3.9000 H         6 CUB7        0.0000 
@<TRIPOS>BOND
@<TRIPOS>SUBSTRUCTURE
     1 ALA2        1 GROUP   
     2 ASP3        2 GROUP   
     3 LYS4        4 GROUP   
     4 PHE5        6 GROUP   
     5 GLY6       13 GROUP   
     6 CUB7       20 GROUP   
@<TRIPOS>SET

