#    Name: 6d5x_1_5AD_CAVITY_N1_ALL
#    Modification time : Fri May 22 19:28:43 2020

@<TRIPOS>MOLECULE
6d5x_1_5AD_CAVITY_N1_ALL
   93     0     7     0     0
SMALL
NO_CHARGES


@<TRIPOS>ATOM
      1 OG        -16.7700   45.2900  -21.2300 O.3       1 SER1        0.0000 
      2 OG        -14.7200   47.4800  -22.7300 O.3       1 SER1        0.0000 
      3 OG        -15.2600   46.7600  -21.5400 O.3       1 SER1        0.0000 
      4 N         -18.8000   47.4700  -20.8400 N.am      2 ALA2        0.0000 
      5 N         -17.2400   47.1100  -22.2300 N.am      2 ALA2        0.0000 
      6 N         -17.7900   46.3800  -21.0400 N.am      2 ALA2        0.0000 
      7 N         -17.3200   44.5600  -20.0400 N.am      2 ALA2        0.0000 
      8 N         -17.6000   43.1200  -13.5000 N.am      2 ALA2        0.0000 
      9 O         -16.6400   43.8500  -12.6100 O.2       2 ALA2        0.0000 
     10 N         -14.1800   46.0500  -12.0200 N.am      2 ALA2        0.0000 
     11 N         -13.2200   46.7800  -11.1300 N.am      2 ALA2        0.0000 
     12 OD1       -21.5200   48.1900  -15.9800 O.co2     3 ASP3        0.0000 
     13 OD1       -20.1200   42.7400  -13.0000 O.co2     3 ASP3        0.0000 
     14 OD1       -20.5600   48.9200  -15.0900 O.co2     3 ASP3        0.0000 
     15 OD1       -21.1100   48.2000  -13.9000 O.co2     3 ASP3        0.0000 
     16 OD1       -20.1000   47.1100  -14.1000 O.co2     3 ASP3        0.0000 
     17 OD1       -19.6300   45.2900  -13.1100 O.co2     3 ASP3        0.0000 
     18 OD1       -20.1800   44.5700  -11.9100 O.co2     3 ASP3        0.0000 
     19 OD1       -19.6900   47.1100  -12.0200 O.co2     3 ASP3        0.0000 
     20 NZ        -20.9400   42.7300  -17.1600 N.4       4 LYS4        0.0000 
     21 NZ        -21.4900   42.0000  -15.9700 N.4       4 LYS4        0.0000 
     22 NZ        -21.4600   46.3700  -17.0700 N.4       4 LYS4        0.0000 
     23 NZ        -21.0000   44.5500  -16.0800 N.4       4 LYS4        0.0000 
     24 NZ        -20.5300   42.7400  -15.0800 N.4       4 LYS4        0.0000 
     25 NZ        -21.0500   46.3700  -14.9900 N.4       4 LYS4        0.0000 
     26 NZ        -20.0400   45.2900  -15.1900 N.4       4 LYS4        0.0000 
     27 NZ        -20.5900   44.5600  -14.0000 N.4       4 LYS4        0.0000 
     28 CZ        -18.3900   47.4700  -18.7600 C.ar      5 PHE5        0.0000 
     29 CZ        -18.9400   46.7400  -17.5700 C.ar      5 PHE5        0.0000 
     30 CZ        -19.4900   46.0200  -16.3800 C.ar      5 PHE5        0.0000 
     31 CZ        -16.8300   47.1100  -20.1500 C.ar      5 PHE5        0.0000 
     32 CZ        -17.3800   46.3900  -18.9600 C.ar      5 PHE5        0.0000 
     33 CZ        -17.9300   45.6600  -17.7700 C.ar      5 PHE5        0.0000 
     34 CZ        -18.4800   44.9300  -16.5700 C.ar      5 PHE5        0.0000 
     35 CZ        -19.0200   44.2000  -15.3800 C.ar      5 PHE5        0.0000 
     36 CZ        -15.8100   46.0300  -20.3400 C.ar      5 PHE5        0.0000 
     37 CZ        -18.0100   43.1100  -15.5800 C.ar      5 PHE5        0.0000 
     38 CZ        -19.0000   48.5600  -16.4800 C.ar      5 PHE5        0.0000 
     39 CZ        -17.9800   47.4800  -16.6800 C.ar      5 PHE5        0.0000 
     40 CZ        -18.5300   46.7500  -15.4900 C.ar      5 PHE5        0.0000 
     41 CZ        -19.0800   46.0200  -14.3000 C.ar      5 PHE5        0.0000 
     42 CZ        -14.7700   49.3000  -21.6400 C.ar      5 PHE5        0.0000 
     43 CZ        -15.3200   48.5800  -20.4500 C.ar      5 PHE5        0.0000 
     44 CZ        -18.0700   44.9300  -14.4900 C.ar      5 PHE5        0.0000 
     45 CZ        -18.6200   44.2100  -13.3000 C.ar      5 PHE5        0.0000 
     46 CZ        -19.1600   43.4800  -12.1100 C.ar      5 PHE5        0.0000 
     47 CZ        -14.3100   47.4900  -20.6400 C.ar      5 PHE5        0.0000 
     48 CZ        -18.5900   48.5700  -14.4000 C.ar      5 PHE5        0.0000 
     49 CZ        -20.2400   46.3900  -10.8300 C.ar      5 PHE5        0.0000 
     50 CZ        -18.1200   46.7600  -13.4100 C.ar      5 PHE5        0.0000 
     51 CZ        -18.6700   46.0300  -12.2200 C.ar      5 PHE5        0.0000 
     52 CZ        -17.6600   44.9400  -12.4100 C.ar      5 PHE5        0.0000 
     53 CZ        -17.7100   46.7600  -11.3200 C.ar      5 PHE5        0.0000 
     54 CZ        -16.1500   46.4000  -12.7100 C.ar      5 PHE5        0.0000 
     55 CZ        -16.7000   45.6700  -11.5200 C.ar      5 PHE5        0.0000 
     56 CZ        -15.1300   45.3200  -12.9100 C.ar      5 PHE5        0.0000 
     57 CZ        -15.6800   44.5900  -11.7200 C.ar      5 PHE5        0.0000 
     58 CZ        -15.7400   46.4100  -10.6300 C.ar      5 PHE5        0.0000 
     59 CZ        -14.7300   45.3200  -10.8300 C.ar      5 PHE5        0.0000 
     60 CA        -22.4200   45.6300  -17.9600 C.3       6 GLY6        0.0000 
     61 CA        -20.3100   46.0000  -20.5400 C.3       6 GLY6        0.0000 
     62 CA        -20.8600   45.2800  -19.3500 C.3       6 GLY6        0.0000 
     63 CA        -21.4100   44.5500  -18.1600 C.3       6 GLY6        0.0000 
     64 CA        -21.9600   43.8200  -16.9700 C.3       6 GLY6        0.0000 
     65 CA        -19.2900   44.9200  -20.7400 C.3       6 GLY6        0.0000 
     66 CA        -19.8200   48.5500  -20.6400 C.3       6 GLY6        0.0000 
     67 CA        -20.9100   47.1000  -18.2600 C.3       6 GLY6        0.0000 
     68 CA        -18.2500   48.1900  -22.0300 C.3       6 GLY6        0.0000 
     69 CA        -19.3500   46.7400  -19.6500 C.3       6 GLY6        0.0000 
     70 CA        -19.9000   46.0100  -18.4600 C.3       6 GLY6        0.0000 
     71 CA        -16.6900   47.8400  -23.4200 C.3       6 GLY6        0.0000 
     72 CA        -18.3400   45.6500  -19.8500 C.3       6 GLY6        0.0000 
     73 CA        -17.8700   43.8400  -18.8500 C.3       6 GLY6        0.0000 
     74 CA        -18.4200   43.1100  -17.6600 C.3       6 GLY6        0.0000 
     75 CA        -18.3100   50.0200  -20.9500 C.3       6 GLY6        0.0000 
     76 CA        -19.4100   48.5600  -18.5600 C.3       6 GLY6        0.0000 
     77 CA        -16.7500   49.6600  -22.3300 C.3       6 GLY6        0.0000 
     78 CA        -17.2900   48.9300  -21.1400 C.3       6 GLY6        0.0000 
     79 CA        -15.7300   48.5700  -22.5300 C.3       6 GLY6        0.0000 
     80 CA        -16.2800   47.8400  -21.3400 C.3       6 GLY6        0.0000 
     81 DU        -20.4500   45.2800  -17.2700 H         7 CUB7        0.0000 
     82 DU        -18.8800   44.9200  -18.6600 H         7 CUB7        0.0000 
     83 DU        -19.4300   44.2000  -17.4700 H         7 CUB7        0.0000 
     84 DU        -19.9800   43.4700  -16.2700 H         7 CUB7        0.0000 
     85 DU        -18.8600   49.2900  -19.7500 H         7 CUB7        0.0000 
     86 DU        -19.9600   47.8300  -17.3700 H         7 CUB7        0.0000 
     87 DU        -20.5100   47.1000  -16.1800 H         7 CUB7        0.0000 
     88 DU        -17.8400   48.2000  -19.9500 H         7 CUB7        0.0000 
     89 DU        -19.5700   43.4700  -14.1900 H         7 CUB7        0.0000 
     90 DU        -19.5500   47.8400  -15.2900 H         7 CUB7        0.0000 
     91 DU        -19.1400   47.8400  -13.2100 H         7 CUB7        0.0000 
     92 DU        -17.1600   47.4900  -12.5200 H         7 CUB7        0.0000 
     93 DU        -15.1900   47.1400  -11.8200 H         7 CUB7        0.0000 
@<TRIPOS>BOND
@<TRIPOS>SUBSTRUCTURE
     1 SER1        1 GROUP   
     2 ALA2        4 GROUP   
     3 ASP3       12 GROUP   
     4 LYS4       20 GROUP   
     5 PHE5       28 GROUP   
     6 GLY6       60 GROUP   
     7 CUB7       81 GROUP   
@<TRIPOS>SET

