#    Name: 6d5x_3_ATP_CAVITY_N1_12
#    Modification time : Fri May 22 19:28:54 2020

@<TRIPOS>MOLECULE
6d5x_3_ATP_CAVITY_N1_12
  101     0     7     0     0
SMALL
NO_CHARGES


@<TRIPOS>ATOM
      1 OG        -48.0400   33.4900  -25.8600 O.3       1 SER1        0.0000 
      2 N         -44.9700   24.0400  -26.4400 N.am      2 ALA2        0.0000 
      3 N         -44.0100   24.7800  -25.5500 N.am      2 ALA2        0.0000 
      4 N         -40.3300   24.7900  -29.5200 N.am      2 ALA2        0.0000 
      5 N         -48.5900   32.7600  -24.6700 N.am      2 ALA2        0.0000 
      6 O         -47.5700   31.6700  -24.8700 O.2       2 ALA2        0.0000 
      7 N         -47.6300   33.5000  -23.7800 N.am      2 ALA2        0.0000 
      8 N         -46.6200   32.4100  -23.9800 N.am      2 ALA2        0.0000 
      9 N         -45.6000   31.3200  -24.1700 N.am      2 ALA2        0.0000 
     10 N         -46.6700   34.2300  -22.8900 N.am      2 ALA2        0.0000 
     11 N         -47.2200   33.5000  -21.7000 N.am      2 ALA2        0.0000 
     12 N         -45.6600   33.1400  -23.0900 N.am      2 ALA2        0.0000 
     13 N         -44.6400   32.0600  -23.2800 N.am      2 ALA2        0.0000 
     14 N         -45.1900   31.3300  -22.0900 N.am      2 ALA2        0.0000 
     15 N         -44.1800   30.2400  -22.2900 N.am      2 ALA2        0.0000 
     16 N         -43.1600   29.1500  -22.4900 N.am      2 ALA2        0.0000 
     17 N         -46.7300   36.0500  -21.8000 N.am      2 ALA2        0.0000 
     18 N         -42.2000   29.8900  -21.6000 N.am      2 ALA2        0.0000 
     19 OD1       -41.4600   29.5200  -27.1500 O.co2     3 ASP3        0.0000 
     20 OD1       -40.4400   28.4300  -27.3400 O.co2     3 ASP3        0.0000 
     21 OD1       -41.9800   33.1500  -27.0500 O.co2     3 ASP3        0.0000 
     22 OD1       -42.5300   32.4200  -25.8600 O.co2     3 ASP3        0.0000 
     23 OD1       -40.9700   32.0700  -27.2500 O.co2     3 ASP3        0.0000 
     24 OD1       -41.5200   31.3400  -26.0600 O.co2     3 ASP3        0.0000 
     25 OD1       -42.0600   30.6100  -24.8700 O.co2     3 ASP3        0.0000 
     26 OD1       -41.0500   29.5200  -25.0700 O.co2     3 ASP3        0.0000 
     27 OD1       -40.0300   28.4400  -25.2600 O.co2     3 ASP3        0.0000 
     28 OD1       -41.5700   33.1600  -24.9700 O.co2     3 ASP3        0.0000 
     29 OD1       -42.1200   32.4300  -23.7800 O.co2     3 ASP3        0.0000 
     30 OD1       -41.6500   30.6200  -22.7900 O.co2     3 ASP3        0.0000 
     31 NZ        -45.1700   35.6900  -23.1900 N.4       4 LYS4        0.0000 
     32 NZ        -45.7100   34.9600  -22.0000 N.4       4 LYS4        0.0000 
     33 NZ        -44.1500   34.6000  -23.3900 N.4       4 LYS4        0.0000 
     34 NZ        -43.1400   33.5200  -23.5800 N.4       4 LYS4        0.0000 
     35 NZ        -42.6700   31.7000  -22.5900 N.4       4 LYS4        0.0000 
     36 NZ        -43.2200   30.9700  -21.4000 N.4       4 LYS4        0.0000 
     37 CZ        -45.9800   25.1300  -26.2500 C.ar      5 PHE5        0.0000 
     38 CZ        -44.4700   26.5900  -26.5500 C.ar      5 PHE5        0.0000 
     39 CZ        -45.0200   25.8700  -25.3500 C.ar      5 PHE5        0.0000 
     40 CZ        -44.5300   28.4100  -25.4600 C.ar      5 PHE5        0.0000 
     41 CZ        -43.5100   27.3300  -25.6600 C.ar      5 PHE5        0.0000 
     42 CZ        -42.5000   26.2400  -25.8500 C.ar      5 PHE5        0.0000 
     43 CZ        -43.0500   25.5100  -24.6600 C.ar      5 PHE5        0.0000 
     44 CZ        -40.9400   25.8800  -27.2400 C.ar      5 PHE5        0.0000 
     45 CZ        -44.5900   30.2300  -24.3700 C.ar      5 PHE5        0.0000 
     46 CZ        -45.1400   29.5100  -23.1800 C.ar      5 PHE5        0.0000 
     47 CZ        -43.5700   29.1500  -24.5700 C.ar      5 PHE5        0.0000 
     48 CZ        -42.5600   28.0600  -24.7600 C.ar      5 PHE5        0.0000 
     49 CZ        -43.1100   27.3300  -23.5700 C.ar      5 PHE5        0.0000 
     50 CZ        -40.9900   27.7000  -26.1500 C.ar      5 PHE5        0.0000 
     51 CZ        -41.5400   26.9700  -24.9600 C.ar      5 PHE5        0.0000 
     52 CZ        -39.9800   26.6200  -26.3500 C.ar      5 PHE5        0.0000 
     53 CZ        -38.9600   25.5300  -26.5500 C.ar      5 PHE5        0.0000 
     54 CZ        -41.6000   28.7900  -23.8700 C.ar      5 PHE5        0.0000 
     55 CZ        -42.1500   28.0700  -22.6800 C.ar      5 PHE5        0.0000 
     56 CZ        -39.0200   27.3500  -25.4600 C.ar      5 PHE5        0.0000 
     57 CZ        -40.6400   29.5300  -22.9800 C.ar      5 PHE5        0.0000 
     58 CA        -44.9100   22.2200  -27.5300 C.3       6 GLY6        0.0000 
     59 CA        -43.9500   22.9600  -26.6400 C.3       6 GLY6        0.0000 
     60 CA        -42.3900   22.6000  -28.0300 C.3       6 GLY6        0.0000 
     61 CA        -41.3700   21.5100  -28.2200 C.3       6 GLY6        0.0000 
     62 CA        -42.4400   24.4200  -26.9400 C.3       6 GLY6        0.0000 
     63 CA        -41.4300   23.3300  -27.1400 C.3       6 GLY6        0.0000 
     64 CA        -39.3200   23.7000  -29.7100 C.3       6 GLY6        0.0000 
     65 CA        -39.8600   22.9700  -28.5200 C.3       6 GLY6        0.0000 
     66 CA        -40.4100   22.2500  -27.3300 C.3       6 GLY6        0.0000 
     67 CA        -38.8500   21.8900  -28.7200 C.3       6 GLY6        0.0000 
     68 CA        -39.4000   21.1600  -27.5300 C.3       6 GLY6        0.0000 
     69 CA        -41.4800   25.1500  -26.0500 C.3       6 GLY6        0.0000 
     70 CA        -39.3700   25.5200  -28.6300 C.3       6 GLY6        0.0000 
     71 CA        -39.9200   24.8000  -27.4400 C.3       6 GLY6        0.0000 
     72 CA        -40.4700   24.0700  -26.2400 C.3       6 GLY6        0.0000 
     73 CA        -38.9100   23.7100  -27.6300 C.3       6 GLY6        0.0000 
     74 CA        -39.4500   22.9800  -26.4400 C.3       6 GLY6        0.0000 
     75 CA        -48.1000   35.3100  -24.7800 C.3       6 GLY6        0.0000 
     76 CA        -37.9500   24.4400  -26.7400 C.3       6 GLY6        0.0000 
     77 CA        -47.1400   36.0400  -23.8900 C.3       6 GLY6        0.0000 
     78 CA        -47.6900   35.3200  -22.6900 C.3       6 GLY6        0.0000 
     79 CA        -46.1200   34.9600  -24.0800 C.3       6 GLY6        0.0000 
     80 DU        -44.4200   24.7700  -27.6300 H         7 CUB7        0.0000 
     81 DU        -40.8200   22.2400  -29.4100 H         7 CUB7        0.0000 
     82 DU        -39.8100   21.1500  -29.6100 H         7 CUB7        0.0000 
     83 DU        -42.9100   26.2300  -27.9300 H         7 CUB7        0.0000 
     84 DU        -43.4600   25.5100  -26.7400 H         7 CUB7        0.0000 
     85 DU        -41.8900   25.1500  -28.1300 H         7 CUB7        0.0000 
     86 DU        -40.8800   24.0600  -28.3300 H         7 CUB7        0.0000 
     87 DU        -47.0300   32.4000  -26.0600 H         7 CUB7        0.0000 
     88 DU        -42.9700   28.0600  -26.8500 H         7 CUB7        0.0000 
     89 DU        -41.9500   26.9700  -27.0400 H         7 CUB7        0.0000 
     90 DU        -47.0800   34.2200  -24.9700 H         7 CUB7        0.0000 
     91 DU        -46.0700   33.1400  -25.1700 H         7 CUB7        0.0000 
     92 DU        -45.0500   32.0500  -25.3700 H         7 CUB7        0.0000 
     93 DU        -44.0400   30.9600  -25.5600 H         7 CUB7        0.0000 
     94 DU        -42.4700   30.6000  -26.9500 H         7 CUB7        0.0000 
     95 DU        -43.0200   29.8800  -25.7600 H         7 CUB7        0.0000 
     96 DU        -42.0100   28.7900  -25.9600 H         7 CUB7        0.0000 
     97 DU        -45.1100   33.8700  -24.2800 H         7 CUB7        0.0000 
     98 DU        -44.0900   32.7800  -24.4800 H         7 CUB7        0.0000 
     99 DU        -43.0800   31.7000  -24.6700 H         7 CUB7        0.0000 
    100 DU        -43.6300   30.9700  -23.4800 H         7 CUB7        0.0000 
    101 DU        -42.6100   29.8800  -23.6800 H         7 CUB7        0.0000 
@<TRIPOS>BOND
@<TRIPOS>SUBSTRUCTURE
     1 SER1        1 GROUP   
     2 ALA2        2 GROUP   
     3 ASP3       19 GROUP   
     4 LYS4       31 GROUP   
     5 PHE5       37 GROUP   
     6 GLY6       58 GROUP   
     7 CUB7       80 GROUP   
@<TRIPOS>SET

