#    Name: 6d5x_3_ATP_CAVITY_N1_6
#    Modification time : Fri May 22 19:28:54 2020

@<TRIPOS>MOLECULE
6d5x_3_ATP_CAVITY_N1_6
   17     0     3     0     0
SMALL
NO_CHARGES


@<TRIPOS>ATOM
      1 OD1       -41.4600   29.5200  -27.1500 O.co2     1 ASP3        0.0000 
      2 OD1       -40.4400   28.4300  -27.3400 O.co2     1 ASP3        0.0000 
      3 OD1       -41.9800   33.1500  -27.0500 O.co2     1 ASP3        0.0000 
      4 OD1       -42.5300   32.4200  -25.8600 O.co2     1 ASP3        0.0000 
      5 OD1       -40.9700   32.0700  -27.2500 O.co2     1 ASP3        0.0000 
      6 OD1       -41.5200   31.3400  -26.0600 O.co2     1 ASP3        0.0000 
      7 OD1       -42.0600   30.6100  -24.8700 O.co2     1 ASP3        0.0000 
      8 OD1       -41.5700   33.1600  -24.9700 O.co2     1 ASP3        0.0000 
      9 NZ        -43.1400   33.5200  -23.5800 N.4       2 LYS4        0.0000 
     10 DU        -46.0700   33.1400  -25.1700 H         3 CUB7        0.0000 
     11 DU        -45.0500   32.0500  -25.3700 H         3 CUB7        0.0000 
     12 DU        -44.0400   30.9600  -25.5600 H         3 CUB7        0.0000 
     13 DU        -42.4700   30.6000  -26.9500 H         3 CUB7        0.0000 
     14 DU        -43.0200   29.8800  -25.7600 H         3 CUB7        0.0000 
     15 DU        -45.1100   33.8700  -24.2800 H         3 CUB7        0.0000 
     16 DU        -44.0900   32.7800  -24.4800 H         3 CUB7        0.0000 
     17 DU        -43.0800   31.7000  -24.6700 H         3 CUB7        0.0000 
@<TRIPOS>BOND
@<TRIPOS>SUBSTRUCTURE
     1 ASP3        1 GROUP   
     2 LYS4        9 GROUP   
     3 CUB7       10 GROUP   
@<TRIPOS>SET

