#    Name: 6d5x_3_ATP
#    Modification time : Fri May 22 19:28:52 2020

@<TRIPOS>MOLECULE
6d5x_3_ATP
   31    33     1     0     1
SMALL
NO_CHARGES


@<TRIPOS>ATOM
      1 PG        -36.1830   32.2000  -33.4530 P.3       1 ATP301      0.0000 
      2 O1G       -35.1240   32.7860  -34.3580 O.co2     1 ATP301      0.0000 
      3 O2G       -36.6130   30.7910  -33.7960 O.co2     1 ATP301      0.0000 
      4 O3G       -35.9320   32.4300  -31.9800 O.co2     1 ATP301      0.0000 
      5 PB        -37.9240   34.3370  -32.8800 P.3       1 ATP301      0.0000 
      6 O1B       -38.4670   35.3910  -33.8100 O.co2     1 ATP301      0.0000 
      7 O2B       -36.8160   34.6910  -31.9180 O.co2     1 ATP301      0.0000 
      8 O3B       -37.4990   33.0680  -33.7740 O.3       1 ATP301      0.0000 
      9 PA        -39.0530   33.0670  -30.6210 P.3       1 ATP301      0.0000 
     10 O1A       -39.4540   31.6170  -30.7380 O.co2     1 ATP301      0.0000 
     11 O2A       -37.6950   33.4170  -30.0650 O.co2     1 ATP301      0.0000 
     12 O3A       -39.1850   33.7110  -32.0930 O.3       1 ATP301      0.0000 
     13 O5'       -40.2080   33.8310  -29.8030 O.3       1 ATP301      0.0000 
     14 C5'       -41.5660   33.4170  -29.9510 C.3       1 ATP301      0.0000 
     15 C4'       -42.4680   34.6400  -30.0620 C.3       1 ATP301      0.0000 
     16 O4'       -42.2080   35.5530  -28.9930 O.3       1 ATP301      0.0000 
     17 C3'       -42.2220   35.4150  -31.3460 C.3       1 ATP301      0.0000 
     18 O3'       -43.1650   35.0490  -32.3520 O.3       1 ATP301      0.0000 
     19 C2'       -42.3940   36.8670  -30.9530 C.3       1 ATP301      0.0000 
     20 O2'       -43.7600   37.2460  -31.1460 O.3       1 ATP301      0.0000 
     21 C1'       -42.0830   36.8960  -29.4690 C.3       1 ATP301      0.0000 
     22 N9        -40.6770   37.3160  -29.2280 N.pl3     1 ATP301      0.0000 
     23 C8        -39.6000   36.9130  -29.9330 C.2       1 ATP301      0.0000 
     24 N7        -38.4570   37.4660  -29.4510 N.2       1 ATP301      0.0000 
     25 C5        -38.7980   38.2480  -28.4120 C.ar      1 ATP301      0.0000 
     26 C6        -38.0830   39.1280  -27.4570 C.ar      1 ATP301      0.0000 
     27 N6        -36.7400   39.2770  -27.5160 N.pl3     1 ATP301      0.0000 
     28 N1        -38.8130   39.7700  -26.5200 N.ar      1 ATP301      0.0000 
     29 C2        -40.1480   39.6290  -26.4460 C.ar      1 ATP301      0.0000 
     30 N3        -40.8600   38.8530  -27.2820 N.ar      1 ATP301      0.0000 
     31 C4        -40.2580   38.1500  -28.2710 C.ar      1 ATP301      0.0000 
@<TRIPOS>BOND
     1    1    2 ar   
     2    1    3 ar   
     3    1    4 ar   
     4    1    8 1    
     5    5    6 ar   
     6    5    7 ar   
     7    5    8 1    
     8    5   12 1    
     9    9   10 ar   
    10    9   11 ar   
    11    9   12 1    
    12    9   13 1    
    13   13   14 1    
    14   14   15 1    
    15   15   16 1    
    16   15   17 1    
    17   16   21 1    
    18   17   18 1    
    19   17   19 1    
    20   19   20 1    
    21   19   21 1    
    22   21   22 1    
    23   22   23 1    
    24   22   31 1    
    25   23   24 2    
    26   24   25 1    
    27   25   26 ar   
    28   25   31 ar   
    29   26   27 1    
    30   26   28 ar   
    31   28   29 ar   
    32   29   30 ar   
    33   30   31 ar   
@<TRIPOS>SUBSTRUCTURE
     1 ATP301      1 GROUP   
@<TRIPOS>SET
ATOM$ORANGE STATIC     ATOMS   COLORGROUP SYSTEM 
20 14 14 15 15 17 17 19 19 21 21 23 23 25 25 26 26 29 \
29 31 31 

