#    Name: 6d5x_1_5AD_CAVITY_N1_6
#    Modification time : Fri May 22 19:28:43 2020

@<TRIPOS>MOLECULE
6d5x_1_5AD_CAVITY_N1_6
   35     0     6     0     0
SMALL
NO_CHARGES


@<TRIPOS>ATOM
      1 N         -18.8000   47.4700  -20.8400 N.am      1 ALA2        0.0000 
      2 OD1       -21.5200   48.1900  -15.9800 O.co2     2 ASP3        0.0000 
      3 OD1       -20.5600   48.9200  -15.0900 O.co2     2 ASP3        0.0000 
      4 OD1       -21.1100   48.2000  -13.9000 O.co2     2 ASP3        0.0000 
      5 OD1       -20.1000   47.1100  -14.1000 O.co2     2 ASP3        0.0000 
      6 OD1       -19.6900   47.1100  -12.0200 O.co2     2 ASP3        0.0000 
      7 NZ        -21.4600   46.3700  -17.0700 N.4       3 LYS4        0.0000 
      8 NZ        -21.0500   46.3700  -14.9900 N.4       3 LYS4        0.0000 
      9 CZ        -18.3900   47.4700  -18.7600 C.ar      4 PHE5        0.0000 
     10 CZ        -18.9400   46.7400  -17.5700 C.ar      4 PHE5        0.0000 
     11 CZ        -19.4900   46.0200  -16.3800 C.ar      4 PHE5        0.0000 
     12 CZ        -17.3800   46.3900  -18.9600 C.ar      4 PHE5        0.0000 
     13 CZ        -17.9300   45.6600  -17.7700 C.ar      4 PHE5        0.0000 
     14 CZ        -19.0000   48.5600  -16.4800 C.ar      4 PHE5        0.0000 
     15 CZ        -17.9800   47.4800  -16.6800 C.ar      4 PHE5        0.0000 
     16 CZ        -18.5300   46.7500  -15.4900 C.ar      4 PHE5        0.0000 
     17 CZ        -19.0800   46.0200  -14.3000 C.ar      4 PHE5        0.0000 
     18 CZ        -18.5900   48.5700  -14.4000 C.ar      4 PHE5        0.0000 
     19 CZ        -18.1200   46.7600  -13.4100 C.ar      4 PHE5        0.0000 
     20 CA        -19.8200   48.5500  -20.6400 C.3       5 GLY6        0.0000 
     21 CA        -20.9100   47.1000  -18.2600 C.3       5 GLY6        0.0000 
     22 CA        -18.2500   48.1900  -22.0300 C.3       5 GLY6        0.0000 
     23 CA        -19.3500   46.7400  -19.6500 C.3       5 GLY6        0.0000 
     24 CA        -19.9000   46.0100  -18.4600 C.3       5 GLY6        0.0000 
     25 CA        -18.3100   50.0200  -20.9500 C.3       5 GLY6        0.0000 
     26 CA        -19.4100   48.5600  -18.5600 C.3       5 GLY6        0.0000 
     27 CA        -16.7500   49.6600  -22.3300 C.3       5 GLY6        0.0000 
     28 CA        -17.2900   48.9300  -21.1400 C.3       5 GLY6        0.0000 
     29 DU        -18.8600   49.2900  -19.7500 H         6 CUB7        0.0000 
     30 DU        -19.9600   47.8300  -17.3700 H         6 CUB7        0.0000 
     31 DU        -20.5100   47.1000  -16.1800 H         6 CUB7        0.0000 
     32 DU        -17.8400   48.2000  -19.9500 H         6 CUB7        0.0000 
     33 DU        -19.5500   47.8400  -15.2900 H         6 CUB7        0.0000 
     34 DU        -19.1400   47.8400  -13.2100 H         6 CUB7        0.0000 
     35 DU        -17.1600   47.4900  -12.5200 H         6 CUB7        0.0000 
@<TRIPOS>BOND
@<TRIPOS>SUBSTRUCTURE
     1 ALA2        1 GROUP   
     2 ASP3        2 GROUP   
     3 LYS4        7 GROUP   
     4 PHE5        9 GROUP   
     5 GLY6       20 GROUP   
     6 CUB7       29 GROUP   
@<TRIPOS>SET

