#    Name: 6a6d_1_COD
#    Modification time : Fri May 22 19:24:41 2020

@<TRIPOS>MOLECULE
6a6d_1_COD
   44    46     1     0     0
SMALL
NO_CHARGES


@<TRIPOS>ATOM
      1 N1         36.6190  -16.5730  -14.3700 N.ar      1 COD201      0.0000 
      2 C2         36.9060  -16.1170  -15.6140 C.ar      1 COD201      0.0000 
      3 N3         36.1550  -15.2480  -16.3190 N.ar      1 COD201      0.0000 
      4 C4         35.0310  -14.7440  -15.7830 C.ar      1 COD201      0.0000 
      5 C5         34.6230  -15.1590  -14.4170 C.ar      1 COD201      0.0000 
      6 C6         35.5080  -16.1350  -13.7230 C.ar      1 COD201      0.0000 
      7 N7         35.1930  -16.5620  -12.4770 N.pl3     1 COD201      0.0000 
      8 N8         33.4680  -14.5210  -14.1300 N.2       1 COD201      0.0000 
      9 C9         33.1780  -13.7640  -15.2410 C.2       1 COD201      0.0000 
     10 N10        34.1050  -13.9080  -16.2270 N.pl3     1 COD201      0.0000 
     11 C11        34.1520  -13.2280  -17.5500 C.3       1 COD201      0.0000 
     12 C12        32.7990  -13.1380  -18.2590 C.3       1 COD201      0.0000 
     13 O13        32.7610  -13.8710  -19.5070 O.3       1 COD201      0.0000 
     14 C14        32.5770  -11.6360  -18.4620 C.3       1 COD201      0.0000 
     15 O15        32.9360  -11.3100  -19.8040 O.3       1 COD201      0.0000 
     16 C16        33.5310  -10.8920  -17.5260 C.3       1 COD201      0.0000 
     17 O17        34.5840  -11.8730  -17.3150 O.3       1 COD201      0.0000 
     18 C18        32.9930  -10.2780  -16.1900 C.3       1 COD201      0.0000 
     19 O19        31.5610  -10.2330  -15.9500 O.3       1 COD201      0.0000 
     20 P20        30.7290  -10.3810  -14.5100 P.3       1 COD201      0.0000 
     21 O21        30.5420  -11.8210  -14.0310 O.co2     1 COD201      0.0000 
     22 O22        31.2450   -9.4080  -13.4830 O.co2     1 COD201      0.0000 
     23 O23        29.3000   -9.7190  -14.9660 O.3       1 COD201      0.0000 
     24 P24        28.3990   -9.8300  -16.3390 P.3       1 COD201      0.0000 
     25 O25        28.2400  -11.2830  -16.7280 O.co2     1 COD201      0.0000 
     26 O26        27.1490   -9.0020  -16.0420 O.co2     1 COD201      0.0000 
     27 O27        29.1430   -9.1780  -17.6250 O.3       1 COD201      0.0000 
     28 C28        28.3060   -8.5460  -18.6080 C.3       1 COD201      0.0000 
     29 C29        28.4450   -7.0160  -18.6020 C.3       1 COD201      0.0000 
     30 C30        28.2410   -6.4350  -17.2070 C.3       1 COD201      0.0000 
     31 C31        29.7980   -6.6640  -19.2210 C.3       1 COD201      0.0000 
     32 C32        27.3200   -6.3830  -19.3680 C.3       1 COD201      0.0000 
     33 O33        26.3710   -5.8860  -18.4180 O.3       1 COD201      0.0000 
     34 C34        27.7530   -5.2790  -20.2780 C.2       1 COD201      0.0000 
     35 O35        27.5370   -4.1130  -19.9970 O.2       1 COD201      0.0000 
     36 N36        28.1180   -5.7160  -21.4680 N.am      1 COD201      0.0000 
     37 C37        27.6380   -5.0150  -22.6360 C.3       1 COD201      0.0000 
     38 C38        26.2050   -5.5170  -22.8660 C.3       1 COD201      0.0000 
     39 C39        25.5750   -5.0020  -24.1430 C.2       1 COD201      0.0000 
     40 O40        26.2110   -4.7700  -25.1780 O.2       1 COD201      0.0000 
     41 N41        24.2740   -4.7600  -24.0160 N.am      1 COD201      0.0000 
     42 C42        23.5890   -4.0070  -25.0330 C.3       1 COD201      0.0000 
     43 C43        23.9540   -2.5420  -24.8170 C.3       1 COD201      0.0000 
     44 S44        25.1500   -2.2640  -23.4580 S.3       1 COD201      0.0000 
@<TRIPOS>BOND
     1    1    2 ar   
     2    1    6 ar   
     3    2    3 ar   
     4    3    4 ar   
     5    4    5 ar   
     6    4   10 1    
     7    5    6 ar   
     8    5    8 1    
     9    6    7 1    
    10    8    9 2    
    11    9   10 1    
    12   10   11 1    
    13   11   12 1    
    14   11   17 1    
    15   12   13 1    
    16   12   14 1    
    17   14   15 1    
    18   14   16 1    
    19   16   17 1    
    20   16   18 1    
    21   18   19 1    
    22   19   20 1    
    23   20   21 ar   
    24   20   22 ar   
    25   20   23 1    
    26   23   24 1    
    27   24   25 ar   
    28   24   26 ar   
    29   24   27 1    
    30   27   28 1    
    31   28   29 1    
    32   29   30 1    
    33   29   31 1    
    34   29   32 1    
    35   32   33 1    
    36   32   34 1    
    37   34   35 2    
    38   34   36 am   
    39   36   37 1    
    40   37   38 1    
    41   38   39 1    
    42   39   40 2    
    43   39   41 am   
    44   41   42 1    
    45   42   43 1    
    46   43   44 1    
@<TRIPOS>SUBSTRUCTURE
     1 COD201      1 GROUP   
@<TRIPOS>SET

