#    Name: 6a6d_1_COD_CAVITY_N1_6
#    Modification time : Fri May 22 19:24:44 2020

@<TRIPOS>MOLECULE
6a6d_1_COD_CAVITY_N1_6
   78     0     7     0     0
SMALL
NO_CHARGES


@<TRIPOS>ATOM
      1 OG         35.6800  -12.1800  -17.8300 O.3       1 SER1        0.0000 
      2 OG         34.6000  -12.8600  -17.0400 O.3       1 SER1        0.0000 
      3 OG         33.7100  -11.6600  -17.2300 O.3       1 SER1        0.0000 
      4 OG         36.0200  -13.4500  -15.5900 O.3       1 SER1        0.0000 
      5 OG         34.2600  -11.0600  -15.9700 O.3       1 SER1        0.0000 
      6 OG         33.3800   -9.8600  -16.1500 O.3       1 SER1        0.0000 
      7 OG         34.9400  -14.1300  -14.8000 O.3       1 SER1        0.0000 
      8 OG         34.0600  -12.9300  -14.9900 O.3       1 SER1        0.0000 
      9 OG         33.1800  -11.7300  -15.1800 O.3       1 SER1        0.0000 
     10 OG         32.2900  -10.5300  -15.3700 O.3       1 SER1        0.0000 
     11 OG         35.2900  -15.4000  -12.5600 O.3       1 SER1        0.0000 
     12 O          34.2500  -11.5900  -19.2800 O.2       2 ALA2        0.0000 
     13 O          34.0500  -13.4600  -18.3000 O.2       2 ALA2        0.0000 
     14 O          33.1700  -12.2600  -18.4900 O.2       2 ALA2        0.0000 
     15 N          31.9500   -9.2600  -17.6100 N.am      2 ALA2        0.0000 
     16 O          28.9000   -9.4100  -16.2200 O.2       2 ALA2        0.0000 
     17 N          36.9100  -14.6500  -15.4000 N.am      2 ALA2        0.0000 
     18 N          32.5000   -8.6600  -16.3400 N.am      2 ALA2        0.0000 
     19 N          36.7100  -16.5200  -14.4200 N.am      2 ALA2        0.0000 
     20 N          35.6200  -17.2000  -13.6300 N.am      2 ALA2        0.0000 
     21 N          34.7400  -16.0000  -13.8200 N.am      2 ALA2        0.0000 
     22 O          36.3700  -14.7200  -13.3500 O.2       2 ALA2        0.0000 
     23 OD1        30.6600  -12.3400  -19.1500 O.co2     3 ASP3        0.0000 
     24 OD1        28.6900  -11.8100  -18.5500 O.co2     3 ASP3        0.0000 
     25 OD1        29.3700  -14.8800  -17.3800 O.co2     3 ASP3        0.0000 
     26 OD1        32.2900  -11.0600  -18.6800 O.co2     3 ASP3        0.0000 
     27 OD1        32.9700  -14.1300  -17.5100 O.co2     3 ASP3        0.0000 
     28 OD1        31.2000  -11.7300  -17.8900 O.co2     3 ASP3        0.0000 
     29 OD1        30.3200  -10.5400  -18.0800 O.co2     3 ASP3        0.0000 
     30 OD1        31.8800  -14.8000  -16.7200 O.co2     3 ASP3        0.0000 
     31 OD1        31.0000  -13.6100  -16.9100 O.co2     3 ASP3        0.0000 
     32 OD1        29.9200  -14.2800  -16.1200 O.co2     3 ASP3        0.0000 
     33 OD1        29.0400  -13.0800  -16.3100 O.co2     3 ASP3        0.0000 
     34 OD1        28.8300  -14.9500  -15.3300 O.co2     3 ASP3        0.0000 
     35 OD1        33.9200   -9.7900  -18.2100 O.co2     3 ASP3        0.0000 
     36 OD1        32.8300  -10.4600  -17.4200 O.co2     3 ASP3        0.0000 
     37 OD1        32.6300  -12.3300  -16.4400 O.co2     3 ASP3        0.0000 
     38 OD1        30.8700   -9.9300  -16.8200 O.co2     3 ASP3        0.0000 
     39 OD1        33.3100  -15.4000  -15.2700 O.co2     3 ASP3        0.0000 
     40 OD1        32.4300  -14.2000  -15.4600 O.co2     3 ASP3        0.0000 
     41 OD1        31.5500  -13.0000  -15.6500 O.co2     3 ASP3        0.0000 
     42 OD1        30.6700  -11.8100  -15.8400 O.co2     3 ASP3        0.0000 
     43 OD1        29.5800  -12.4800  -15.0500 O.co2     3 ASP3        0.0000 
     44 OD1        33.8600  -14.8000  -14.0100 O.co2     3 ASP3        0.0000 
     45 OD1        31.2100  -11.2000  -14.5800 O.co2     3 ASP3        0.0000 
     46 OD1        32.7700  -15.4700  -13.2200 O.co2     3 ASP3        0.0000 
     47 NZ         29.0300  -13.6100  -19.6200 N.4       4 LYS4        0.0000 
     48 NZ         32.6200  -12.8600  -19.7500 N.4       4 LYS4        0.0000 
     49 NZ         31.5400  -13.5300  -18.9600 N.4       4 LYS4        0.0000 
     50 CZ         34.8000  -10.9900  -18.0200 C.ar      5 PHE5        0.0000 
     51 CZ         35.4900  -13.5300  -13.5300 C.ar      5 PHE5        0.0000 
     52 CZ         34.4000  -14.2000  -12.7500 C.ar      5 PHE5        0.0000 
     53 CA         28.8300  -15.4800  -18.6400 C.3       6 GLY6        0.0000 
     54 CA         35.8200  -15.8500  -17.9200 C.3       6 GLY6        0.0000 
     55 CA         34.9300  -14.6600  -18.1100 C.3       6 GLY6        0.0000 
     56 CA         33.8500  -15.3300  -17.3200 C.3       6 GLY6        0.0000 
     57 CA         37.4400  -14.5800  -17.4500 C.3       6 GLY6        0.0000 
     58 CA         36.5600  -13.3800  -17.6400 C.3       6 GLY6        0.0000 
     59 CA         37.2400  -16.4500  -16.4700 C.3       6 GLY6        0.0000 
     60 CA         36.3600  -15.2500  -16.6600 C.3       6 GLY6        0.0000 
     61 CA         35.4800  -14.0600  -16.8500 C.3       6 GLY6        0.0000 
     62 CA         36.1600  -17.1200  -15.6800 C.3       6 GLY6        0.0000 
     63 CA         35.2800  -15.9300  -15.8700 C.3       6 GLY6        0.0000 
     64 CA         34.4000  -14.7300  -16.0600 C.3       6 GLY6        0.0000 
     65 CA         29.9800   -8.7400  -17.0100 C.3       6 GLY6        0.0000 
     66 CA         37.9900  -13.9800  -16.1900 C.3       6 GLY6        0.0000 
     67 CA         37.7900  -15.8500  -15.2100 C.3       6 GLY6        0.0000 
     68 CA         31.4100   -9.3300  -15.5500 C.3       6 GLY6        0.0000 
     69 DU         29.5700  -13.0100  -18.3600 H         7 CUB7        0.0000 
     70 DU         28.4900  -13.6800  -17.5700 H         7 CUB7        0.0000 
     71 DU         32.0900  -12.9300  -17.7000 H         7 CUB7        0.0000 
     72 DU         30.1200  -12.4100  -17.1000 H         7 CUB7        0.0000 
     73 DU         29.2400  -11.2100  -17.2900 H         7 CUB7        0.0000 
     74 DU         28.1500  -11.8800  -16.5000 H         7 CUB7        0.0000 
     75 DU         33.5100  -13.5300  -16.2500 H         7 CUB7        0.0000 
     76 DU         31.7500  -11.1300  -16.6300 H         7 CUB7        0.0000 
     77 DU         29.7800  -10.6100  -16.0300 H         7 CUB7        0.0000 
     78 DU         35.8200  -15.3200  -14.6100 H         7 CUB7        0.0000 
@<TRIPOS>BOND
@<TRIPOS>SUBSTRUCTURE
     1 SER1        1 GROUP   
     2 ALA2       12 GROUP   
     3 ASP3       23 GROUP   
     4 LYS4       47 GROUP   
     5 PHE5       50 GROUP   
     6 GLY6       53 GROUP   
     7 CUB7       69 GROUP   
@<TRIPOS>SET

