#    Name: 6gg7_1_NAD
#    Modification time : Fri May 22 19:28:33 2020

@<TRIPOS>MOLECULE
6gg7_1_NAD
   44    48     1     0     1
SMALL
NO_CHARGES


@<TRIPOS>ATOM
      1 PA         47.8520  -20.4100   22.5340 P.3       1 NAD1001     0.0000 
      2 O1A        47.7080  -20.0770   21.0700 O.co2     1 NAD1001     0.0000 
      3 O2A        46.6360  -20.5680   23.4080 O.co2     1 NAD1001     0.0000 
      4 O5B        48.7390  -19.2900   23.2470 O.3       1 NAD1001     0.0000 
      5 C5B        49.8200  -18.5970   22.6410 C.3       1 NAD1001     0.0000 
      6 C4B        49.8040  -17.2070   23.2560 C.3       1 NAD1001     0.0000 
      7 O4B        50.9920  -16.5090   22.8930 O.3       1 NAD1001     0.0000 
      8 C3B        48.6400  -16.3960   22.7070 C.3       1 NAD1001     0.0000 
      9 O3B        48.0960  -15.6120   23.7710 O.3       1 NAD1001     0.0000 
     10 C2B        49.2750  -15.4860   21.6790 C.3       1 NAD1001     0.0000 
     11 O2B        48.5680  -14.2490   21.5240 O.3       1 NAD1001     0.0000 
     12 C1B        50.6400  -15.2590   22.2950 C.3       1 NAD1001     0.0000 
     13 N9A        51.7170  -14.9420   21.3340 N.pl3     1 NAD1001     0.0000 
     14 C8A        51.9430  -15.5130   20.1350 C.2       1 NAD1001     0.0000 
     15 N7A        53.0470  -14.9800   19.5550 N.2       1 NAD1001     0.0000 
     16 C5A        53.5400  -14.0590   20.4060 C.ar      1 NAD1001     0.0000 
     17 C6A        54.6850  -13.1290   20.4290 C.ar      1 NAD1001     0.0000 
     18 N6A        55.5560  -13.0710   19.3920 N.pl3     1 NAD1001     0.0000 
     19 N1A        54.8310  -12.3510   21.5290 N.ar      1 NAD1001     0.0000 
     20 C2A        53.9740  -12.4000   22.5660 C.ar      1 NAD1001     0.0000 
     21 N3A        52.9070  -13.2140   22.6120 N.ar      1 NAD1001     0.0000 
     22 C4A        52.6590  -14.0460   21.5800 C.ar      1 NAD1001     0.0000 
     23 O3         48.7570  -21.7390   22.5880 O.3       1 NAD1001     0.0000 
     24 PN         48.9580  -22.7360   23.8290 P.3       1 NAD1001     0.0000 
     25 O1N        49.0270  -21.9600   25.1130 O.co2     1 NAD1001     0.0000 
     26 O2N        47.9930  -23.8870   23.6880 O.co2     1 NAD1001     0.0000 
     27 O5D        50.4050  -23.3040   23.4520 O.3       1 NAD1001     0.0000 
     28 C5D        51.5700  -22.4960   23.6700 C.3       1 NAD1001     0.0000 
     29 C4D        52.7920  -23.4050   23.6370 C.3       1 NAD1001     0.0000 
     30 O4D        52.6540  -24.4310   24.6340 O.3       1 NAD1001     0.0000 
     31 C3D        52.9580  -24.1230   22.3070 C.3       1 NAD1001     0.0000 
     32 O3D        54.3630  -24.3080   22.0820 O.3       1 NAD1001     0.0000 
     33 C2D        52.3470  -25.4820   22.5540 C.3       1 NAD1001     0.0000 
     34 O2D        52.8760  -26.4970   21.6910 O.3       1 NAD1001     0.0000 
     35 C1D        52.7110  -25.7180   24.0090 C.3       1 NAD1001     0.0000 
     36 N1N        51.8560  -26.6770   24.7130 N.pl3     1 NAD1001     0.0000 
     37 C2N        50.5170  -26.6560   24.5830 C.ar      1 NAD1001     0.0000 
     38 C3N        49.7370  -27.5790   25.2830 C.ar      1 NAD1001     0.0000 
     39 C7N        48.2400  -27.6030   25.1480 C.2       1 NAD1001     0.0000 
     40 O7N        47.6650  -28.6570   25.3600 O.2       1 NAD1001     0.0000 
     41 N7N        47.5800  -26.4970   24.8050 N.am      1 NAD1001     0.0000 
     42 C4N        50.3540  -28.5120   26.1120 C.ar      1 NAD1001     0.0000 
     43 C5N        51.7380  -28.5070   26.2330 C.ar      1 NAD1001     0.0000 
     44 C6N        52.4670  -27.5590   25.5260 C.ar      1 NAD1001     0.0000 
@<TRIPOS>BOND
     1    1    2 ar   
     2    1    3 ar   
     3    1    4 1    
     4    1   23 1    
     5    4    5 1    
     6    5    6 1    
     7    6    7 1    
     8    6    8 1    
     9    7   12 1    
    10    8    9 1    
    11    8   10 1    
    12   10   11 1    
    13   10   12 1    
    14   12   13 1    
    15   13   14 1    
    16   13   22 1    
    17   14   15 2    
    18   15   16 1    
    19   16   17 ar   
    20   16   22 ar   
    21   17   18 1    
    22   17   19 ar   
    23   19   20 ar   
    24   20   21 ar   
    25   21   22 ar   
    26   23   24 1    
    27   24   25 ar   
    28   24   26 ar   
    29   24   27 1    
    30   27   28 1    
    31   28   29 1    
    32   29   30 1    
    33   29   31 1    
    34   30   35 1    
    35   31   32 1    
    36   31   33 1    
    37   33   34 1    
    38   33   35 1    
    39   35   36 1    
    40   36   37 ar   
    41   36   44 ar   
    42   37   38 ar   
    43   38   39 1    
    44   38   42 ar   
    45   39   40 2    
    46   39   41 am   
    47   42   43 ar   
    48   43   44 ar   
@<TRIPOS>SUBSTRUCTURE
     1 NAD1001     1 GROUP   
@<TRIPOS>SET
ATOM$ORANGE STATIC     ATOMS   COLORGROUP SYSTEM 
42 5 5 6 6 8 8 10 10 12 12 14 14 16 16 17 17 20 \
20 22 22 28 28 29 29 31 31 33 33 35 35 37 37 38 38 39 \
39 42 42 43 43 44 44 

