#    Name: 6ngp_1_H4B
#    Modification time : Fri May 22 19:30:31 2020

@<TRIPOS>MOLECULE
6ngp_1_H4B
   17    18     1     0     1
SMALL
NO_CHARGES


@<TRIPOS>ATOM
      1 N1          9.7090    2.6250   34.1570 N.2       1 H4B802      0.0000 
      2 C2          9.8720    2.0910   32.9200 C.2       1 H4B802      0.0000 
      3 N2         11.1280    1.8740   32.4460 N.pl3     1 H4B802      0.0000 
      4 N3          8.7900    1.7730   32.1680 N.am      1 H4B802      0.0000 
      5 C4          7.5360    1.9840   32.6280 C.2       1 H4B802      0.0000 
      6 O4          6.5370    1.6930   31.9350 O.2       1 H4B802      0.0000 
      7 C4A         7.3570    2.5390   33.8800 C.2       1 H4B802      0.0000 
      8 C8A         8.4680    2.8510   34.6480 C.2       1 H4B802      0.0000 
      9 N5          6.1140    2.7530   34.3520 N.3       1 H4B802      0.0000 
     10 N8          8.3270    3.3840   35.8850 N.pl3     1 H4B802      0.0000 
     11 C6          5.9640    3.7200   35.4330 C.3       1 H4B802      0.0000 
     12 C7          7.0280    3.5420   36.5060 C.3       1 H4B802      0.0000 
     13 C9          4.6070    3.5900   36.0990 C.3       1 H4B802      0.0000 
     14 O9          4.4450    2.2240   36.4900 O.3       1 H4B802      0.0000 
     15 C10         4.5410    4.4840   37.3330 C.3       1 H4B802      0.0000 
     16 C11         3.1670    4.4000   37.9860 C.3       1 H4B802      0.0000 
     17 O10         4.8120    5.8450   36.9690 O.3       1 H4B802      0.0000 
@<TRIPOS>BOND
     1    1    2 2    
     2    1    8 1    
     3    2    3 1    
     4    2    4 1    
     5    4    5 am   
     6    5    6 2    
     7    5    7 1    
     8    7    8 2    
     9    7    9 1    
    10    8   10 1    
    11    9   11 1    
    12   10   12 1    
    13   11   12 1    
    14   11   13 1    
    15   13   14 1    
    16   13   15 1    
    17   15   16 1    
    18   15   17 1    
@<TRIPOS>SUBSTRUCTURE
     1 H4B802      1 GROUP   
@<TRIPOS>SET
ATOM$ORANGE STATIC     ATOMS   COLORGROUP SYSTEM 
18 2 2 5 5 7 7 8 8 11 11 12 12 13 13 15 15 16 \
16 

