#    Name: 6ngp_2_H4B
#    Modification time : Fri May 22 19:30:47 2020

@<TRIPOS>MOLECULE
6ngp_2_H4B
   17    18     1     0     1
SMALL
NO_CHARGES


@<TRIPOS>ATOM
      1 N1         14.3810    3.5650   48.3920 N.2       1 H4B802      0.0000 
      2 C2         14.4740    2.9990   49.6370 C.2       1 H4B802      0.0000 
      3 N2         13.4470    2.2630   50.1330 N.pl3     1 H4B802      0.0000 
      4 N3         15.5810    3.1670   50.3980 N.am      1 H4B802      0.0000 
      5 C4         16.6180    3.8970   49.9330 C.2       1 H4B802      0.0000 
      6 O4         17.6430    4.0380   50.6300 O.2       1 H4B802      0.0000 
      7 C4A        16.5440    4.4850   48.6690 C.2       1 H4B802      0.0000 
      8 C8A        15.4070    4.3020   47.8970 C.2       1 H4B802      0.0000 
      9 N5         17.5710    5.2270   48.2020 N.3       1 H4B802      0.0000 
     10 N8         15.3130    4.8710   46.6630 N.pl3     1 H4B802      0.0000 
     11 C6         17.2850    6.2230   47.1640 C.3       1 H4B802      0.0000 
     12 C7         16.4100    5.6320   46.0560 C.3       1 H4B802      0.0000 
     13 C9         18.5510    6.8630   46.5900 C.3       1 H4B802      0.0000 
     14 O9         19.4920    5.8540   46.2000 O.3       1 H4B802      0.0000 
     15 C10        18.2170    7.7320   45.3760 C.3       1 H4B802      0.0000 
     16 C11        19.4450    8.4520   44.8250 C.3       1 H4B802      0.0000 
     17 O10        17.2220    8.6910   45.7510 O.3       1 H4B802      0.0000 
@<TRIPOS>BOND
     1    1    2 2    
     2    1    8 1    
     3    2    3 1    
     4    2    4 1    
     5    4    5 am   
     6    5    6 2    
     7    5    7 1    
     8    7    8 2    
     9    7    9 1    
    10    8   10 1    
    11    9   11 1    
    12   10   12 1    
    13   11   12 1    
    14   11   13 1    
    15   13   14 1    
    16   13   15 1    
    17   15   16 1    
    18   15   17 1    
@<TRIPOS>SUBSTRUCTURE
     1 H4B802      1 GROUP   
@<TRIPOS>SET
ATOM$ORANGE STATIC     ATOMS   COLORGROUP SYSTEM 
18 2 2 5 5 7 7 8 8 11 11 12 12 13 13 15 15 16 \
16 

