#    Name: 6ngp_1_H4B_CAVITY_N1_8
#    Modification time : Fri May 22 19:30:32 2020

@<TRIPOS>MOLECULE
6ngp_1_H4B_CAVITY_N1_8
   49     0     6     0     0
SMALL
NO_CHARGES


@<TRIPOS>ATOM
      1 OG          9.6700    6.8800   26.6900 O.3       1 SER1        0.0000 
      2 OG          9.2600    5.6100   27.3800 O.3       1 SER1        0.0000 
      3 OG          8.6500    8.0100   28.1700 O.3       1 SER1        0.0000 
      4 N          16.2300    2.9500   26.6000 N.am      2 ALA2        0.0000 
      5 N          14.8400    3.4800   26.7600 N.am      2 ALA2        0.0000 
      6 N          12.8300    6.4100   27.7000 N.am      2 ALA2        0.0000 
      7 N          13.8200    4.6100   28.2400 N.am      2 ALA2        0.0000 
      8 N          12.4200    5.1400   28.3900 N.am      2 ALA2        0.0000 
      9 N          13.4100    3.3400   28.9200 N.am      2 ALA2        0.0000 
     10 N          12.0200    3.8700   29.0800 N.am      2 ALA2        0.0000 
     11 N          11.9800    3.2000   31.0900 N.am      2 ALA2        0.0000 
     12 N          11.5700    1.9300   31.7800 N.am      2 ALA2        0.0000 
     13 NZ         15.4500    1.0900   25.9700 N.4       3 LYS4        0.0000 
     14 NZ         14.0500    1.6200   26.1200 N.4       3 LYS4        0.0000 
     15 NZ         15.4100    0.4100   27.9800 N.4       3 LYS4        0.0000 
     16 NZ         14.0200    0.9400   28.1300 N.4       3 LYS4        0.0000 
     17 NZ         12.6300    1.4800   28.2900 N.4       3 LYS4        0.0000 
     18 NZ         12.2200    0.2100   28.9700 N.4       3 LYS4        0.0000 
     19 NZ         10.8300    0.7400   29.1300 N.4       3 LYS4        0.0000 
     20 CZ         10.2500    3.8100   27.9100 C.ar      4 PHE5        0.0000 
     21 CZ          8.8500    4.3400   28.0600 C.ar      4 PHE5        0.0000 
     22 CZ          9.6400    6.2100   28.7000 C.ar      4 PHE5        0.0000 
     23 CZ         10.6200    4.4100   29.2300 C.ar      4 PHE5        0.0000 
     24 CZ         11.6100    2.6100   29.7700 C.ar      4 PHE5        0.0000 
     25 CZ          9.8100    1.8700   30.6100 C.ar      4 PHE5        0.0000 
     26 CZ         10.1800    2.4600   31.9300 C.ar      4 PHE5        0.0000 
     27 CA         13.8500    5.2900   26.2300 C.3       5 GLY6        0.0000 
     28 CA         13.4400    4.0200   26.9100 C.3       5 GLY6        0.0000 
     29 CA         15.8200    1.6800   27.2900 C.3       5 GLY6        0.0000 
     30 CA         13.6100   -0.3200   28.8200 C.3       5 GLY6        0.0000 
     31 CA         11.4400    6.9500   27.8600 C.3       5 GLY6        0.0000 
     32 CA         10.0400    7.4800   28.0100 C.3       5 GLY6        0.0000 
     33 CA         11.0300    5.6800   28.5500 C.3       5 GLY6        0.0000 
     34 CA         15.7900    1.0100   29.3000 C.3       5 GLY6        0.0000 
     35 CA         14.4000    1.5400   29.4600 C.3       5 GLY6        0.0000 
     36 CA         13.9900    0.2700   30.1400 C.3       5 GLY6        0.0000 
     37 DU         14.4600    2.8900   25.4300 H         6 CUB7        0.0000 
     38 DU         13.0700    3.4200   25.5900 H         6 CUB7        0.0000 
     39 DU         12.4600    5.8200   26.3800 H         6 CUB7        0.0000 
     40 DU         11.0600    6.3500   26.5400 H         6 CUB7        0.0000 
     41 DU         12.0500    4.5500   27.0700 H         6 CUB7        0.0000 
     42 DU         10.6600    5.0800   27.2200 H         6 CUB7        0.0000 
     43 DU         14.4300    2.2100   27.4400 H         6 CUB7        0.0000 
     44 DU         13.0400    2.7500   27.6000 H         6 CUB7        0.0000 
     45 DU         11.6400    3.2800   27.7500 H         6 CUB7        0.0000 
     46 DU         11.2300    2.0100   28.4400 H         6 CUB7        0.0000 
     47 DU         13.0000    2.0700   29.6100 H         6 CUB7        0.0000 
     48 DU         12.5900    0.8000   30.3000 H         6 CUB7        0.0000 
     49 DU         11.2000    1.3400   30.4500 H         6 CUB7        0.0000 
@<TRIPOS>BOND
@<TRIPOS>SUBSTRUCTURE
     1 SER1        1 GROUP   
     2 ALA2        4 GROUP   
     3 LYS4       13 GROUP   
     4 PHE5       20 GROUP   
     5 GLY6       27 GROUP   
     6 CUB7       37 GROUP   
@<TRIPOS>SET

