#    Name: 6ngp_2_H4B_CAVITY_N1_8
#    Modification time : Fri May 22 19:30:48 2020

@<TRIPOS>MOLECULE
6ngp_2_H4B_CAVITY_N1_8
   44     0     6     0     0
SMALL
NO_CHARGES


@<TRIPOS>ATOM
      1 OG         13.5600    8.7300   55.3400 O.3       1 SER1        0.0000 
      2 OG         13.1500    7.4600   56.0300 O.3       1 SER1        0.0000 
      3 N          12.2300    2.0000   51.9500 N.am      2 ALA2        0.0000 
      4 N          11.6200    4.4000   52.7400 N.am      2 ALA2        0.0000 
      5 N          11.2100    3.1300   53.4300 N.am      2 ALA2        0.0000 
      6 N          10.8000    1.8600   54.1100 N.am      2 ALA2        0.0000 
      7 O           9.0000    1.1300   54.9600 O.2       2 ALA2        0.0000 
      8 N          10.6000    5.5300   54.2200 N.am      2 ALA2        0.0000 
      9 N          11.5800    3.7300   54.7500 N.am      2 ALA2        0.0000 
     10 N          10.1900    4.2600   54.9100 N.am      2 ALA2        0.0000 
     11 N           9.3700    1.7200   56.2800 N.am      2 ALA2        0.0000 
     12 NZ         13.5900    0.8000   53.8000 N.4       3 LYS4        0.0000 
     13 NZ         12.2000    1.3300   53.9600 N.4       3 LYS4        0.0000 
     14 NZ         11.7900    0.0600   54.6500 N.4       3 LYS4        0.0000 
     15 NZ          9.9900   -0.6800   55.4900 N.4       3 LYS4        0.0000 
     16 NZ         12.5700    1.9300   55.2800 N.4       3 LYS4        0.0000 
     17 NZ         12.1600    0.6600   55.9700 N.4       3 LYS4        0.0000 
     18 NZ         10.7700    1.1900   56.1200 N.4       3 LYS4        0.0000 
     19 NZ         10.3600   -0.0800   56.8100 N.4       3 LYS4        0.0000 
     20 CZ         12.6400    3.2700   51.2600 C.ar      4 PHE5        0.0000 
     21 CZ         14.4100    3.3400   52.4300 C.ar      4 PHE5        0.0000 
     22 CZ         14.0000    2.0700   53.1200 C.ar      4 PHE5        0.0000 
     23 CZ         12.6000    2.6000   53.2700 C.ar      4 PHE5        0.0000 
     24 CZ         13.3900    4.4700   53.9100 C.ar      4 PHE5        0.0000 
     25 CZ         11.9900    5.0000   54.0600 C.ar      4 PHE5        0.0000 
     26 CZ         12.9800    3.2000   54.6000 C.ar      4 PHE5        0.0000 
     27 CZ         12.7800    6.8600   54.7000 C.ar      4 PHE5        0.0000 
     28 CZ         13.7600    5.0600   55.2300 C.ar      4 PHE5        0.0000 
     29 CZ         12.3700    5.5900   55.3900 C.ar      4 PHE5        0.0000 
     30 CA         11.4100   -0.5400   53.3200 C.3       5 GLY6        0.0000 
     31 CA         10.0200    0.0000   53.4800 C.3       5 GLY6        0.0000 
     32 CA          8.5900   -0.1400   55.6400 C.3       5 GLY6        0.0000 
     33 CA          9.7800    2.9900   55.5900 C.3       5 GLY6        0.0000 
     34 CA         11.3800    7.4000   54.8600 C.3       5 GLY6        0.0000 
     35 CA         10.9700    6.1300   55.5400 C.3       5 GLY6        0.0000 
     36 CA         10.5600    4.8600   56.2300 C.3       5 GLY6        0.0000 
     37 CA         10.1600    3.5900   56.9200 C.3       5 GLY6        0.0000 
     38 DU         13.6200    1.4700   51.7900 H         6 CUB7        0.0000 
     39 DU         11.8200    0.7300   52.6300 H         6 CUB7        0.0000 
     40 DU         10.3900    0.5900   54.8000 H         6 CUB7        0.0000 
     41 DU         11.1800    2.4600   55.4400 H         6 CUB7        0.0000 
     42 DU         11.9600    4.3200   56.0700 H         6 CUB7        0.0000 
     43 DU         11.5500    3.0600   56.7600 H         6 CUB7        0.0000 
     44 DU         11.1400    1.7900   57.4500 H         6 CUB7        0.0000 
@<TRIPOS>BOND
@<TRIPOS>SUBSTRUCTURE
     1 SER1        1 GROUP   
     2 ALA2        3 GROUP   
     3 LYS4       12 GROUP   
     4 PHE5       20 GROUP   
     5 GLY6       30 GROUP   
     6 CUB7       38 GROUP   
@<TRIPOS>SET

