#    Name: 6ngp_2_H4B_CAVITY_N1_6
#    Modification time : Fri May 22 19:30:48 2020

@<TRIPOS>MOLECULE
6ngp_2_H4B_CAVITY_N1_6
   24     0     5     0     0
SMALL
NO_CHARGES


@<TRIPOS>ATOM
      1 N          12.2300    2.0000   51.9500 N.am      1 ALA2        0.0000 
      2 N          11.6200    4.4000   52.7400 N.am      1 ALA2        0.0000 
      3 N          11.2100    3.1300   53.4300 N.am      1 ALA2        0.0000 
      4 N          10.8000    1.8600   54.1100 N.am      1 ALA2        0.0000 
      5 N          10.6000    5.5300   54.2200 N.am      1 ALA2        0.0000 
      6 N          11.5800    3.7300   54.7500 N.am      1 ALA2        0.0000 
      7 NZ         13.5900    0.8000   53.8000 N.4       2 LYS4        0.0000 
      8 NZ         12.2000    1.3300   53.9600 N.4       2 LYS4        0.0000 
      9 NZ         11.7900    0.0600   54.6500 N.4       2 LYS4        0.0000 
     10 NZ         12.5700    1.9300   55.2800 N.4       2 LYS4        0.0000 
     11 CZ         12.6400    3.2700   51.2600 C.ar      3 PHE5        0.0000 
     12 CZ         14.4100    3.3400   52.4300 C.ar      3 PHE5        0.0000 
     13 CZ         14.0000    2.0700   53.1200 C.ar      3 PHE5        0.0000 
     14 CZ         12.6000    2.6000   53.2700 C.ar      3 PHE5        0.0000 
     15 CZ         13.3900    4.4700   53.9100 C.ar      3 PHE5        0.0000 
     16 CZ         11.9900    5.0000   54.0600 C.ar      3 PHE5        0.0000 
     17 CZ         12.9800    3.2000   54.6000 C.ar      3 PHE5        0.0000 
     18 CZ         13.7600    5.0600   55.2300 C.ar      3 PHE5        0.0000 
     19 CA         11.4100   -0.5400   53.3200 C.3       4 GLY6        0.0000 
     20 CA         10.0200    0.0000   53.4800 C.3       4 GLY6        0.0000 
     21 DU         13.6200    1.4700   51.7900 H         5 CUB7        0.0000 
     22 DU         11.8200    0.7300   52.6300 H         5 CUB7        0.0000 
     23 DU         10.3900    0.5900   54.8000 H         5 CUB7        0.0000 
     24 DU         11.1800    2.4600   55.4400 H         5 CUB7        0.0000 
@<TRIPOS>BOND
@<TRIPOS>SUBSTRUCTURE
     1 ALA2        1 GROUP   
     2 LYS4        7 GROUP   
     3 PHE5       11 GROUP   
     4 GLY6       19 GROUP   
     5 CUB7       21 GROUP   
@<TRIPOS>SET

