#    Name: 6ngp_1_H4B_CAVITY_N1_12
#    Modification time : Fri May 22 19:30:32 2020

@<TRIPOS>MOLECULE
6ngp_1_H4B_CAVITY_N1_12
   78     0     6     0     0
SMALL
NO_CHARGES


@<TRIPOS>ATOM
      1 OG          8.6800    8.6800   26.1600 O.3       1 SER1        0.0000 
      2 OG          9.6700    6.8800   26.6900 O.3       1 SER1        0.0000 
      3 OG          9.2600    5.6100   27.3800 O.3       1 SER1        0.0000 
      4 OG          8.6500    8.0100   28.1700 O.3       1 SER1        0.0000 
      5 N          16.3000    4.3000   22.5800 N.am      2 ALA2        0.0000 
      6 N          14.2900    7.2300   23.5300 N.am      2 ALA2        0.0000 
      7 N          15.2800    5.4300   24.0600 N.am      2 ALA2        0.0000 
      8 N          13.8800    5.9600   24.2100 N.am      2 ALA2        0.0000 
      9 N          16.2600    3.6200   24.5900 N.am      2 ALA2        0.0000 
     10 N          14.8700    4.1600   24.7500 N.am      2 ALA2        0.0000 
     11 N          13.4800    4.6900   24.9000 N.am      2 ALA2        0.0000 
     12 N          15.8600    2.3600   25.2800 N.am      2 ALA2        0.0000 
     13 N          16.2300    2.9500   26.6000 N.am      2 ALA2        0.0000 
     14 N          14.8400    3.4800   26.7600 N.am      2 ALA2        0.0000 
     15 N          12.8300    6.4100   27.7000 N.am      2 ALA2        0.0000 
     16 N          13.8200    4.6100   28.2400 N.am      2 ALA2        0.0000 
     17 N          12.4200    5.1400   28.3900 N.am      2 ALA2        0.0000 
     18 N          13.4100    3.3400   28.9200 N.am      2 ALA2        0.0000 
     19 N          12.0200    3.8700   29.0800 N.am      2 ALA2        0.0000 
     20 N          11.9800    3.2000   31.0900 N.am      2 ALA2        0.0000 
     21 N          11.5700    1.9300   31.7800 N.am      2 ALA2        0.0000 
     22 NZ         16.8400    0.5500   25.8100 N.4       3 LYS4        0.0000 
     23 NZ         15.4500    1.0900   25.9700 N.4       3 LYS4        0.0000 
     24 NZ         14.0500    1.6200   26.1200 N.4       3 LYS4        0.0000 
     25 NZ         15.4100    0.4100   27.9800 N.4       3 LYS4        0.0000 
     26 NZ         14.0200    0.9400   28.1300 N.4       3 LYS4        0.0000 
     27 NZ         12.6300    1.4800   28.2900 N.4       3 LYS4        0.0000 
     28 NZ         12.2200    0.2100   28.9700 N.4       3 LYS4        0.0000 
     29 NZ         10.8300    0.7400   29.1300 N.4       3 LYS4        0.0000 
     30 CZ         14.9000    4.8300   22.7300 C.ar      4 PHE5        0.0000 
     31 CZ         13.5100    5.3600   22.8900 C.ar      4 PHE5        0.0000 
     32 CZ         13.1000    4.0900   23.5800 C.ar      4 PHE5        0.0000 
     33 CZ         12.9000    7.7600   23.6800 C.ar      4 PHE5        0.0000 
     34 CZ         12.4900    6.4900   24.3700 C.ar      4 PHE5        0.0000 
     35 CZ         10.2500    3.8100   27.9100 C.ar      4 PHE5        0.0000 
     36 CZ          8.8500    4.3400   28.0600 C.ar      4 PHE5        0.0000 
     37 CZ          9.6400    6.2100   28.7000 C.ar      4 PHE5        0.0000 
     38 CZ         10.6200    4.4100   29.2300 C.ar      4 PHE5        0.0000 
     39 CZ         11.6100    2.6100   29.7700 C.ar      4 PHE5        0.0000 
     40 CZ          9.8100    1.8700   30.6100 C.ar      4 PHE5        0.0000 
     41 CZ         10.1800    2.4600   31.9300 C.ar      4 PHE5        0.0000 
     42 CA         17.2500    1.8200   25.1200 C.3       5 GLY6        0.0000 
     43 CA         13.2700    8.3600   25.0100 C.3       5 GLY6        0.0000 
     44 CA         11.8800    8.8900   25.1600 C.3       5 GLY6        0.0000 
     45 CA         10.4900    9.4200   25.3200 C.3       5 GLY6        0.0000 
     46 CA         12.8700    7.0900   25.6900 C.3       5 GLY6        0.0000 
     47 CA         10.0800    8.1500   26.0000 C.3       5 GLY6        0.0000 
     48 CA         13.8500    5.2900   26.2300 C.3       5 GLY6        0.0000 
     49 CA         13.4400    4.0200   26.9100 C.3       5 GLY6        0.0000 
     50 CA         17.2200    1.1500   27.1300 C.3       5 GLY6        0.0000 
     51 CA         15.8200    1.6800   27.2900 C.3       5 GLY6        0.0000 
     52 CA         13.6100   -0.3200   28.8200 C.3       5 GLY6        0.0000 
     53 CA         11.8500    8.2100   27.1700 C.3       5 GLY6        0.0000 
     54 CA         10.4500    8.7500   27.3300 C.3       5 GLY6        0.0000 
     55 CA          9.0600    9.2800   27.4800 C.3       5 GLY6        0.0000 
     56 CA         11.4400    6.9500   27.8600 C.3       5 GLY6        0.0000 
     57 CA         10.0400    7.4800   28.0100 C.3       5 GLY6        0.0000 
     58 CA         11.0300    5.6800   28.5500 C.3       5 GLY6        0.0000 
     59 CA         15.7900    1.0100   29.3000 C.3       5 GLY6        0.0000 
     60 CA         14.4000    1.5400   29.4600 C.3       5 GLY6        0.0000 
     61 CA         13.9900    0.2700   30.1400 C.3       5 GLY6        0.0000 
     62 DU         15.8900    3.0300   23.2700 H         6 CUB7        0.0000 
     63 DU         14.5000    3.5600   23.4200 H         6 CUB7        0.0000 
     64 DU         14.4600    2.8900   25.4300 H         6 CUB7        0.0000 
     65 DU         13.0700    3.4200   25.5900 H         6 CUB7        0.0000 
     66 DU         11.4700    7.6200   25.8500 H         6 CUB7        0.0000 
     67 DU         12.4600    5.8200   26.3800 H         6 CUB7        0.0000 
     68 DU         11.0600    6.3500   26.5400 H         6 CUB7        0.0000 
     69 DU         12.0500    4.5500   27.0700 H         6 CUB7        0.0000 
     70 DU         10.6600    5.0800   27.2200 H         6 CUB7        0.0000 
     71 DU         14.4300    2.2100   27.4400 H         6 CUB7        0.0000 
     72 DU         13.0400    2.7500   27.6000 H         6 CUB7        0.0000 
     73 DU         11.6400    3.2800   27.7500 H         6 CUB7        0.0000 
     74 DU         11.2300    2.0100   28.4400 H         6 CUB7        0.0000 
     75 DU          9.4700   10.5500   26.8000 H         6 CUB7        0.0000 
     76 DU         13.0000    2.0700   29.6100 H         6 CUB7        0.0000 
     77 DU         12.5900    0.8000   30.3000 H         6 CUB7        0.0000 
     78 DU         11.2000    1.3400   30.4500 H         6 CUB7        0.0000 
@<TRIPOS>BOND
@<TRIPOS>SUBSTRUCTURE
     1 SER1        1 GROUP   
     2 ALA2        5 GROUP   
     3 LYS4       22 GROUP   
     4 PHE5       30 GROUP   
     5 GLY6       42 GROUP   
     6 CUB7       62 GROUP   
@<TRIPOS>SET

