#    Name: 6ngp_1_H4B_CAVITY_N1_6
#    Modification time : Fri May 22 19:30:32 2020

@<TRIPOS>MOLECULE
6ngp_1_H4B_CAVITY_N1_6
   28     0     5     0     0
SMALL
NO_CHARGES


@<TRIPOS>ATOM
      1 N          13.8200    4.6100   28.2400 N.am      1 ALA2        0.0000 
      2 N          12.4200    5.1400   28.3900 N.am      1 ALA2        0.0000 
      3 N          13.4100    3.3400   28.9200 N.am      1 ALA2        0.0000 
      4 N          12.0200    3.8700   29.0800 N.am      1 ALA2        0.0000 
      5 N          11.9800    3.2000   31.0900 N.am      1 ALA2        0.0000 
      6 N          11.5700    1.9300   31.7800 N.am      1 ALA2        0.0000 
      7 NZ         14.0200    0.9400   28.1300 N.4       2 LYS4        0.0000 
      8 NZ         12.6300    1.4800   28.2900 N.4       2 LYS4        0.0000 
      9 NZ         12.2200    0.2100   28.9700 N.4       2 LYS4        0.0000 
     10 NZ         10.8300    0.7400   29.1300 N.4       2 LYS4        0.0000 
     11 CZ         10.2500    3.8100   27.9100 C.ar      3 PHE5        0.0000 
     12 CZ          8.8500    4.3400   28.0600 C.ar      3 PHE5        0.0000 
     13 CZ          9.6400    6.2100   28.7000 C.ar      3 PHE5        0.0000 
     14 CZ         10.6200    4.4100   29.2300 C.ar      3 PHE5        0.0000 
     15 CZ         11.6100    2.6100   29.7700 C.ar      3 PHE5        0.0000 
     16 CZ          9.8100    1.8700   30.6100 C.ar      3 PHE5        0.0000 
     17 CZ         10.1800    2.4600   31.9300 C.ar      3 PHE5        0.0000 
     18 CA         13.6100   -0.3200   28.8200 C.3       4 GLY6        0.0000 
     19 CA         11.0300    5.6800   28.5500 C.3       4 GLY6        0.0000 
     20 CA         15.7900    1.0100   29.3000 C.3       4 GLY6        0.0000 
     21 CA         14.4000    1.5400   29.4600 C.3       4 GLY6        0.0000 
     22 CA         13.9900    0.2700   30.1400 C.3       4 GLY6        0.0000 
     23 DU         13.0400    2.7500   27.6000 H         5 CUB7        0.0000 
     24 DU         11.6400    3.2800   27.7500 H         5 CUB7        0.0000 
     25 DU         11.2300    2.0100   28.4400 H         5 CUB7        0.0000 
     26 DU         13.0000    2.0700   29.6100 H         5 CUB7        0.0000 
     27 DU         12.5900    0.8000   30.3000 H         5 CUB7        0.0000 
     28 DU         11.2000    1.3400   30.4500 H         5 CUB7        0.0000 
@<TRIPOS>BOND
@<TRIPOS>SUBSTRUCTURE
     1 ALA2        1 GROUP   
     2 LYS4        7 GROUP   
     3 PHE5       11 GROUP   
     4 GLY6       18 GROUP   
     5 CUB7       23 GROUP   
@<TRIPOS>SET

