#    Name: 6ngp_2_H4B_CAVITY_N1_ALL
#    Modification time : Fri May 22 19:30:48 2020

@<TRIPOS>MOLECULE
6ngp_2_H4B_CAVITY_N1_ALL
   83     0     6     0     0
SMALL
NO_CHARGES


@<TRIPOS>ATOM
      1 OG         13.5600    8.7300   55.3400 O.3       1 SER1        0.0000 
      2 OG         13.1500    7.4600   56.0300 O.3       1 SER1        0.0000 
      3 N          12.2300    2.0000   51.9500 N.am      2 ALA2        0.0000 
      4 N          11.6200    4.4000   52.7400 N.am      2 ALA2        0.0000 
      5 N          11.2100    3.1300   53.4300 N.am      2 ALA2        0.0000 
      6 N          10.8000    1.8600   54.1100 N.am      2 ALA2        0.0000 
      7 O           9.0000    1.1300   54.9600 O.2       2 ALA2        0.0000 
      8 N          10.6000    5.5300   54.2200 N.am      2 ALA2        0.0000 
      9 N          11.5800    3.7300   54.7500 N.am      2 ALA2        0.0000 
     10 N          10.1900    4.2600   54.9100 N.am      2 ALA2        0.0000 
     11 N           9.3700    1.7200   56.2800 N.am      2 ALA2        0.0000 
     12 N           8.9700    0.4500   56.9700 N.am      2 ALA2        0.0000 
     13 O           9.5800    6.6600   55.7000 O.2       2 ALA2        0.0000 
     14 N           9.7500    2.3200   57.6000 N.am      2 ALA2        0.0000 
     15 N           9.3400    1.0500   58.2900 N.am      2 ALA2        0.0000 
     16 N           7.9500    1.5800   58.4500 N.am      2 ALA2        0.0000 
     17 N           9.1400    4.7200   58.4000 N.am      2 ALA2        0.0000 
     18 N           7.7400    5.2500   58.5500 N.am      2 ALA2        0.0000 
     19 N           8.7300    3.4500   59.0800 N.am      2 ALA2        0.0000 
     20 N           7.3400    3.9800   59.2400 N.am      2 ALA2        0.0000 
     21 NZ         13.5900    0.8000   53.8000 N.4       3 LYS4        0.0000 
     22 NZ         12.2000    1.3300   53.9600 N.4       3 LYS4        0.0000 
     23 NZ         11.7900    0.0600   54.6500 N.4       3 LYS4        0.0000 
     24 NZ          9.9900   -0.6800   55.4900 N.4       3 LYS4        0.0000 
     25 NZ         12.5700    1.9300   55.2800 N.4       3 LYS4        0.0000 
     26 NZ         12.1600    0.6600   55.9700 N.4       3 LYS4        0.0000 
     27 NZ         10.7700    1.1900   56.1200 N.4       3 LYS4        0.0000 
     28 NZ         10.3600   -0.0800   56.8100 N.4       3 LYS4        0.0000 
     29 CZ         12.6400    3.2700   51.2600 C.ar      4 PHE5        0.0000 
     30 CZ         14.4100    3.3400   52.4300 C.ar      4 PHE5        0.0000 
     31 CZ         14.0000    2.0700   53.1200 C.ar      4 PHE5        0.0000 
     32 CZ         12.6000    2.6000   53.2700 C.ar      4 PHE5        0.0000 
     33 CZ         13.3900    4.4700   53.9100 C.ar      4 PHE5        0.0000 
     34 CZ         11.9900    5.0000   54.0600 C.ar      4 PHE5        0.0000 
     35 CZ         12.9800    3.2000   54.6000 C.ar      4 PHE5        0.0000 
     36 CZ         12.7800    6.8600   54.7000 C.ar      4 PHE5        0.0000 
     37 CZ         13.7600    5.0600   55.2300 C.ar      4 PHE5        0.0000 
     38 CZ         12.3700    5.5900   55.3900 C.ar      4 PHE5        0.0000 
     39 CZ          9.9200    6.5800   59.0300 C.ar      4 PHE5        0.0000 
     40 CZ         10.9100    4.7800   59.5700 C.ar      4 PHE5        0.0000 
     41 CZ          9.5100    5.3100   59.7200 C.ar      4 PHE5        0.0000 
     42 CZ          8.1200    5.8400   59.8800 C.ar      4 PHE5        0.0000 
     43 CZ          9.1000    4.0400   60.4100 C.ar      4 PHE5        0.0000 
     44 CZ          7.7100    4.5700   60.5600 C.ar      4 PHE5        0.0000 
     45 CZ         10.7000    8.4500   59.6700 C.ar      4 PHE5        0.0000 
     46 CZ          9.3100    8.9800   59.8300 C.ar      4 PHE5        0.0000 
     47 CZ          8.9000    7.7100   60.5100 C.ar      4 PHE5        0.0000 
     48 CZ          8.4900    6.4400   61.2000 C.ar      4 PHE5        0.0000 
     49 CA         11.4100   -0.5400   53.3200 C.3       5 GLY6        0.0000 
     50 CA         10.0200    0.0000   53.4800 C.3       5 GLY6        0.0000 
     51 CA          8.5900   -0.1400   55.6400 C.3       5 GLY6        0.0000 
     52 CA          9.7800    2.9900   55.5900 C.3       5 GLY6        0.0000 
     53 CA         11.3800    7.4000   54.8600 C.3       5 GLY6        0.0000 
     54 CA         10.9700    6.1300   55.5400 C.3       5 GLY6        0.0000 
     55 CA         10.5600    4.8600   56.2300 C.3       5 GLY6        0.0000 
     56 CA         10.1600    3.5900   56.9200 C.3       5 GLY6        0.0000 
     57 CA         12.1600    9.2600   55.4900 C.3       5 GLY6        0.0000 
     58 CA          9.9500    7.2500   57.0200 C.3       5 GLY6        0.0000 
     59 CA          9.5500    5.9800   57.7100 C.3       5 GLY6        0.0000 
     60 CA          8.1500    6.5200   57.8600 C.3       5 GLY6        0.0000 
     61 CA         12.5400    9.8600   56.8200 C.3       5 GLY6        0.0000 
     62 CA         11.1400   10.3900   56.9700 C.3       5 GLY6        0.0000 
     63 CA         12.1300    8.5900   57.5000 C.3       5 GLY6        0.0000 
     64 CA         10.7400    9.1200   57.6600 C.3       5 GLY6        0.0000 
     65 CA          9.3400    9.6500   57.8100 C.3       5 GLY6        0.0000 
     66 CA          8.9300    8.3800   58.5000 C.3       5 GLY6        0.0000 
     67 CA          8.5300    7.1100   59.1900 C.3       5 GLY6        0.0000 
     68 CA          7.1300    7.6500   59.3400 C.3       5 GLY6        0.0000 
     69 CA         11.1100    9.7200   58.9800 C.3       5 GLY6        0.0000 
     70 DU         13.6200    1.4700   51.7900 H         6 CUB7        0.0000 
     71 DU         11.8200    0.7300   52.6300 H         6 CUB7        0.0000 
     72 DU         10.3900    0.5900   54.8000 H         6 CUB7        0.0000 
     73 DU         11.1800    2.4600   55.4400 H         6 CUB7        0.0000 
     74 DU         11.9600    4.3200   56.0700 H         6 CUB7        0.0000 
     75 DU         11.5500    3.0600   56.7600 H         6 CUB7        0.0000 
     76 DU         11.1400    1.7900   57.4500 H         6 CUB7        0.0000 
     77 DU         11.7600    7.9900   56.1800 H         6 CUB7        0.0000 
     78 DU         10.3600    8.5200   56.3300 H         6 CUB7        0.0000 
     79 DU         11.3500    6.7200   56.8700 H         6 CUB7        0.0000 
     80 DU         10.9400    5.4500   57.5500 H         6 CUB7        0.0000 
     81 DU         10.5300    4.1800   58.2400 H         6 CUB7        0.0000 
     82 DU         10.1200    2.9100   58.9300 H         6 CUB7        0.0000 
     83 DU         10.3300    7.8500   58.3500 H         6 CUB7        0.0000 
@<TRIPOS>BOND
@<TRIPOS>SUBSTRUCTURE
     1 SER1        1 GROUP   
     2 ALA2        3 GROUP   
     3 LYS4       21 GROUP   
     4 PHE5       29 GROUP   
     5 GLY6       49 GROUP   
     6 CUB7       70 GROUP   
@<TRIPOS>SET

