#    Name: 6j24_2_SAM
#    Modification time : Fri May 22 19:34:06 2020

@<TRIPOS>MOLECULE
6j24_2_SAM
   27    29     1     0     0
SMALL
NO_CHARGES


@<TRIPOS>ATOM
      1 N         -11.9730   14.8310   12.8390 N.4       1 SAM402      0.0000 
      2 CA        -12.3170   16.2400   12.9570 C.3       1 SAM402      0.0000 
      3 C         -11.8430   16.8320   14.2800 C.2       1 SAM402      0.0000 
      4 O         -11.2150   17.8900   14.3220 O.co2     1 SAM402      0.0000 
      5 OXT       -12.0680   16.2680   15.3510 O.co2     1 SAM402      0.0000 
      6 CB        -13.8260   16.4080   12.8250 C.3       1 SAM402      0.0000 
      7 CG        -14.2730   17.0460   11.5150 C.3       1 SAM402      0.0000 
      8 SD        -16.0570   16.9550   11.2040 S.3       1 SAM402      0.0000 
      9 CE        -16.7560   16.4140   12.7890 C.3       1 SAM402      0.0000 
     10 C5'       -16.1410   15.4600   10.1780 C.3       1 SAM402      0.0000 
     11 C4'       -15.1260   15.5340    9.0370 C.3       1 SAM402      0.0000 
     12 O4'       -15.2120   14.3900    8.2070 O.3       1 SAM402      0.0000 
     13 C3'       -15.3990   16.7490    8.1600 C.3       1 SAM402      0.0000 
     14 O3'       -14.2220   17.4990    8.0480 O.3       1 SAM402      0.0000 
     15 C2'       -15.7770   16.2070    6.8010 C.3       1 SAM402      0.0000 
     16 O2'       -15.1720   16.9120    5.7510 O.3       1 SAM402      0.0000 
     17 C1'       -15.1900   14.8190    6.8550 C.3       1 SAM402      0.0000 
     18 N9        -15.8950   13.9040    5.9670 N.pl3     1 SAM402      0.0000 
     19 C8        -17.2430   13.7550    5.7740 C.2       1 SAM402      0.0000 
     20 N7        -17.4120   12.7800    4.8540 N.2       1 SAM402      0.0000 
     21 C5        -16.1910   12.3210    4.4700 C.ar      1 SAM402      0.0000 
     22 C6        -15.7760   11.3470    3.5750 C.ar      1 SAM402      0.0000 
     23 N6        -16.6700   10.6460    2.8910 N.pl3     1 SAM402      0.0000 
     24 N1        -14.4200   11.1170    3.4120 N.ar      1 SAM402      0.0000 
     25 C2        -13.4810   11.8370    4.1230 C.ar      1 SAM402      0.0000 
     26 N3        -13.9020   12.8030    5.0060 N.ar      1 SAM402      0.0000 
     27 C4        -15.2310   13.0340    5.1660 C.ar      1 SAM402      0.0000 
@<TRIPOS>BOND
     1    1    2 1    
     2    2    3 1    
     3    2    6 1    
     4    3    4 ar   
     5    3    5 ar   
     6    6    7 1    
     7    7    8 1    
     8    8    9 1    
     9    8   10 1    
    10   10   11 1    
    11   11   12 1    
    12   11   13 1    
    13   12   17 1    
    14   13   14 1    
    15   13   15 1    
    16   15   16 1    
    17   15   17 1    
    18   17   18 1    
    19   18   19 1    
    20   18   27 1    
    21   19   20 2    
    22   20   21 1    
    23   21   22 ar   
    24   21   27 ar   
    25   22   23 1    
    26   22   24 ar   
    27   24   25 ar   
    28   25   26 ar   
    29   26   27 ar   
@<TRIPOS>SUBSTRUCTURE
     1 SAM402      1 GROUP   
@<TRIPOS>SET

