#    Name: 6j24_1_SAM
#    Modification time : Fri May 22 19:34:02 2020

@<TRIPOS>MOLECULE
6j24_1_SAM
   27    29     1     0     0
SMALL
NO_CHARGES


@<TRIPOS>ATOM
      1 N         -58.5710   35.3850   33.4450 N.4       1 SAM402      0.0000 
      2 CA        -58.1510   33.9990   33.2620 C.3       1 SAM402      0.0000 
      3 C         -57.3900   33.5010   34.4890 C.2       1 SAM402      0.0000 
      4 O         -57.6770   32.4510   35.0570 O.co2     1 SAM402      0.0000 
      5 OXT       -56.4590   34.1510   34.9630 O.co2     1 SAM402      0.0000 
      6 CB        -57.2790   33.8810   32.0190 C.3       1 SAM402      0.0000 
      7 CG        -57.7420   32.8700   30.9750 C.3       1 SAM402      0.0000 
      8 SD        -56.8020   32.9660   29.4240 S.3       1 SAM402      0.0000 
      9 CE        -55.3390   33.9140   29.9110 C.3       1 SAM402      0.0000 
     10 C5'       -57.7530   34.1850   28.4720 C.3       1 SAM402      0.0000 
     11 C4'       -59.2640   33.9920   28.5980 C.3       1 SAM402      0.0000 
     12 O4'       -59.9410   35.0110   27.8860 O.3       1 SAM402      0.0000 
     13 C3'       -59.7090   32.6580   28.0120 C.3       1 SAM402      0.0000 
     14 O3'       -60.5520   32.0230   28.9370 O.3       1 SAM402      0.0000 
     15 C2'       -60.5260   33.0030   26.7880 C.3       1 SAM402      0.0000 
     16 O2'       -61.6500   32.1600   26.6670 O.3       1 SAM402      0.0000 
     17 C1'       -60.9560   34.4300   27.0860 C.3       1 SAM402      0.0000 
     18 N9        -61.1920   35.2350   25.8850 N.pl3     1 SAM402      0.0000 
     19 C8        -60.4190   35.3420   24.7640 C.2       1 SAM402      0.0000 
     20 N7        -61.0260   36.2090   23.9290 N.2       1 SAM402      0.0000 
     21 C5        -62.1720   36.6490   24.4970 C.ar      1 SAM402      0.0000 
     22 C6        -63.1510   37.5360   24.0850 C.ar      1 SAM402      0.0000 
     23 N6        -63.0740   38.1290   22.8950 N.pl3     1 SAM402      0.0000 
     24 N1        -64.2180   37.7720   24.9270 N.ar      1 SAM402      0.0000 
     25 C2        -64.3130   37.1530   26.1570 C.ar      1 SAM402      0.0000 
     26 N3        -63.3270   36.2780   26.5540 N.ar      1 SAM402      0.0000 
     27 C4        -62.2840   36.0320   25.7340 C.ar      1 SAM402      0.0000 
@<TRIPOS>BOND
     1    1    2 1    
     2    2    3 1    
     3    2    6 1    
     4    3    4 ar   
     5    3    5 ar   
     6    6    7 1    
     7    7    8 1    
     8    8    9 1    
     9    8   10 1    
    10   10   11 1    
    11   11   12 1    
    12   11   13 1    
    13   12   17 1    
    14   13   14 1    
    15   13   15 1    
    16   15   16 1    
    17   15   17 1    
    18   17   18 1    
    19   18   19 1    
    20   18   27 1    
    21   19   20 2    
    22   20   21 1    
    23   21   22 ar   
    24   21   27 ar   
    25   22   23 1    
    26   22   24 ar   
    27   24   25 ar   
    28   25   26 ar   
    29   26   27 ar   
@<TRIPOS>SUBSTRUCTURE
     1 SAM402      1 GROUP   
@<TRIPOS>SET

