#    Name: 6ces_1_GNP
#    Modification time : Fri May 22 19:25:58 2020

@<TRIPOS>MOLECULE
6ces_1_GNP
   32    34     1     0     1
SMALL
NO_CHARGES


@<TRIPOS>ATOM
      1 PG        110.1710  127.8780  185.1250 P.3       1 GNP500      0.0000 
      2 O1G       111.1220  127.5050  183.8830 O.co2     1 GNP500      0.0000 
      3 O2G       110.8200  127.4960  186.3980 O.co2     1 GNP500      0.0000 
      4 O3G       108.7640  127.1110  184.9800 O.co2     1 GNP500      0.0000 
      5 N3B       109.8960  129.6000  185.1590 N.3       1 GNP500      0.0000 
      6 PB        109.4300  130.2750  186.6950 P.3       1 GNP500      0.0000 
      7 O1B       108.5650  129.2820  187.3610 O.co2     1 GNP500      0.0000 
      8 O2B       110.7860  130.4760  187.5280 O.co2     1 GNP500      0.0000 
      9 O3A       108.6640  131.6800  186.4860 O.3       1 GNP500      0.0000 
     10 PA        107.8280  132.3980  187.6590 P.3       1 GNP500      0.0000 
     11 O1A       106.8940  131.4040  188.2960 O.co2     1 GNP500      0.0000 
     12 O2A       108.7800  133.1730  188.5300 O.co2     1 GNP500      0.0000 
     13 O5'       106.9210  133.4520  186.8560 O.3       1 GNP500      0.0000 
     14 C5'       105.7860  132.9470  186.1680 C.3       1 GNP500      0.0000 
     15 C4'       104.6580  133.9620  186.0400 C.3       1 GNP500      0.0000 
     16 O4'       103.7020  133.8500  187.0940 O.3       1 GNP500      0.0000 
     17 C3'       105.1400  135.3980  186.0640 C.3       1 GNP500      0.0000 
     18 O3'       105.1500  135.9080  184.7320 O.3       1 GNP500      0.0000 
     19 C2'       104.1060  136.1470  186.8750 C.3       1 GNP500      0.0000 
     20 O2'       103.5190  137.1700  186.0710 O.3       1 GNP500      0.0000 
     21 C1'       103.0640  135.1160  187.2550 C.3       1 GNP500      0.0000 
     22 N9        102.6830  135.3210  188.6630 N.pl3     1 GNP500      0.0000 
     23 C8        103.2550  134.7070  189.7010 C.2       1 GNP500      0.0000 
     24 N7        102.6880  135.1000  190.8630 N.2       1 GNP500      0.0000 
     25 C5        101.7380  136.0000  190.5770 C.2       1 GNP500      0.0000 
     26 C6        100.7670  136.8020  191.3470 C.2       1 GNP500      0.0000 
     27 O6        100.7080  136.7410  192.5900 O.2       1 GNP500      0.0000 
     28 N1         99.9500  137.6090  190.6700 N.am      1 GNP500      0.0000 
     29 C2         99.9890  137.7030  189.3320 C.2       1 GNP500      0.0000 
     30 N2         99.1210  138.5480  188.7270 N.pl3     1 GNP500      0.0000 
     31 N3        100.8530  136.9920  188.5630 N.2       1 GNP500      0.0000 
     32 C4        101.7370  136.1410  189.1200 C.2       1 GNP500      0.0000 
@<TRIPOS>BOND
     1    1    2 ar   
     2    1    3 ar   
     3    1    4 ar   
     4    1    5 1    
     5    5    6 1    
     6    6    7 ar   
     7    6    8 ar   
     8    6    9 1    
     9    9   10 1    
    10   10   11 ar   
    11   10   12 ar   
    12   10   13 1    
    13   13   14 1    
    14   14   15 1    
    15   15   16 1    
    16   15   17 1    
    17   16   21 1    
    18   17   18 1    
    19   17   19 1    
    20   19   20 1    
    21   19   21 1    
    22   21   22 1    
    23   22   23 1    
    24   22   32 1    
    25   23   24 2    
    26   24   25 1    
    27   25   26 1    
    28   25   32 2    
    29   26   27 2    
    30   26   28 am   
    31   28   29 1    
    32   29   30 1    
    33   29   31 2    
    34   31   32 1    
@<TRIPOS>SUBSTRUCTURE
     1 GNP500      1 GROUP   
@<TRIPOS>SET
ATOM$ORANGE STATIC     ATOMS   COLORGROUP SYSTEM 
20 14 14 15 15 17 17 19 19 21 21 23 23 25 25 26 26 29 \
29 32 32 

