#    Name: 6qcj_2_XEG
#    Modification time : Fri May 22 19:33:45 2020

@<TRIPOS>MOLECULE
6qcj_2_XEG
   32    35     1     0     0
SMALL
NO_CHARGES


@<TRIPOS>ATOM
      1 OAA       -21.8910   27.1130   16.1370 O.2       1 XEG407      0.0000 
      2 OAB       -28.2050   28.7200   16.6740 O.3       1 XEG407      0.0000 
      3 OAC       -25.9870   20.8880   20.1820 O.3       1 XEG407      0.0000 
      4 OAD       -23.5720   20.7910   19.2270 O.3       1 XEG407      0.0000 
      5 OAE       -17.4130   28.2700   14.4120 O.3       1 XEG407      0.0000 
      6 OAF       -17.6760   30.8320   18.2670 O.3       1 XEG407      0.0000 
      7 OAG       -26.2020   28.7460   21.0060 O.3       1 XEG407      0.0000 
      8 OAH       -16.3990   30.0160   16.1040 O.3       1 XEG407      0.0000 
      9 CAI       -26.0120   23.3490   19.9120 C.ar      1 XEG407      0.0000 
     10 CAJ       -25.3470   24.5060   19.4580 C.ar      1 XEG407      0.0000 
     11 CAK       -27.2390   28.7680   18.8650 C.ar      1 XEG407      0.0000 
     12 CAL       -19.4460   28.0830   15.7710 C.ar      1 XEG407      0.0000 
     13 CAM       -19.6200   29.3720   17.8010 C.ar      1 XEG407      0.0000 
     14 CAN       -26.1760   27.6270   17.0220 C.ar      1 XEG407      0.0000 
     15 CAO       -23.4820   23.1830   18.8360 C.ar      1 XEG407      0.0000 
     16 CAP       -23.9330   27.1960   20.0090 C.3       1 XEG407      0.0000 
     17 OAQ       -22.1780   27.8980   18.2580 O.3       1 XEG407      0.0000 
     18 OAR       -24.1460   26.4540   17.3170 O.3       1 XEG407      0.0000 
     19 CAS       -21.4950   27.7500   17.0670 C.2       1 XEG407      0.0000 
     20 CAT       -27.2150   28.3760   17.5330 C.ar      1 XEG407      0.0000 
     21 CAU       -25.4170   22.0940   19.8200 C.ar      1 XEG407      0.0000 
     22 CAV       -24.1670   22.0340   19.2280 C.ar      1 XEG407      0.0000 
     23 CAW       -18.1850   28.5980   15.5070 C.ar      1 XEG407      0.0000 
     24 CAX       -18.3500   29.9100   17.5130 C.ar      1 XEG407      0.0000 
     25 CAY       -26.1970   28.3660   19.6980 C.ar      1 XEG407      0.0000 
     26 CAZ       -20.1760   28.4560   16.9110 C.ar      1 XEG407      0.0000 
     27 CBA       -24.0570   24.4640   18.9100 C.ar      1 XEG407      0.0000 
     28 CBB       -17.6400   29.5260   16.3770 C.ar      1 XEG407      0.0000 
     29 CBC       -25.1460   27.2440   17.8610 C.ar      1 XEG407      0.0000 
     30 CBD       -25.1410   27.5880   19.2020 C.ar      1 XEG407      0.0000 
     31 CBE       -22.7650   26.7780   19.1100 C.3       1 XEG407      0.0000 
     32 CBF       -23.3110   25.6600   18.2720 C.3       1 XEG407      0.0000 
@<TRIPOS>BOND
     1    1   19 2    
     2    2   20 1    
     3    3   21 1    
     4    4   22 1    
     5    5   23 1    
     6    6   24 1    
     7    7   25 1    
     8    8   28 1    
     9    9   10 ar   
    10    9   21 ar   
    11   10   27 ar   
    12   11   20 ar   
    13   11   25 ar   
    14   12   23 ar   
    15   12   26 ar   
    16   13   24 ar   
    17   13   26 ar   
    18   14   20 ar   
    19   14   29 ar   
    20   15   22 ar   
    21   15   27 ar   
    22   16   30 1    
    23   16   31 1    
    24   17   19 1    
    25   17   31 1    
    26   18   29 1    
    27   18   32 1    
    28   19   26 1    
    29   21   22 ar   
    30   23   28 ar   
    31   24   28 ar   
    32   25   30 ar   
    33   27   32 1    
    34   29   30 ar   
    35   31   32 1    
@<TRIPOS>SUBSTRUCTURE
     1 XEG407      1 GROUP   
@<TRIPOS>SET

