#    Name: 6qcj_4_XEG
#    Modification time : Fri May 22 19:33:59 2020

@<TRIPOS>MOLECULE
6qcj_4_XEG
   32    35     1     0     0
SMALL
NO_CHARGES


@<TRIPOS>ATOM
      1 OAA       -33.2960   11.3640   44.2280 O.2       1 XEG407      0.0000 
      2 OAB       -36.4830   15.9330   45.3500 O.3       1 XEG407      0.0000 
      3 OAC       -28.5770   16.9900   41.3290 O.3       1 XEG407      0.0000 
      4 OAD       -27.8610   14.7610   42.7070 O.3       1 XEG407      0.0000 
      5 OAE       -33.3920    6.1730   45.3340 O.3       1 XEG407      0.0000 
      6 OAF       -36.5900    6.9690   42.0180 O.3       1 XEG407      0.0000 
      7 OAG       -36.6850   14.8860   40.5920 O.3       1 XEG407      0.0000 
      8 OAH       -35.2970    5.3310   43.8080 O.3       1 XEG407      0.0000 
      9 CAI       -30.8310   16.1410   41.1170 C.ar      1 XEG407      0.0000 
     10 CAJ       -31.7540   15.1160   41.3620 C.ar      1 XEG407      0.0000 
     11 CAK       -36.6860   15.4730   42.9220 C.ar      1 XEG407      0.0000 
     12 CAL       -33.5550    8.4520   44.4040 C.ar      1 XEG407      0.0000 
     13 CAM       -35.2090    8.7930   42.6750 C.ar      1 XEG407      0.0000 
     14 CAN       -34.9260   14.6160   44.3580 C.ar      1 XEG407      0.0000 
     15 CAO       -30.0600   13.8680   42.5080 C.ar      1 XEG407      0.0000 
     16 CAP       -34.2580   13.3040   40.8890 C.3       1 XEG407      0.0000 
     17 OAQ       -34.0960   11.2060   42.1000 O.3       1 XEG407      0.0000 
     18 OAR       -33.2030   13.2590   43.5520 O.3       1 XEG407      0.0000 
     19 CAS       -33.7940   10.7220   43.3380 C.2       1 XEG407      0.0000 
     20 CAT       -36.0670   15.3670   44.1810 C.ar      1 XEG407      0.0000 
     21 CAU       -29.5230   16.0360   41.5700 C.ar      1 XEG407      0.0000 
     22 CAV       -29.1520   14.8950   42.2780 C.ar      1 XEG407      0.0000 
     23 CAW       -33.9370    7.1200   44.5060 C.ar      1 XEG407      0.0000 
     24 CAX       -35.5830    7.4790   42.7850 C.ar      1 XEG407      0.0000 
     25 CAY       -36.0850   14.8340   41.8250 C.ar      1 XEG407      0.0000 
     26 CAZ       -34.1920    9.2910   43.4850 C.ar      1 XEG407      0.0000 
     27 CBA       -31.3920   13.9800   42.0870 C.ar      1 XEG407      0.0000 
     28 CBB       -34.9480    6.6360   43.6920 C.ar      1 XEG407      0.0000 
     29 CBC       -34.3580   13.9720   43.2720 C.ar      1 XEG407      0.0000 
     30 CBD       -34.9070   14.0740   42.0010 C.ar      1 XEG407      0.0000 
     31 CBE       -33.2960   12.2590   41.4280 C.3       1 XEG407      0.0000 
     32 CBF       -32.3440   12.8480   42.4380 C.3       1 XEG407      0.0000 
@<TRIPOS>BOND
     1    1   19 2    
     2    2   20 1    
     3    3   21 1    
     4    4   22 1    
     5    5   23 1    
     6    6   24 1    
     7    7   25 1    
     8    8   28 1    
     9    9   10 ar   
    10    9   21 ar   
    11   10   27 ar   
    12   11   20 ar   
    13   11   25 ar   
    14   12   23 ar   
    15   12   26 ar   
    16   13   24 ar   
    17   13   26 ar   
    18   14   20 ar   
    19   14   29 ar   
    20   15   22 ar   
    21   15   27 ar   
    22   16   30 1    
    23   16   31 1    
    24   17   19 1    
    25   17   31 1    
    26   18   29 1    
    27   18   32 1    
    28   19   26 1    
    29   21   22 ar   
    30   23   28 ar   
    31   24   28 ar   
    32   25   30 ar   
    33   27   32 1    
    34   29   30 ar   
    35   31   32 1    
@<TRIPOS>SUBSTRUCTURE
     1 XEG407      1 GROUP   
@<TRIPOS>SET

