#    Name: 6qcj_1_AR6
#    Modification time : Fri May 22 19:33:39 2020

@<TRIPOS>MOLECULE
6qcj_1_AR6
   36    39     1     0     0
SMALL
NO_CHARGES


@<TRIPOS>ATOM
      1 N1        -30.0930    9.5940   24.3340 N.ar      1 AR6401      0.0000 
      2 C2        -30.9130    9.4560   23.2070 C.ar      1 AR6401      0.0000 
      3 N3        -31.5460   10.5310   22.5990 N.ar      1 AR6401      0.0000 
      4 C4        -31.1270   11.7500   22.9990 C.ar      1 AR6401      0.0000 
      5 C5        -30.3220   11.9440   24.1300 C.ar      1 AR6401      0.0000 
      6 C6        -29.7760   10.8910   24.7570 C.ar      1 AR6401      0.0000 
      7 N6        -28.9120   11.0670   25.8570 N.pl3     1 AR6401      0.0000 
      8 N7        -30.2960   13.3010   24.3040 N.2       1 AR6401      0.0000 
      9 C8        -31.0020   13.8990   23.3800 C.2       1 AR6401      0.0000 
     10 N9        -31.5390   12.9630   22.5770 N.pl3     1 AR6401      0.0000 
     11 PA        -31.9940   17.2610   17.2150 P.3       1 AR6401      0.0000 
     12 PB        -30.1330   16.8050   15.1630 P.3       1 AR6401      0.0000 
     13 C1'       -32.5600   13.0800   21.3720 C.3       1 AR6401      0.0000 
     14 O1A       -32.9650   17.5940   16.1090 O.co2     1 AR6401      0.0000 
     15 O1B       -28.7580   16.3030   15.1980 O.co2     1 AR6401      0.0000 
     16 C1D       -29.8520   21.6610   13.6150 C.3       1 AR6401      0.0000 
     17 O1D       -30.5520   22.8290   13.0930 O.3       1 AR6401      0.0000 
     18 C2'       -33.5570   14.1690   21.2550 C.3       1 AR6401      0.0000 
     19 O2'       -34.7730   13.5810   21.6760 O.3       1 AR6401      0.0000 
     20 O2A       -32.1070   18.0240   18.5730 O.co2     1 AR6401      0.0000 
     21 O2B       -31.2280   15.8810   14.7390 O.co2     1 AR6401      0.0000 
     22 C2D       -28.3090   21.6550   13.3400 C.3       1 AR6401      0.0000 
     23 O2D       -28.0650   22.2170   12.0040 O.3       1 AR6401      0.0000 
     24 C3'       -33.7210   14.3810   19.5680 C.3       1 AR6401      0.0000 
     25 O3'       -34.9290   13.6920   19.2510 O.3       1 AR6401      0.0000 
     26 O3A       -30.5140   17.4190   16.6580 O.3       1 AR6401      0.0000 
     27 C3D       -28.0540   20.1020   13.5000 C.3       1 AR6401      0.0000 
     28 O3D       -26.6990   19.7380   12.8890 O.3       1 AR6401      0.0000 
     29 C4'       -32.3360   13.8930   19.0870 C.3       1 AR6401      0.0000 
     30 O4'       -31.6750   13.1580   20.1800 O.3       1 AR6401      0.0000 
     31 C4D       -29.3050   19.5110   12.7160 C.3       1 AR6401      0.0000 
     32 O4D       -30.3340   20.5350   12.9110 O.3       1 AR6401      0.0000 
     33 C5'       -31.4090   15.1480   18.7240 C.3       1 AR6401      0.0000 
     34 O5'       -32.0700   15.7240   17.4960 O.3       1 AR6401      0.0000 
     35 C5D       -29.7370   18.0830   12.9130 C.3       1 AR6401      0.0000 
     36 O5D       -30.1810   18.1360   14.2320 O.3       1 AR6401      0.0000 
@<TRIPOS>BOND
     1    1    2 ar   
     2    1    6 ar   
     3    2    3 ar   
     4    3    4 ar   
     5    4    5 ar   
     6    4   10 1    
     7    5    6 ar   
     8    5    8 1    
     9    6    7 1    
    10    8    9 2    
    11    9   10 1    
    12   10   13 1    
    13   11   14 ar   
    14   11   20 ar   
    15   11   26 1    
    16   11   34 1    
    17   12   15 ar   
    18   12   21 ar   
    19   12   26 1    
    20   12   36 1    
    21   13   18 1    
    22   13   30 1    
    23   16   17 1    
    24   16   22 1    
    25   16   32 1    
    26   18   19 1    
    27   18   24 1    
    28   22   23 1    
    29   22   27 1    
    30   24   25 1    
    31   24   29 1    
    32   27   28 1    
    33   27   31 1    
    34   29   30 1    
    35   29   33 1    
    36   31   32 1    
    37   31   35 1    
    38   33   34 1    
    39   35   36 1    
@<TRIPOS>SUBSTRUCTURE
     1 AR6401      1 GROUP   
@<TRIPOS>SET

