#    Name: 6qcj_2_XEG_CAVITY_N1_4
#    Modification time : Fri May 22 19:33:46 2020

@<TRIPOS>MOLECULE
6qcj_2_XEG_CAVITY_N1_4
   62     0     4     0     0
SMALL
NO_CHARGES


@<TRIPOS>ATOM
      1 O         -28.0400   29.0000   13.2100 O.2       1 ALA2        0.0000 
      2 N         -25.7800   22.6200   20.8100 N.am      1 ALA2        0.0000 
      3 CZ        -27.6900   27.6400   13.7500 C.ar      2 PHE5        0.0000 
      4 CZ        -27.3500   26.2800   14.2800 C.ar      2 PHE5        0.0000 
      5 CZ        -25.6300   25.0300   14.2000 C.ar      2 PHE5        0.0000 
      6 CZ        -27.0000   24.9200   14.8100 C.ar      2 PHE5        0.0000 
      7 CZ        -25.2900   23.6700   14.7300 C.ar      2 PHE5        0.0000 
      8 CZ        -26.8300   26.9100   15.5400 C.ar      2 PHE5        0.0000 
      9 CZ        -25.1200   25.6600   15.4600 C.ar      2 PHE5        0.0000 
     10 CZ        -26.4800   25.5500   16.0700 C.ar      2 PHE5        0.0000 
     11 CZ        -27.6800   27.4300   17.4100 C.ar      2 PHE5        0.0000 
     12 CZ        -25.9700   26.1800   17.3400 C.ar      2 PHE5        0.0000 
     13 CZ        -27.3300   26.0700   17.9500 C.ar      2 PHE5        0.0000 
     14 CZ        -25.6200   24.8200   17.8700 C.ar      2 PHE5        0.0000 
     15 CZ        -25.2700   23.4600   18.4000 C.ar      2 PHE5        0.0000 
     16 CZ        -24.9300   22.1000   18.9400 C.ar      2 PHE5        0.0000 
     17 CZ        -25.1000   25.4400   19.1300 C.ar      2 PHE5        0.0000 
     18 CZ        -23.3900   24.1900   19.0500 C.ar      2 PHE5        0.0000 
     19 CZ        -24.7600   24.0900   19.6600 C.ar      2 PHE5        0.0000 
     20 CZ        -23.0500   22.8400   19.5900 C.ar      2 PHE5        0.0000 
     21 CZ        -24.9400   27.4300   19.8600 C.ar      2 PHE5        0.0000 
     22 CZ        -26.3000   27.3200   20.4700 C.ar      2 PHE5        0.0000 
     23 CZ        -23.2200   26.1800   19.7800 C.ar      2 PHE5        0.0000 
     24 CZ        -24.5900   26.0700   20.3900 C.ar      2 PHE5        0.0000 
     25 CZ        -25.9500   25.9600   21.0000 C.ar      2 PHE5        0.0000 
     26 CZ        -24.2400   24.7100   20.9300 C.ar      2 PHE5        0.0000 
     27 CZ        -25.6100   24.6000   21.5400 C.ar      2 PHE5        0.0000 
     28 CZ        -25.7900   27.9500   21.7300 C.ar      2 PHE5        0.0000 
     29 CZ        -22.7100   26.8100   21.0400 C.ar      2 PHE5        0.0000 
     30 CA        -26.3300   27.7500   13.1400 C.3       3 GLY6        0.0000 
     31 CA        -25.9800   26.3900   13.6700 C.3       3 GLY6        0.0000 
     32 CA        -24.2700   25.1400   13.5900 C.3       3 GLY6        0.0000 
     33 CA        -24.9400   22.3100   15.2700 C.3       3 GLY6        0.0000 
     34 CA        -27.1800   28.2700   15.0100 C.3       3 GLY6        0.0000 
     35 CA        -23.7500   25.7700   14.8500 C.3       3 GLY6        0.0000 
     36 CA        -24.7700   24.3000   16.0000 C.3       3 GLY6        0.0000 
     37 CA        -26.6600   28.8900   16.2700 C.3       3 GLY6        0.0000 
     38 CA        -24.9500   27.6400   16.1900 C.3       3 GLY6        0.0000 
     39 CA        -26.3100   27.5300   16.8000 C.3       3 GLY6        0.0000 
     40 CA        -23.2400   26.3900   16.1100 C.3       3 GLY6        0.0000 
     41 CA        -22.8900   25.0300   16.6500 C.3       3 GLY6        0.0000 
     42 CA        -24.2500   24.9300   17.2600 C.3       3 GLY6        0.0000 
     43 CA        -23.9100   23.5700   17.7900 C.3       3 GLY6        0.0000 
     44 CA        -23.5600   22.2100   18.3200 C.3       3 GLY6        0.0000 
     45 CA        -24.4300   28.2700   17.4500 C.3       3 GLY6        0.0000 
     46 CA        -27.1600   28.0500   18.6800 C.3       3 GLY6        0.0000 
     47 CA        -22.7200   27.0200   17.3700 C.3       3 GLY6        0.0000 
     48 CA        -26.8200   26.6900   19.2100 C.3       3 GLY6        0.0000 
     49 CA        -22.3700   25.6600   17.9100 C.3       3 GLY6        0.0000 
     50 CA        -26.4700   25.3400   19.7400 C.3       3 GLY6        0.0000 
     51 CA        -26.1200   23.9800   20.2800 C.3       3 GLY6        0.0000 
     52 CA        -24.4100   22.7300   20.2000 C.3       3 GLY6        0.0000 
     53 CA        -28.0100   28.5700   20.5500 C.3       3 GLY6        0.0000 
     54 CA        -22.2100   27.6500   18.6400 C.3       3 GLY6        0.0000 
     55 CA        -27.6700   27.2100   21.0800 C.3       3 GLY6        0.0000 
     56 CA        -21.8600   26.2900   19.1700 C.3       3 GLY6        0.0000 
     57 DU        -24.6000   26.2800   16.7200 H         4 CUB7        0.0000 
     58 DU        -25.8000   28.1600   18.0600 H         4 CUB7        0.0000 
     59 DU        -24.0900   26.9100   17.9900 H         4 CUB7        0.0000 
     60 DU        -25.4500   26.8000   18.6000 H         4 CUB7        0.0000 
     61 DU        -23.7400   25.5500   18.5200 H         4 CUB7        0.0000 
     62 DU        -23.5700   27.5400   19.2500 H         4 CUB7        0.0000 
@<TRIPOS>BOND
@<TRIPOS>SUBSTRUCTURE
     1 ALA2        1 GROUP   
     2 PHE5        3 GROUP   
     3 GLY6       30 GROUP   
     4 CUB7       57 GROUP   
@<TRIPOS>SET

