#    Name: 6qcj_3_AR6_CAVITY_N1_8
#    Modification time : Fri May 22 19:33:56 2020

@<TRIPOS>MOLECULE
6qcj_3_AR6_CAVITY_N1_8
   31     0     3     0     0
SMALL
NO_CHARGES


@<TRIPOS>ATOM
      1 CZ        -36.4500   17.3400   43.8500 C.ar      1 PHE5        0.0000 
      2 CZ        -30.6500   16.4200   41.9400 C.ar      1 PHE5        0.0000 
      3 CZ        -33.3800   16.2000   43.1600 C.ar      1 PHE5        0.0000 
      4 CZ        -34.7400   16.0900   43.7700 C.ar      1 PHE5        0.0000 
      5 CZ        -36.1100   15.9800   44.3800 C.ar      1 PHE5        0.0000 
      6 CZ        -30.3000   15.0600   42.4700 C.ar      1 PHE5        0.0000 
      7 CZ        -31.6600   14.9500   43.0800 C.ar      1 PHE5        0.0000 
      8 CZ        -33.0300   14.8400   43.6900 C.ar      1 PHE5        0.0000 
      9 CZ        -28.5900   13.8100   42.3900 C.ar      1 PHE5        0.0000 
     10 CZ        -34.2300   16.7200   45.0300 C.ar      1 PHE5        0.0000 
     11 CZ        -35.5900   16.6100   45.6400 C.ar      1 PHE5        0.0000 
     12 CZ        -28.4200   15.7900   43.1200 C.ar      1 PHE5        0.0000 
     13 CZ        -32.5100   15.4700   44.9500 C.ar      1 PHE5        0.0000 
     14 CZ        -33.8800   15.3600   45.5700 C.ar      1 PHE5        0.0000 
     15 CA        -32.5300   15.6800   41.2900 C.3       2 GLY6        0.0000 
     16 CA        -33.8900   15.5700   41.9000 C.3       2 GLY6        0.0000 
     17 CA        -28.9300   15.1700   41.8600 C.3       2 GLY6        0.0000 
     18 CA        -35.7600   14.6200   44.9200 C.3       2 GLY6        0.0000 
     19 CA        -29.9500   13.7000   43.0000 C.3       2 GLY6        0.0000 
     20 CA        -31.3200   13.5900   43.6100 C.3       2 GLY6        0.0000 
     21 CA        -32.6800   13.4800   44.2300 C.3       2 GLY6        0.0000 
     22 CA        -34.0500   13.3700   44.8400 C.3       2 GLY6        0.0000 
     23 CA        -30.9700   12.2300   44.1500 C.3       2 GLY6        0.0000 
     24 CA        -32.3400   12.1200   44.7600 C.3       2 GLY6        0.0000 
     25 CA        -35.2400   15.2500   46.1800 C.3       2 GLY6        0.0000 
     26 CA        -33.5300   14.0000   46.1000 C.3       2 GLY6        0.0000 
     27 CA        -31.8200   12.7500   46.0200 C.3       2 GLY6        0.0000 
     28 CA        -33.1900   12.6400   46.6300 C.3       2 GLY6        0.0000 
     29 CA        -32.6700   13.2700   47.8900 C.3       2 GLY6        0.0000 
     30 DU        -32.1800   14.3200   41.8200 H         3 CUB7        0.0000 
     31 DU        -34.3900   14.7300   44.3000 H         3 CUB7        0.0000 
@<TRIPOS>BOND
@<TRIPOS>SUBSTRUCTURE
     1 PHE5        1 GROUP   
     2 GLY6       15 GROUP   
     3 CUB7       30 GROUP   
@<TRIPOS>SET

