#    Name: 6qcj_3_AR6
#    Modification time : Fri May 22 19:33:54 2020

@<TRIPOS>MOLECULE
6qcj_3_AR6
   36    39     1     0     0
SMALL
NO_CHARGES


@<TRIPOS>ATOM
      1 N1        -19.5170   24.8220   37.0200 N.ar      1 AR6401      0.0000 
      2 C2        -19.6030   25.6450   38.1380 C.ar      1 AR6401      0.0000 
      3 N3        -20.8500   25.8450   38.7570 N.ar      1 AR6401      0.0000 
      4 C4        -21.8410   25.1300   38.2330 C.ar      1 AR6401      0.0000 
      5 C5        -21.7280   24.2790   37.1190 C.ar      1 AR6401      0.0000 
      6 C6        -20.5440   24.1020   36.5080 C.ar      1 AR6401      0.0000 
      7 N6        -20.2960   23.2450   35.3750 N.pl3     1 AR6401      0.0000 
      8 N7        -22.9720   23.7970   36.9350 N.2       1 AR6401      0.0000 
      9 C8        -23.7800   24.2720   37.8860 C.2       1 AR6401      0.0000 
     10 N9        -23.1000   25.1160   38.6630 N.pl3     1 AR6401      0.0000 
     11 PA        -27.2080   24.0430   44.0740 P.3       1 AR6401      0.0000 
     12 PB        -26.3060   22.4180   46.2540 P.3       1 AR6401      0.0000 
     13 C1'       -23.5170   25.9560   39.8620 C.3       1 AR6401      0.0000 
     14 O1A       -27.8070   24.8540   45.1830 O.co2     1 AR6401      0.0000 
     15 O1B       -25.3570   21.2620   46.2990 O.co2     1 AR6401      0.0000 
     16 C1D       -30.7250   20.2760   47.6920 C.3       1 AR6401      0.0000 
     17 O1D       -31.9790   20.4780   48.1080 O.3       1 AR6401      0.0000 
     18 C2'       -24.8230   26.6400   39.8730 C.3       1 AR6401      0.0000 
     19 O2'       -24.7010   27.9970   39.5850 O.3       1 AR6401      0.0000 
     20 O2A       -27.9830   23.8920   42.7720 O.co2     1 AR6401      0.0000 
     21 O2B       -25.8510   23.7370   46.7570 O.co2     1 AR6401      0.0000 
     22 C2D       -30.1400   18.8930   48.0330 C.3       1 AR6401      0.0000 
     23 O2D       -30.3720   18.5700   49.3730 O.3       1 AR6401      0.0000 
     24 C3'       -25.2340   26.5760   41.4400 C.3       1 AR6401      0.0000 
     25 O3'       -24.9980   27.8840   41.9880 O.3       1 AR6401      0.0000 
     26 O3A       -26.8670   22.6080   44.6270 O.3       1 AR6401      0.0000 
     27 C3D       -28.6810   19.2610   47.8930 C.3       1 AR6401      0.0000 
     28 O3D       -27.9140   18.1700   48.4400 O.3       1 AR6401      0.0000 
     29 C4'       -24.3590   25.5160   41.9530 C.3       1 AR6401      0.0000 
     30 O4'       -23.5110   24.9670   40.9370 O.3       1 AR6401      0.0000 
     31 C4D       -28.6550   20.6750   48.7200 C.3       1 AR6401      0.0000 
     32 O4D       -29.9850   21.2060   48.4300 O.3       1 AR6401      0.0000 
     33 C5'       -25.1490   24.2800   42.4660 C.3       1 AR6401      0.0000 
     34 O5'       -25.8000   24.6110   43.7490 O.3       1 AR6401      0.0000 
     35 C5D       -27.5870   21.6970   48.4090 C.3       1 AR6401      0.0000 
     36 O5D       -27.6300   22.0160   47.0140 O.3       1 AR6401      0.0000 
@<TRIPOS>BOND
     1    1    2 ar   
     2    1    6 ar   
     3    2    3 ar   
     4    3    4 ar   
     5    4    5 ar   
     6    4   10 1    
     7    5    6 ar   
     8    5    8 1    
     9    6    7 1    
    10    8    9 2    
    11    9   10 1    
    12   10   13 1    
    13   11   14 ar   
    14   11   20 ar   
    15   11   26 1    
    16   11   34 1    
    17   12   15 ar   
    18   12   21 ar   
    19   12   26 1    
    20   12   36 1    
    21   13   18 1    
    22   13   30 1    
    23   16   17 1    
    24   16   22 1    
    25   16   32 1    
    26   18   19 1    
    27   18   24 1    
    28   22   23 1    
    29   22   27 1    
    30   24   25 1    
    31   24   29 1    
    32   27   28 1    
    33   27   31 1    
    34   29   30 1    
    35   29   33 1    
    36   31   32 1    
    37   31   35 1    
    38   33   34 1    
    39   35   36 1    
@<TRIPOS>SUBSTRUCTURE
     1 AR6401      1 GROUP   
@<TRIPOS>SET

