#    Name: 6cxm_2_MMV
#    Modification time : Fri May 22 19:23:33 2020

@<TRIPOS>MOLECULE
6cxm_2_MMV
   26    27     1     0     0
SMALL
NO_CHARGES


@<TRIPOS>ATOM
      1 C1         54.8450  -16.5940   11.6270 C.ar      1 MMV202      0.0000 
      2 N2         54.2640  -17.2300   10.6000 N.ar      1 MMV202      0.0000 
      3 C3         54.0200  -16.5390    9.4710 C.ar      1 MMV202      0.0000 
      4 N4         54.3370  -15.2350    9.3130 N.ar      1 MMV202      0.0000 
      5 C5         54.9210  -14.5850   10.3310 C.ar      1 MMV202      0.0000 
      6 C6         55.1960  -15.2510   11.5250 C.ar      1 MMV202      0.0000 
      7 N7         55.0910  -17.2830   12.7770 N.pl3     1 MMV202      0.0000 
      8 N8         53.4340  -17.1810    8.4570 N.pl3     1 MMV202      0.0000 
      9 C9         55.2520  -13.1420   10.1340 C.3       1 MMV202      0.0000 
     10 C10        54.0740  -12.2270   10.4120 C.3       1 MMV202      0.0000 
     11 O11        55.7850  -14.6330   12.5970 O.3       1 MMV202      0.0000 
     12 C12        54.9170  -14.0680   13.5930 C.3       1 MMV202      0.0000 
     13 C13        55.7260  -13.1400   14.4670 C.3       1 MMV202      0.0000 
     14 C14        56.0950  -11.8420   13.7940 C.3       1 MMV202      0.0000 
     15 O15        54.9080  -11.0470   13.6890 O.3       1 MMV202      0.0000 
     16 C16        54.9770   -9.8600   13.0040 C.ar      1 MMV202      0.0000 
     17 C17        53.7490   -9.2330   12.7390 C.ar      1 MMV202      0.0000 
     18 C18        53.7600   -8.0270   12.0420 C.ar      1 MMV202      0.0000 
     19 C19        54.9460   -7.4580   11.6220 C.ar      1 MMV202      0.0000 
     20 C20        56.1420   -8.0830   11.8910 C.ar      1 MMV202      0.0000 
     21 C21        56.1670   -9.2850   12.5780 C.ar      1 MMV202      0.0000 
     22 C22        52.4470   -9.8620   13.1990 C.3       1 MMV202      0.0000 
     23 C23        51.2940   -8.8790   13.3300 C.3       1 MMV202      0.0000 
     24 C24        49.9880   -9.5070   13.7940 C.2       1 MMV202      0.0000 
     25 O25        49.0600   -8.7450   14.1670 O.co2     1 MMV202      0.0000 
     26 O26        49.8940  -10.7580   13.7850 O.co2     1 MMV202      0.0000 
@<TRIPOS>BOND
     1    1    2 ar   
     2    1    6 ar   
     3    1    7 1    
     4    2    3 ar   
     5    3    4 ar   
     6    3    8 1    
     7    4    5 ar   
     8    5    6 ar   
     9    5    9 1    
    10    6   11 1    
    11    9   10 1    
    12   11   12 1    
    13   12   13 1    
    14   13   14 1    
    15   14   15 1    
    16   15   16 1    
    17   16   17 ar   
    18   16   21 ar   
    19   17   18 ar   
    20   17   22 1    
    21   18   19 ar   
    22   19   20 ar   
    23   20   21 ar   
    24   22   23 1    
    25   23   24 1    
    26   24   25 ar   
    27   24   26 ar   
@<TRIPOS>SUBSTRUCTURE
     1 MMV202      1 GROUP   
@<TRIPOS>SET

