#    Name: 6cxm_1_MMV
#    Modification time : Fri May 22 19:23:31 2020

@<TRIPOS>MOLECULE
6cxm_1_MMV
   26    27     1     0     0
SMALL
NO_CHARGES


@<TRIPOS>ATOM
      1 C1         26.5180   -5.0950   13.3600 C.ar      1 MMV202      0.0000 
      2 N2         25.7420   -5.8220   12.5490 N.ar      1 MMV202      0.0000 
      3 C3         25.2480   -5.2400   11.4420 C.ar      1 MMV202      0.0000 
      4 N4         25.4990   -3.9560   11.0990 N.ar      1 MMV202      0.0000 
      5 C5         26.2740   -3.2120   11.9030 C.ar      1 MMV202      0.0000 
      6 C6         26.8130   -3.7640   13.0650 C.ar      1 MMV202      0.0000 
      7 N7         27.0180   -5.6780   14.4850 N.pl3     1 MMV202      0.0000 
      8 N8         24.4690   -5.9750   10.6440 N.pl3     1 MMV202      0.0000 
      9 C9         26.5280   -1.7960   11.5030 C.3       1 MMV202      0.0000 
     10 C10        25.4290   -0.8340   11.9280 C.3       1 MMV202      0.0000 
     11 O11        27.6110   -3.0560   13.9260 O.3       1 MMV202      0.0000 
     12 C12        26.9910   -2.4340   15.0650 C.3       1 MMV202      0.0000 
     13 C13        27.9350   -1.4150   15.6600 C.3       1 MMV202      0.0000 
     14 C14        28.0070   -0.1130   14.9000 C.3       1 MMV202      0.0000 
     15 O15        26.7850    0.6040   15.1520 O.3       1 MMV202      0.0000 
     16 C16        26.5580    1.7770   14.4770 C.ar      1 MMV202      0.0000 
     17 C17        25.2690    2.3150   14.5970 C.ar      1 MMV202      0.0000 
     18 C18        24.9840    3.5010   13.9270 C.ar      1 MMV202      0.0000 
     19 C19        25.9410    4.1360   13.1620 C.ar      1 MMV202      0.0000 
     20 C20        27.2030    3.5980   13.0560 C.ar      1 MMV202      0.0000 
     21 C21        27.5200    2.4200   13.7080 C.ar      1 MMV202      0.0000 
     22 C22        24.2180    1.6180   15.4350 C.3       1 MMV202      0.0000 
     23 C23        23.1080    2.5560   15.8890 C.3       1 MMV202      0.0000 
     24 C24        22.0050    1.9310   16.7320 C.2       1 MMV202      0.0000 
     25 O25        21.2070    2.7000   17.3260 O.co2     1 MMV202      0.0000 
     26 O26        21.9380    0.6770   16.7950 O.co2     1 MMV202      0.0000 
@<TRIPOS>BOND
     1    1    2 ar   
     2    1    6 ar   
     3    1    7 1    
     4    2    3 ar   
     5    3    4 ar   
     6    3    8 1    
     7    4    5 ar   
     8    5    6 ar   
     9    5    9 1    
    10    6   11 1    
    11    9   10 1    
    12   11   12 1    
    13   12   13 1    
    14   13   14 1    
    15   14   15 1    
    16   15   16 1    
    17   16   17 ar   
    18   16   21 ar   
    19   17   18 ar   
    20   17   22 1    
    21   18   19 ar   
    22   19   20 ar   
    23   20   21 ar   
    24   22   23 1    
    25   23   24 1    
    26   24   25 ar   
    27   24   26 ar   
@<TRIPOS>SUBSTRUCTURE
     1 MMV202      1 GROUP   
@<TRIPOS>SET

