#    Name: 6dio_1_NAD
#    Modification time : Fri May 22 19:36:53 2020

@<TRIPOS>MOLECULE
6dio_1_NAD
   44    48     1     0     1
SMALL
NO_CHARGES


@<TRIPOS>ATOM
      1 PA        -45.0840   11.8140  -29.4790 P.3       1 NAD501      0.0000 
      2 O1A       -44.4720   11.6520  -30.8310 O.co2     1 NAD501      0.0000 
      3 O2A       -44.5900   10.7370  -28.5030 O.co2     1 NAD501      0.0000 
      4 O5B       -46.6980   11.7640  -29.5840 O.3       1 NAD501      0.0000 
      5 C5B       -47.3240   12.6160  -30.5160 C.3       1 NAD501      0.0000 
      6 C4B       -48.6930   11.9530  -30.8470 C.3       1 NAD501      0.0000 
      7 O4B       -49.4310   11.8300  -29.7570 O.3       1 NAD501      0.0000 
      8 C3B       -49.5320   12.8360  -31.7690 C.3       1 NAD501      0.0000 
      9 O3B       -49.1550   12.6110  -33.0510 O.3       1 NAD501      0.0000 
     10 C2B       -51.0130   12.3750  -31.4160 C.3       1 NAD501      0.0000 
     11 O2B       -51.5230   11.4970  -32.5030 O.3       1 NAD501      0.0000 
     12 C1B       -50.9690   11.7160  -30.2800 C.3       1 NAD501      0.0000 
     13 N9A       -51.8190   12.2540  -29.2370 N.pl3     1 NAD501      0.0000 
     14 C8A       -52.6180   11.5540  -28.4340 C.2       1 NAD501      0.0000 
     15 N7A       -53.2260   12.3880  -27.5790 N.2       1 NAD501      0.0000 
     16 C5A       -52.7960   13.6410  -27.8560 C.ar      1 NAD501      0.0000 
     17 C6A       -53.1090   14.8810  -27.2850 C.ar      1 NAD501      0.0000 
     18 N6A       -54.0030   15.1310  -26.2270 N.pl3     1 NAD501      0.0000 
     19 N1A       -52.5450   15.9780  -27.7310 N.ar      1 NAD501      0.0000 
     20 C2A       -51.6610   15.8960  -28.7520 C.ar      1 NAD501      0.0000 
     21 N3A       -51.3450   14.6990  -29.3190 N.ar      1 NAD501      0.0000 
     22 C4A       -51.9260   13.5660  -28.8640 C.ar      1 NAD501      0.0000 
     23 O3        -44.8320   13.3320  -28.7860 O.3       1 NAD501      0.0000 
     24 PN        -44.2520   14.6740  -29.4900 P.3       1 NAD501      0.0000 
     25 O1N       -44.5590   15.7390  -28.5050 O.co2     1 NAD501      0.0000 
     26 O2N       -44.7800   14.9220  -30.8770 O.co2     1 NAD501      0.0000 
     27 O5D       -42.5820   14.5230  -29.6030 O.3       1 NAD501      0.0000 
     28 C5D       -41.8650   14.6920  -28.3550 C.3       1 NAD501      0.0000 
     29 C4D       -40.5680   13.9560  -28.5110 C.3       1 NAD501      0.0000 
     30 O4D       -39.9340   14.4660  -29.5390 O.3       1 NAD501      0.0000 
     31 C3D       -39.6310   14.1310  -27.3020 C.3       1 NAD501      0.0000 
     32 O3D       -39.1780   12.8920  -26.9300 O.3       1 NAD501      0.0000 
     33 C2D       -38.5370   15.0640  -27.9000 C.3       1 NAD501      0.0000 
     34 O2D       -37.3140   14.9470  -27.1100 O.3       1 NAD501      0.0000 
     35 C1D       -38.3930   14.5980  -29.1150 C.3       1 NAD501      0.0000 
     36 N1N       -37.8410   15.4820  -30.1240 N.pl3     1 NAD501      0.0000 
     37 C2N       -37.4740   16.7630  -29.8430 C.ar      1 NAD501      0.0000 
     38 C3N       -36.9580   17.5630  -30.8500 C.ar      1 NAD501      0.0000 
     39 C7N       -36.5260   19.0210  -30.5020 C.2       1 NAD501      0.0000 
     40 O7N       -37.0760   19.5920  -29.5940 O.2       1 NAD501      0.0000 
     41 N7N       -35.4670   19.6980  -31.2450 N.am      1 NAD501      0.0000 
     42 C4N       -36.8340   17.0870  -32.1170 C.ar      1 NAD501      0.0000 
     43 C5N       -37.2250   15.8110  -32.3970 C.ar      1 NAD501      0.0000 
     44 C6N       -37.7260   15.0140  -31.3910 C.ar      1 NAD501      0.0000 
@<TRIPOS>BOND
     1    1    2 ar   
     2    1    3 ar   
     3    1    4 1    
     4    1   23 1    
     5    4    5 1    
     6    5    6 1    
     7    6    7 1    
     8    6    8 1    
     9    7   12 1    
    10    8    9 1    
    11    8   10 1    
    12   10   11 1    
    13   10   12 1    
    14   12   13 1    
    15   13   14 1    
    16   13   22 1    
    17   14   15 2    
    18   15   16 1    
    19   16   17 ar   
    20   16   22 ar   
    21   17   18 1    
    22   17   19 ar   
    23   19   20 ar   
    24   20   21 ar   
    25   21   22 ar   
    26   23   24 1    
    27   24   25 ar   
    28   24   26 ar   
    29   24   27 1    
    30   27   28 1    
    31   28   29 1    
    32   29   30 1    
    33   29   31 1    
    34   30   35 1    
    35   31   32 1    
    36   31   33 1    
    37   33   34 1    
    38   33   35 1    
    39   35   36 1    
    40   36   37 ar   
    41   36   44 ar   
    42   37   38 ar   
    43   38   39 1    
    44   38   42 ar   
    45   39   40 2    
    46   39   41 am   
    47   42   43 ar   
    48   43   44 ar   
@<TRIPOS>SUBSTRUCTURE
     1 NAD501      1 GROUP   
@<TRIPOS>SET
ATOM$ORANGE STATIC     ATOMS   COLORGROUP SYSTEM 
42 5 5 6 6 8 8 10 10 12 12 14 14 16 16 17 17 20 \
20 22 22 28 28 29 29 31 31 33 33 35 35 37 37 38 38 39 \
39 42 42 43 43 44 44 

