#    Name: 6eoz_1_58K
#    Modification time : Fri May 22 19:30:07 2020

@<TRIPOS>MOLECULE
6eoz_1_58K
   21    23     1     0     0
SMALL
NO_CHARGES


@<TRIPOS>ATOM
      1 C4        -24.9930  -20.2390   -3.3450           1 58K403      0.0000 
      2 C7        -25.1000  -22.6860   -3.8120           1 58K403      0.0000 
      3 C8        -25.2430  -24.0510   -3.0990           1 58K403      0.0000 
      4 C10       -25.0940  -25.2580   -1.0090           1 58K403      0.0000 
      5 C13       -23.1390  -23.5820    0.0290           1 58K403      0.0000 
      6 C15       -25.7820  -22.5810   -5.0610           1 58K403      0.0000 
      7 C20       -22.4800  -19.5230   -6.6340           1 58K403      0.0000 
      8 C12       -23.6060  -24.6480    0.7930           1 58K403      0.0000 
      9 C11       -24.5910  -25.4900    0.2780           1 58K403      0.0000 
     10 C14       -23.6550  -23.3590   -1.2620           1 58K403      0.0000 
     11 C9        -24.6400  -24.1970   -1.7950           1 58K403      0.0000 
     12 O16       -26.7000  -23.3440   -5.3820           1 58K403      0.0000 
     13 N17       -25.4120  -21.5850   -5.9660           1 58K403      0.0000 
     14 C18       -24.3870  -20.6510   -5.7020           1 58K403      0.0000 
     15 C19       -23.5380  -20.4190   -6.7820           1 58K403      0.0000 
     16 C1        -22.2550  -18.8860   -5.4140           1 58K403      0.0000 
     17 C2        -23.1000  -19.1330   -4.3320           1 58K403      0.0000 
     18 C3        -24.1530  -20.0380   -4.4630           1 58K403      0.0000 
     19 O5        -25.3570  -19.2620   -2.6830           1 58K403      0.0000 
     20 N6        -25.5070  -21.4630   -3.0590           1 58K403      0.0000 
     21 C23       -26.5230  -21.6270   -1.9810           1 58K403      0.0000 
@<TRIPOS>BOND
     1    1   18 du   
     2    1   19 du   
     3    1   20 du   
     4    2    3 du   
     5    2    6 du   
     6    2   20 du   
     7    3   11 du   
     8    4    9 du   
     9    4   11 du   
    10    5    8 du   
    11    5   10 du   
    12    6   12 du   
    13    6   13 du   
    14    7   15 du   
    15    7   16 du   
    16    8    9 du   
    17   10   11 du   
    18   13   14 du   
    19   14   15 du   
    20   14   18 du   
    21   16   17 du   
    22   17   18 du   
    23   20   21 du   
@<TRIPOS>SUBSTRUCTURE
     1 58K403      1 GROUP   
@<TRIPOS>SET

