#    Name: 6s5n_4_ATP
#    Modification time : Fri May 22 19:29:09 2020

@<TRIPOS>MOLECULE
6s5n_4_ATP
   31    33     1     0     1
SMALL
NO_CHARGES


@<TRIPOS>ATOM
      1 PG        -36.3240   16.0270  -62.6830 P.3       1 ATP601      0.0000 
      2 O1G       -36.2180   16.5140  -64.1080 O.co2     1 ATP601      0.0000 
      3 O2G       -37.2910   16.8020  -61.8230 O.co2     1 ATP601      0.0000 
      4 O3G       -34.9940   15.7440  -62.0260 O.co2     1 ATP601      0.0000 
      5 PB        -36.4830   13.2380  -62.1710 P.3       1 ATP601      0.0000 
      6 O1B       -34.9750   13.1700  -62.2410 O.co2     1 ATP601      0.0000 
      7 O2B       -37.1690   13.1210  -60.8310 O.co2     1 ATP601      0.0000 
      8 O3B       -37.0320   14.5910  -62.8510 O.3       1 ATP601      0.0000 
      9 PA        -36.2810   11.1930  -64.1330 P.3       1 ATP601      0.0000 
     10 O1A       -37.0170   11.0920  -65.4470 O.co2     1 ATP601      0.0000 
     11 O2A       -35.9170    9.9480  -63.3610 O.co2     1 ATP601      0.0000 
     12 O3A       -37.1400   12.1610  -63.1730 O.3       1 ATP601      0.0000 
     13 O5'       -34.9210   12.0090  -64.4090 O.3       1 ATP601      0.0000 
     14 C5'       -33.6760   11.3630  -64.1630 C.3       1 ATP601      0.0000 
     15 C4'       -32.8910   11.1930  -65.4550 C.3       1 ATP601      0.0000 
     16 O4'       -31.9930   10.0970  -65.2790 O.3       1 ATP601      0.0000 
     17 C3'       -33.7930   10.8530  -66.6310 C.3       1 ATP601      0.0000 
     18 O3'       -33.6110   11.8210  -67.6690 O.3       1 ATP601      0.0000 
     19 C2'       -33.3520    9.4880  -67.1200 C.3       1 ATP601      0.0000 
     20 O2'       -33.1620    9.4950  -68.5370 O.3       1 ATP601      0.0000 
     21 C1'       -32.0410    9.2190  -66.4020 C.3       1 ATP601      0.0000 
     22 N9        -31.9690    7.8060  -65.9570 N.pl3     1 ATP601      0.0000 
     23 C8        -32.9600    7.1080  -65.3710 C.2       1 ATP601      0.0000 
     24 N7        -32.5650    5.8380  -65.0960 N.2       1 ATP601      0.0000 
     25 C5        -31.2930    5.7100  -65.5170 C.ar      1 ATP601      0.0000 
     26 C6        -30.2740    4.6340  -65.5330 C.ar      1 ATP601      0.0000 
     27 N6        -30.5460    3.4070  -65.0300 N.pl3     1 ATP601      0.0000 
     28 N1        -29.0650    4.9180  -66.0660 N.ar      1 ATP601      0.0000 
     29 C2        -28.7830    6.1340  -66.5690 C.ar      1 ATP601      0.0000 
     30 N3        -29.6570    7.1550  -66.5880 N.ar      1 ATP601      0.0000 
     31 C4        -30.9070    7.0090  -66.0870 C.ar      1 ATP601      0.0000 
@<TRIPOS>BOND
     1    1    2 ar   
     2    1    3 ar   
     3    1    4 ar   
     4    1    8 1    
     5    5    6 ar   
     6    5    7 ar   
     7    5    8 1    
     8    5   12 1    
     9    9   10 ar   
    10    9   11 ar   
    11    9   12 1    
    12    9   13 1    
    13   13   14 1    
    14   14   15 1    
    15   15   16 1    
    16   15   17 1    
    17   16   21 1    
    18   17   18 1    
    19   17   19 1    
    20   19   20 1    
    21   19   21 1    
    22   21   22 1    
    23   22   23 1    
    24   22   31 1    
    25   23   24 2    
    26   24   25 1    
    27   25   26 ar   
    28   25   31 ar   
    29   26   27 1    
    30   26   28 ar   
    31   28   29 ar   
    32   29   30 ar   
    33   30   31 ar   
@<TRIPOS>SUBSTRUCTURE
     1 ATP601      1 GROUP   
@<TRIPOS>SET
ATOM$ORANGE STATIC     ATOMS   COLORGROUP SYSTEM 
20 14 14 15 15 17 17 19 19 21 21 23 23 25 25 26 26 29 \
29 31 31 

