#    Name: 6s5n_5_ATP
#    Modification time : Fri May 22 19:29:15 2020

@<TRIPOS>MOLECULE
6s5n_5_ATP
   31    33     1     0     1
SMALL
NO_CHARGES


@<TRIPOS>ATOM
      1 PG        -45.1010  -16.4130  -54.0780 P.3       1 ATP601      0.0000 
      2 O1G       -46.5920  -16.3780  -54.3200 O.co2     1 ATP601      0.0000 
      3 O2G       -44.4310  -17.6780  -54.5540 O.co2     1 ATP601      0.0000 
      4 O3G       -44.7060  -16.0120  -52.6770 O.co2     1 ATP601      0.0000 
      5 PB        -44.2270  -13.7580  -54.5450 P.3       1 ATP601      0.0000 
      6 O1B       -44.4310  -13.6540  -53.0530 O.co2     1 ATP601      0.0000 
      7 O2B       -42.9080  -13.3310  -55.1450 O.co2     1 ATP601      0.0000 
      8 O3B       -44.5140  -15.2650  -55.0450 O.3       1 ATP601      0.0000 
      9 PA        -46.2240  -11.7620  -54.5960 P.3       1 ATP601      0.0000 
     10 O1A       -47.5310  -11.6140  -55.3360 O.co2     1 ATP601      0.0000 
     11 O2A       -45.3100  -10.5780  -54.3900 O.co2     1 ATP601      0.0000 
     12 O3A       -45.4070  -12.9600  -55.2980 O.3       1 ATP601      0.0000 
     13 O5'       -46.5550  -12.3520  -53.1360 O.3       1 ATP601      0.0000 
     14 C5'       -46.2800  -11.5450  -51.9950 C.3       1 ATP601      0.0000 
     15 C4'       -47.5630  -11.2670  -51.2270 C.3       1 ATP601      0.0000 
     16 O4'       -47.3720  -10.0790  -50.4560 O.3       1 ATP601      0.0000 
     17 C3'       -48.7360  -11.0170  -52.1630 C.3       1 ATP601      0.0000 
     18 O3'       -49.7940  -11.9320  -51.8660 O.3       1 ATP601      0.0000 
     19 C2'       -49.1980   -9.6000  -51.8890 C.3       1 ATP601      0.0000 
     20 O2'       -50.6160   -9.5550  -51.7120 O.3       1 ATP601      0.0000 
     21 C1'       -48.4810   -9.1940  -50.6120 C.3       1 ATP601      0.0000 
     22 N9        -48.0200   -7.7860  -50.7020 N.pl3     1 ATP601      0.0000 
     23 C8        -47.4100   -7.2150  -51.7570 C.2       1 ATP601      0.0000 
     24 N7        -47.1300   -5.9090  -51.5110 N.2       1 ATP601      0.0000 
     25 C5        -47.5720   -5.6280  -50.2710 C.ar      1 ATP601      0.0000 
     26 C6        -47.5980   -4.4400  -49.3840 C.ar      1 ATP601      0.0000 
     27 N6        -47.0810   -3.2530  -49.7820 N.pl3     1 ATP601      0.0000 
     28 N1        -48.1560   -4.5780  -48.1620 N.ar      1 ATP601      0.0000 
     29 C2        -48.6750   -5.7490  -47.7480 C.ar      1 ATP601      0.0000 
     30 N3        -48.6870   -6.8650  -48.4980 N.ar      1 ATP601      0.0000 
     31 C4        -48.1630   -6.8680  -49.7460 C.ar      1 ATP601      0.0000 
@<TRIPOS>BOND
     1    1    2 ar   
     2    1    3 ar   
     3    1    4 ar   
     4    1    8 1    
     5    5    6 ar   
     6    5    7 ar   
     7    5    8 1    
     8    5   12 1    
     9    9   10 ar   
    10    9   11 ar   
    11    9   12 1    
    12    9   13 1    
    13   13   14 1    
    14   14   15 1    
    15   15   16 1    
    16   15   17 1    
    17   16   21 1    
    18   17   18 1    
    19   17   19 1    
    20   19   20 1    
    21   19   21 1    
    22   21   22 1    
    23   22   23 1    
    24   22   31 1    
    25   23   24 2    
    26   24   25 1    
    27   25   26 ar   
    28   25   31 ar   
    29   26   27 1    
    30   26   28 ar   
    31   28   29 ar   
    32   29   30 ar   
    33   30   31 ar   
@<TRIPOS>SUBSTRUCTURE
     1 ATP601      1 GROUP   
@<TRIPOS>SET
ATOM$ORANGE STATIC     ATOMS   COLORGROUP SYSTEM 
20 14 14 15 15 17 17 19 19 21 21 23 23 25 25 26 26 29 \
29 31 31 

