#    Name: 6s5n_1_ATP
#    Modification time : Fri May 22 19:28:54 2020

@<TRIPOS>MOLECULE
6s5n_1_ATP
   31    33     1     0     1
SMALL
NO_CHARGES


@<TRIPOS>ATOM
      1 PG          9.0040   -1.9310  -23.6060 P.3       1 ATP601      0.0000 
      2 O1G         9.7700   -2.9040  -22.7400 O.co2     1 ATP601      0.0000 
      3 O2G         8.2210   -2.5760  -24.7220 O.co2     1 ATP601      0.0000 
      4 O3G         9.8210   -0.7400  -24.0460 O.co2     1 ATP601      0.0000 
      5 PB          7.9330    0.1180  -21.9530 P.3       1 ATP601      0.0000 
      6 O1B         9.2290    0.8070  -22.3070 O.co2     1 ATP601      0.0000 
      7 O2B         6.6200    0.7980  -22.2660 O.co2     1 ATP601      0.0000 
      8 O3B         7.8690   -1.3490  -22.6200 O.3       1 ATP601      0.0000 
      9 PA          8.9240    0.4500  -19.3300 P.3       1 ATP601      0.0000 
     10 O1A         9.0700   -0.4730  -18.1450 O.co2     1 ATP601      0.0000 
     11 O2A         8.4870    1.8850  -19.1480 O.co2     1 ATP601      0.0000 
     12 O3A         7.9500   -0.2720  -20.3900 O.3       1 ATP601      0.0000 
     13 O5'        10.3380    0.4670  -20.0990 O.3       1 ATP601      0.0000 
     14 C5'        11.1090    1.6640  -20.1120 C.3       1 ATP601      0.0000 
     15 C4'        12.4640    1.4160  -19.4680 C.3       1 ATP601      0.0000 
     16 O4'        12.9700    2.6700  -19.0120 O.3       1 ATP601      0.0000 
     17 C3'        12.3490    0.5040  -18.2560 C.3       1 ATP601      0.0000 
     18 O3'        13.2140   -0.6230  -18.4170 O.3       1 ATP601      0.0000 
     19 C2'        12.7970    1.3270  -17.0640 C.3       1 ATP601      0.0000 
     20 O2'        13.7670    0.6100  -16.2970 O.3       1 ATP601      0.0000 
     21 C1'        13.4080    2.5850  -17.6570 C.3       1 ATP601      0.0000 
     22 N9         12.9610    3.7870  -16.9120 N.pl3     1 ATP601      0.0000 
     23 C8         11.7190    4.0130  -16.4420 C.2       1 ATP601      0.0000 
     24 N7         11.6490    5.2100  -15.8030 N.2       1 ATP601      0.0000 
     25 C5         12.8720    5.7690  -15.8580 C.ar      1 ATP601      0.0000 
     26 C6         13.4960    7.0260  -15.3830 C.ar      1 ATP601      0.0000 
     27 N6         12.7780    7.9510  -14.7020 N.pl3     1 ATP601      0.0000 
     28 N1         14.8070    7.2190  -15.6530 N.ar      1 ATP601      0.0000 
     29 C2         15.5320    6.3100  -16.3310 C.ar      1 ATP601      0.0000 
     30 N3         15.0320    5.1490  -16.7890 N.ar      1 ATP601      0.0000 
     31 C4         13.7330    4.8250  -16.5870 C.ar      1 ATP601      0.0000 
@<TRIPOS>BOND
     1    1    2 ar   
     2    1    3 ar   
     3    1    4 ar   
     4    1    8 1    
     5    5    6 ar   
     6    5    7 ar   
     7    5    8 1    
     8    5   12 1    
     9    9   10 ar   
    10    9   11 ar   
    11    9   12 1    
    12    9   13 1    
    13   13   14 1    
    14   14   15 1    
    15   15   16 1    
    16   15   17 1    
    17   16   21 1    
    18   17   18 1    
    19   17   19 1    
    20   19   20 1    
    21   19   21 1    
    22   21   22 1    
    23   22   23 1    
    24   22   31 1    
    25   23   24 2    
    26   24   25 1    
    27   25   26 ar   
    28   25   31 ar   
    29   26   27 1    
    30   26   28 ar   
    31   28   29 ar   
    32   29   30 ar   
    33   30   31 ar   
@<TRIPOS>SUBSTRUCTURE
     1 ATP601      1 GROUP   
@<TRIPOS>SET
ATOM$ORANGE STATIC     ATOMS   COLORGROUP SYSTEM 
20 14 14 15 15 17 17 19 19 21 21 23 23 25 25 26 26 29 \
29 31 31 

