#    Name: 6s5n_3_ATP
#    Modification time : Fri May 22 19:29:04 2020

@<TRIPOS>MOLECULE
6s5n_3_ATP
   31    33     1     0     1
SMALL
NO_CHARGES


@<TRIPOS>ATOM
      1 PG        -42.9510   15.6310  -56.7260 P.3       1 ATP601      0.0000 
      2 O1G       -43.5520   14.5650  -55.8410 O.co2     1 ATP601      0.0000 
      3 O2G       -41.4440   15.6450  -56.7430 O.co2     1 ATP601      0.0000 
      4 O3G       -43.5830   16.9910  -56.5570 O.co2     1 ATP601      0.0000 
      5 PB        -44.1210   16.1210  -59.2600 P.3       1 ATP601      0.0000 
      6 O1B       -45.0920   17.0310  -58.5460 O.co2     1 ATP601      0.0000 
      7 O2B       -43.0660   16.7260  -60.1540 O.co2     1 ATP601      0.0000 
      8 O3B       -43.3530   15.1670  -58.2140 O.3       1 ATP601      0.0000 
      9 PA        -46.4580   14.6310  -59.8980 P.3       1 ATP601      0.0000 
     10 O1A       -46.5260   13.1460  -59.6360 O.co2     1 ATP601      0.0000 
     11 O2A       -47.2620   15.2460  -61.0190 O.co2     1 ATP601      0.0000 
     12 O3A       -44.9090   15.0150  -60.1270 O.3       1 ATP601      0.0000 
     13 O5'       -46.8790   15.3730  -58.5340 O.3       1 ATP601      0.0000 
     14 C5'       -47.9130   16.3510  -58.5910 C.3       1 ATP601      0.0000 
     15 C4'       -49.1680   15.8730  -57.8780 C.3       1 ATP601      0.0000 
     16 O4'       -50.2760   16.5340  -58.4890 O.3       1 ATP601      0.0000 
     17 C3'       -49.3990   14.3760  -58.0320 C.3       1 ATP601      0.0000 
     18 O3'       -49.4690   13.7610  -56.7430 O.3       1 ATP601      0.0000 
     19 C2'       -50.7290   14.2240  -58.7420 C.3       1 ATP601      0.0000 
     20 O2'       -51.5690   13.3030  -58.0420 O.3       1 ATP601      0.0000 
     21 C1'       -51.3390   15.6150  -58.7320 C.3       1 ATP601      0.0000 
     22 N9        -52.0040   15.9170  -60.0250 N.pl3     1 ATP601      0.0000 
     23 C8        -51.5020   15.7020  -61.2560 C.2       1 ATP601      0.0000 
     24 N7        -52.3820   16.0900  -62.2160 N.2       1 ATP601      0.0000 
     25 C5        -53.4780   16.5650  -61.5930 C.ar      1 ATP601      0.0000 
     26 C6        -54.7840   17.1380  -61.9990 C.ar      1 ATP601      0.0000 
     27 N6        -55.1170   17.2880  -63.3030 N.pl3     1 ATP601      0.0000 
     28 N1        -55.6420   17.5070  -61.0230 N.ar      1 ATP601      0.0000 
     29 C2        -55.3370   17.3670  -59.7210 C.ar      1 ATP601      0.0000 
     30 N3        -54.1740   16.8570  -59.2800 N.ar      1 ATP601      0.0000 
     31 C4        -53.2230   16.4430  -60.1500 C.ar      1 ATP601      0.0000 
@<TRIPOS>BOND
     1    1    2 ar   
     2    1    3 ar   
     3    1    4 ar   
     4    1    8 1    
     5    5    6 ar   
     6    5    7 ar   
     7    5    8 1    
     8    5   12 1    
     9    9   10 ar   
    10    9   11 ar   
    11    9   12 1    
    12    9   13 1    
    13   13   14 1    
    14   14   15 1    
    15   15   16 1    
    16   15   17 1    
    17   16   21 1    
    18   17   18 1    
    19   17   19 1    
    20   19   20 1    
    21   19   21 1    
    22   21   22 1    
    23   22   23 1    
    24   22   31 1    
    25   23   24 2    
    26   24   25 1    
    27   25   26 ar   
    28   25   31 ar   
    29   26   27 1    
    30   26   28 ar   
    31   28   29 ar   
    32   29   30 ar   
    33   30   31 ar   
@<TRIPOS>SUBSTRUCTURE
     1 ATP601      1 GROUP   
@<TRIPOS>SET
ATOM$ORANGE STATIC     ATOMS   COLORGROUP SYSTEM 
20 14 14 15 15 17 17 19 19 21 21 23 23 25 25 26 26 29 \
29 31 31 

