#    Name: 6s5n_2_ATP
#    Modification time : Fri May 22 19:28:59 2020

@<TRIPOS>MOLECULE
6s5n_2_ATP
   31    33     1     0     1
SMALL
NO_CHARGES


@<TRIPOS>ATOM
      1 PG         -1.4510   -2.4120  -24.9470 P.3       1 ATP601      0.0000 
      2 O1G        -2.3850   -1.3160  -24.4890 O.co2     1 ATP601      0.0000 
      3 O2G        -0.3110   -1.9400  -25.8140 O.co2     1 ATP601      0.0000 
      4 O3G        -2.1640   -3.6310  -25.4800 O.co2     1 ATP601      0.0000 
      5 PB         -0.7830   -4.3720  -22.9890 P.3       1 ATP601      0.0000 
      6 O1B        -1.8980   -5.1670  -23.6240 O.co2     1 ATP601      0.0000 
      7 O2B         0.6290   -4.9060  -23.0260 O.co2     1 ATP601      0.0000 
      8 O3B        -0.7270   -2.8750  -23.5850 O.3       1 ATP601      0.0000 
      9 PA         -2.4240   -4.7200  -20.7250 P.3       1 ATP601      0.0000 
     10 O1A        -2.8550   -3.8000  -19.6080 O.co2     1 ATP601      0.0000 
     11 O2A        -2.1170   -6.1750  -20.4580 O.co2     1 ATP601      0.0000 
     12 O3A        -1.1640   -4.0410  -21.4610 O.3       1 ATP601      0.0000 
     13 O5'        -3.5720   -4.6750  -21.8500 O.3       1 ATP601      0.0000 
     14 C5'        -4.3780   -5.8310  -22.0520 C.3       1 ATP601      0.0000 
     15 C4'        -5.8440   -5.4980  -21.8240 C.3       1 ATP601      0.0000 
     16 O4'        -6.5370   -6.7180  -21.5690 O.3       1 ATP601      0.0000 
     17 C3'        -6.0370   -4.6040  -20.6080 C.3       1 ATP601      0.0000 
     18 O3'        -6.7000   -3.3970  -20.9950 O.3       1 ATP601      0.0000 
     19 C2'        -6.9040   -5.3870  -19.6410 C.3       1 ATP601      0.0000 
     20 O2'        -8.0230   -4.6020  -19.2190 O.3       1 ATP601      0.0000 
     21 C1'        -7.3700   -6.6080  -20.4170 C.3       1 ATP601      0.0000 
     22 N9         -7.2380   -7.8350  -19.5950 N.pl3     1 ATP601      0.0000 
     23 C8         -6.1840   -8.1590  -18.8220 C.2       1 ATP601      0.0000 
     24 N7         -6.3820   -9.3490  -18.1990 N.2       1 ATP601      0.0000 
     25 C5         -7.5910   -9.8060  -18.5760 C.ar      1 ATP601      0.0000 
     26 C6         -8.4180  -11.0010  -18.2920 C.ar      1 ATP601      0.0000 
     27 N6         -7.9790  -11.9740  -17.4570 N.pl3     1 ATP601      0.0000 
     28 N1         -9.6250  -11.0890  -18.8940 N.ar      1 ATP601      0.0000 
     29 C2        -10.0720  -10.1310  -19.7270 C.ar      1 ATP601      0.0000 
     30 N3         -9.3770   -9.0200  -20.0280 N.ar      1 ATP601      0.0000 
     31 C4         -8.1520   -8.8020  -19.4920 C.ar      1 ATP601      0.0000 
@<TRIPOS>BOND
     1    1    2 ar   
     2    1    3 ar   
     3    1    4 ar   
     4    1    8 1    
     5    5    6 ar   
     6    5    7 ar   
     7    5    8 1    
     8    5   12 1    
     9    9   10 ar   
    10    9   11 ar   
    11    9   12 1    
    12    9   13 1    
    13   13   14 1    
    14   14   15 1    
    15   15   16 1    
    16   15   17 1    
    17   16   21 1    
    18   17   18 1    
    19   17   19 1    
    20   19   20 1    
    21   19   21 1    
    22   21   22 1    
    23   22   23 1    
    24   22   31 1    
    25   23   24 2    
    26   24   25 1    
    27   25   26 ar   
    28   25   31 ar   
    29   26   27 1    
    30   26   28 ar   
    31   28   29 ar   
    32   29   30 ar   
    33   30   31 ar   
@<TRIPOS>SUBSTRUCTURE
     1 ATP601      1 GROUP   
@<TRIPOS>SET
ATOM$ORANGE STATIC     ATOMS   COLORGROUP SYSTEM 
20 14 14 15 15 17 17 19 19 21 21 23 23 25 25 26 26 29 \
29 31 31 

