#    Name: 5y5y_1_ADP
#    Modification time : Fri May 22 19:27:11 2020

@<TRIPOS>MOLECULE
5y5y_1_ADP
   27    29     1     0     1
SMALL
NO_CHARGES


@<TRIPOS>ATOM
      1 PB        182.4670  185.7750  232.5850 P.3       1 ADP600      0.0000 
      2 O1B       182.1170  186.5570  233.8250 O.co2     1 ADP600      0.0000 
      3 O2B       183.5360  184.7550  232.8640 O.co2     1 ADP600      0.0000 
      4 O3B       181.2850  185.2020  231.8350 O.co2     1 ADP600      0.0000 
      5 PA        184.5220  187.0070  230.7780 P.3       1 ADP600      0.0000 
      6 O1A       185.0510  185.6700  230.5240 O.co2     1 ADP600      0.0000 
      7 O2A       185.3770  187.9180  231.5250 O.co2     1 ADP600      0.0000 
      8 O3A       183.1260  186.8570  231.5120 O.3       1 ADP600      0.0000 
      9 O5'       184.2010  187.7160  229.4540 O.3       1 ADP600      0.0000 
     10 C5'       184.2340  187.0650  228.2030 C.3       1 ADP600      0.0000 
     11 C4'       185.4500  187.4890  227.4360 C.3       1 ADP600      0.0000 
     12 O4'       185.1080  187.7670  226.0990 O.3       1 ADP600      0.0000 
     13 C3'       186.0950  188.7410  227.9420 C.3       1 ADP600      0.0000 
     14 O3'       187.0080  188.3570  228.9540 O.3       1 ADP600      0.0000 
     15 C2'       186.7220  189.2850  226.7050 C.3       1 ADP600      0.0000 
     16 O2'       187.8970  188.6340  226.3340 O.3       1 ADP600      0.0000 
     17 C1'       185.6760  188.9590  225.7370 C.3       1 ADP600      0.0000 
     18 N9        184.7270  189.9730  225.7810 N.pl3     1 ADP600      0.0000 
     19 C8        183.6230  190.1470  226.5390 C.2       1 ADP600      0.0000 
     20 N7        183.0510  191.2830  226.3410 N.2       1 ADP600      0.0000 
     21 C5        183.8340  191.8980  225.4460 C.ar      1 ADP600      0.0000 
     22 C6        183.7240  193.1570  224.8730 C.ar      1 ADP600      0.0000 
     23 N6        182.6910  193.9540  225.2610 N.pl3     1 ADP600      0.0000 
     24 N1        184.7060  193.4740  223.9710 N.ar      1 ADP600      0.0000 
     25 C2        185.6560  192.5620  223.7240 C.ar      1 ADP600      0.0000 
     26 N3        185.8570  191.3580  224.2650 N.ar      1 ADP600      0.0000 
     27 C4        184.8860  191.0860  225.1110 C.ar      1 ADP600      0.0000 
@<TRIPOS>BOND
     1    1    2 ar   
     2    1    3 ar   
     3    1    4 ar   
     4    1    8 1    
     5    5    6 ar   
     6    5    7 ar   
     7    5    8 1    
     8    5    9 1    
     9    9   10 1    
    10   10   11 1    
    11   11   12 1    
    12   11   13 1    
    13   12   17 1    
    14   13   14 1    
    15   13   15 1    
    16   15   16 1    
    17   15   17 1    
    18   17   18 1    
    19   18   19 1    
    20   18   27 1    
    21   19   20 2    
    22   20   21 1    
    23   21   22 ar   
    24   21   27 ar   
    25   22   23 1    
    26   22   24 ar   
    27   24   25 ar   
    28   25   26 ar   
    29   26   27 ar   
@<TRIPOS>SUBSTRUCTURE
     1 ADP600      1 GROUP   
@<TRIPOS>SET
ATOM$ORANGE STATIC     ATOMS   COLORGROUP SYSTEM 
20 10 10 11 11 13 13 15 15 17 17 19 19 21 21 22 22 25 \
25 27 27 

