#    Name: 5y5y_2_ADP
#    Modification time : Fri May 22 19:27:25 2020

@<TRIPOS>MOLECULE
5y5y_2_ADP
   27    29     1     0     1
SMALL
NO_CHARGES


@<TRIPOS>ATOM
      1 PB        178.9800  138.0950  223.6670 P.3       1 ADP600      0.0000 
      2 O1B       178.9810  139.6000  223.4920 O.co2     1 ADP600      0.0000 
      3 O2B       179.0990  137.5970  225.0990 O.co2     1 ADP600      0.0000 
      4 O3B       177.8670  137.4060  222.8950 O.co2     1 ADP600      0.0000 
      5 PA        180.9400  136.9860  221.5630 P.3       1 ADP600      0.0000 
      6 O1A       182.3200  136.5470  221.7740 O.co2     1 ADP600      0.0000 
      7 O2A       180.6860  137.8420  220.4030 O.co2     1 ADP600      0.0000 
      8 O3A       180.4060  137.6790  222.9000 O.3       1 ADP600      0.0000 
      9 O5'       179.9880  135.7380  221.4780 O.3       1 ADP600      0.0000 
     10 C5'       178.8890  135.6520  220.5720 C.3       1 ADP600      0.0000 
     11 C4'       179.2790  134.7860  219.3860 C.3       1 ADP600      0.0000 
     12 O4'       179.2370  135.5180  218.1880 O.3       1 ADP600      0.0000 
     13 C3'       180.6720  134.2120  219.3620 C.3       1 ADP600      0.0000 
     14 O3'       180.7010  133.0870  220.2240 O.3       1 ADP600      0.0000 
     15 C2'       180.8860  133.8710  217.9160 C.3       1 ADP600      0.0000 
     16 O2'       180.3380  132.6340  217.5630 O.3       1 ADP600      0.0000 
     17 C1'       180.1170  134.9350  217.2470 C.3       1 ADP600      0.0000 
     18 N9        180.9590  135.9420  216.7300 N.pl3     1 ADP600      0.0000 
     19 C8        181.7380  136.7800  217.4490 C.2       1 ADP600      0.0000 
     20 N7        182.2360  137.7330  216.7340 N.2       1 ADP600      0.0000 
     21 C5        181.7730  137.5230  215.4870 C.ar      1 ADP600      0.0000 
     22 C6        181.8000  138.3540  214.3780 C.ar      1 ADP600      0.0000 
     23 N6        182.1020  139.6420  214.6130 N.pl3     1 ADP600      0.0000 
     24 N1        181.3110  137.8340  213.2270 N.ar      1 ADP600      0.0000 
     25 C2        180.7520  136.6160  213.2980 C.ar      1 ADP600      0.0000 
     26 N3        180.4730  135.8530  214.3680 N.ar      1 ADP600      0.0000 
     27 C4        181.0220  136.3830  215.4540 C.ar      1 ADP600      0.0000 
@<TRIPOS>BOND
     1    1    2 ar   
     2    1    3 ar   
     3    1    4 ar   
     4    1    8 1    
     5    5    6 ar   
     6    5    7 ar   
     7    5    8 1    
     8    5    9 1    
     9    9   10 1    
    10   10   11 1    
    11   11   12 1    
    12   11   13 1    
    13   12   17 1    
    14   13   14 1    
    15   13   15 1    
    16   15   16 1    
    17   15   17 1    
    18   17   18 1    
    19   18   19 1    
    20   18   27 1    
    21   19   20 2    
    22   20   21 1    
    23   21   22 ar   
    24   21   27 ar   
    25   22   23 1    
    26   22   24 ar   
    27   24   25 ar   
    28   25   26 ar   
    29   26   27 ar   
@<TRIPOS>SUBSTRUCTURE
     1 ADP600      1 GROUP   
@<TRIPOS>SET
ATOM$ORANGE STATIC     ATOMS   COLORGROUP SYSTEM 
20 10 10 11 11 13 13 15 15 17 17 19 19 21 21 22 22 25 \
25 27 27 

