#    Name: 6egs_1_UD2_CAVITY_N1_6
#    Modification time : Fri May 22 19:25:11 2020

@<TRIPOS>MOLECULE
6egs_1_UD2_CAVITY_N1_6
   90     0     7     0     0
SMALL
NO_CHARGES


@<TRIPOS>ATOM
      1 OG        -11.8500  -43.7100   14.7200 O.3       1 SER1        0.0000 
      2 OG        -11.3700  -43.3400   16.0900 O.3       1 SER1        0.0000 
      3 OG        -12.3300  -48.6100   19.5300 O.3       1 SER1        0.0000 
      4 OG        -10.9000  -45.8500   18.2600 O.3       1 SER1        0.0000 
      5 OG        -10.8900  -42.9600   17.4600 O.3       1 SER1        0.0000 
      6 OG        -10.8800  -41.5100   17.0600 O.3       1 SER1        0.0000 
      7 OG        -11.8500  -48.2300   20.9000 O.3       1 SER1        0.0000 
      8 OG        -13.2500  -45.2000   20.5600 O.3       1 SER1        0.0000 
      9 OG        -11.8300  -45.3400   20.1000 O.3       1 SER1        0.0000 
     10 OG        -10.4200  -45.4700   19.6300 O.3       1 SER1        0.0000 
     11 OG        -10.4100  -44.0300   19.2300 O.3       1 SER1        0.0000 
     12 OG        -10.4000  -42.5800   18.8300 O.3       1 SER1        0.0000 
     13 OG        -11.3400  -43.5200   21.0600 O.3       1 SER1        0.0000 
     14 O         -10.4300  -43.8500   14.2600 O.2       2 ALA2        0.0000 
     15 O          -9.0200  -43.9800   13.7900 O.2       2 ALA2        0.0000 
     16 O          -9.0100  -42.5400   13.3900 O.2       2 ALA2        0.0000 
     17 N         -11.4000  -49.1200   17.7000 N.am      2 ALA2        0.0000 
     18 N         -11.3900  -47.6700   17.3000 N.am      2 ALA2        0.0000 
     19 O          -9.9500  -43.4700   15.6300 O.2       2 ALA2        0.0000 
     20 O          -9.9400  -42.0300   15.2300 O.2       2 ALA2        0.0000 
     21 O          -8.5200  -42.1600   14.7600 O.2       2 ALA2        0.0000 
     22 O          -9.9400  -40.5800   14.8300 O.2       2 ALA2        0.0000 
     23 O         -10.9100  -48.7400   19.0600 O.2       2 ALA2        0.0000 
     24 O          -9.4800  -45.9900   17.8000 O.2       2 ALA2        0.0000 
     25 O          -9.4700  -44.5400   17.4000 O.2       2 ALA2        0.0000 
     26 O          -9.4700  -43.1000   17.0000 O.2       2 ALA2        0.0000 
     27 O          -8.0500  -43.2300   16.5300 O.2       2 ALA2        0.0000 
     28 O          -9.4600  -41.6500   16.6000 O.2       2 ALA2        0.0000 
     29 N         -10.8700  -38.6200   16.2600 N.am      2 ALA2        0.0000 
     30 N          -9.4500  -38.7600   15.7900 N.am      2 ALA2        0.0000 
     31 O          -8.0300  -38.8900   15.3300 O.2       2 ALA2        0.0000 
     32 O          -9.0000  -47.0500   19.5700 O.2       2 ALA2        0.0000 
     33 O          -7.5800  -47.1900   19.1000 O.2       2 ALA2        0.0000 
     34 N          -8.9700  -39.8300   17.5600 N.am      2 ALA2        0.0000 
     35 OD1       -11.8400  -46.7800   20.5000 O.co2     3 ASP3        0.0000 
     36 OD1       -11.3500  -44.9600   21.4700 O.co2     3 ASP3        0.0000 
     37 OD1       -10.8600  -43.1400   22.4300 O.co2     3 ASP3        0.0000 
     38 NZ        -10.4300  -48.3600   20.4300 N.4       4 LYS4        0.0000 
     39 NZ        -10.4200  -46.9200   20.0300 N.4       4 LYS4        0.0000 
     40 NZ         -7.5800  -45.7400   18.7000 N.4       4 LYS4        0.0000 
     41 NZ         -8.9900  -44.1600   18.7700 N.4       4 LYS4        0.0000 
     42 NZ         -7.5700  -44.3000   18.3000 N.4       4 LYS4        0.0000 
     43 NZ         -7.5600  -42.8500   17.9000 N.4       4 LYS4        0.0000 
     44 NZ         -8.5200  -46.6800   20.9400 N.4       4 LYS4        0.0000 
     45 NZ         -9.9300  -45.1000   21.0000 N.4       4 LYS4        0.0000 
     46 NZ         -7.0900  -45.3700   20.0700 N.4       4 LYS4        0.0000 
     47 NZ         -8.5000  -43.7900   20.1300 N.4       4 LYS4        0.0000 
     48 NZ         -7.0800  -43.9200   19.6700 N.4       4 LYS4        0.0000 
     49 NZ         -7.0800  -42.4800   19.2700 N.4       4 LYS4        0.0000 
     50 NZ         -8.0300  -46.3000   22.3000 N.4       4 LYS4        0.0000 
     51 NZ         -9.4500  -44.7200   22.3700 N.4       4 LYS4        0.0000 
     52 CZ        -12.8200  -48.9800   18.1600 C.ar      5 PHE5        0.0000 
     53 CZ        -12.8100  -47.5400   17.7600 C.ar      5 PHE5        0.0000 
     54 CZ        -12.3400  -50.0500   19.9300 C.ar      5 PHE5        0.0000 
     55 CZ        -13.7500  -47.0300   19.5900 C.ar      5 PHE5        0.0000 
     56 CZ        -12.3300  -47.1600   19.1300 C.ar      5 PHE5        0.0000 
     57 CZ        -12.3000  -41.3800   17.5300 C.ar      5 PHE5        0.0000 
     58 CZ        -11.8200  -42.4500   19.3000 C.ar      5 PHE5        0.0000 
     59 CZ        -11.8100  -41.0000   18.8900 C.ar      5 PHE5        0.0000 
     60 CZ        -12.7600  -43.3800   21.5300 C.ar      5 PHE5        0.0000 
     61 CZ        -11.3400  -42.0700   20.6600 C.ar      5 PHE5        0.0000 
     62 CA        -11.8500  -42.2700   14.3200 C.3       6 GLY6        0.0000 
     63 CA         -7.5900  -42.6700   12.9300 C.3       6 GLY6        0.0000 
     64 CA        -12.7800  -41.7600   16.1600 C.3       6 GLY6        0.0000 
     65 CA        -11.3600  -41.8900   15.6900 C.3       6 GLY6        0.0000 
     66 CA        -12.7800  -40.3100   15.7600 C.3       6 GLY6        0.0000 
     67 CA        -11.3600  -40.4500   15.2900 C.3       6 GLY6        0.0000 
     68 CA        -10.9100  -47.3000   18.6600 C.3       6 GLY6        0.0000 
     69 CA         -9.4900  -47.4300   18.2000 C.3       6 GLY6        0.0000 
     70 CA        -13.7100  -39.8000   17.5900 C.3       6 GLY6        0.0000 
     71 CA        -12.2900  -39.9300   17.1300 C.3       6 GLY6        0.0000 
     72 CA         -9.4500  -40.2000   16.2000 C.3       6 GLY6        0.0000 
     73 CA         -8.9800  -42.7200   18.3700 C.3       6 GLY6        0.0000 
     74 CA         -8.9800  -41.2700   17.9600 C.3       6 GLY6        0.0000 
     75 CA         -7.1000  -46.8100   20.4700 C.3       6 GLY6        0.0000 
     76 CA         -8.5000  -42.3400   19.7300 C.3       6 GLY6        0.0000 
     77 CA         -8.4900  -40.9000   19.3300 C.3       6 GLY6        0.0000 
     78 CA         -8.0300  -44.8500   21.9000 C.3       6 GLY6        0.0000 
     79 CA         -8.0200  -43.4100   21.5000 C.3       6 GLY6        0.0000 
     80 CA         -7.5400  -43.0300   22.8700 C.3       6 GLY6        0.0000 
     81 DU        -10.4300  -42.4000   13.8600 H         7 CUB7        0.0000 
     82 DU        -10.8700  -40.0700   16.6600 H         7 CUB7        0.0000 
     83 DU         -9.0000  -45.6100   19.1700 H         7 CUB7        0.0000 
     84 DU        -10.4000  -41.1400   18.4300 H         7 CUB7        0.0000 
     85 DU         -8.5100  -45.2300   20.5400 H         7 CUB7        0.0000 
     86 DU         -9.9200  -43.6500   20.6000 H         7 CUB7        0.0000 
     87 DU         -9.9200  -42.2100   20.2000 H         7 CUB7        0.0000 
     88 DU         -9.4400  -43.2700   21.9700 H         7 CUB7        0.0000 
     89 DU         -8.0100  -41.9600   21.1000 H         7 CUB7        0.0000 
     90 DU         -9.4300  -40.3800   21.1700 H         7 CUB7        0.0000 
@<TRIPOS>BOND
@<TRIPOS>SUBSTRUCTURE
     1 SER1        1 GROUP   
     2 ALA2       14 GROUP   
     3 ASP3       35 GROUP   
     4 LYS4       38 GROUP   
     5 PHE5       52 GROUP   
     6 GLY6       62 GROUP   
     7 CUB7       81 GROUP   
@<TRIPOS>SET

