#    Name: 6egs_2_UD2
#    Modification time : Fri May 22 19:25:17 2020

@<TRIPOS>MOLECULE
6egs_2_UD2
   39    41     1     0     0
SMALL
NO_CHARGES


@<TRIPOS>ATOM
      1 C1'       -35.4550  -54.6670  -27.9700 C.3       1 UD2602      0.0000 
      2 C2'       -34.2540  -54.9440  -28.8670 C.3       1 UD2602      0.0000 
      3 C3'       -34.5700  -56.0350  -29.8830 C.3       1 UD2602      0.0000 
      4 C4'       -35.1930  -57.2490  -29.2050 C.3       1 UD2602      0.0000 
      5 C5'       -36.3390  -56.8340  -28.2890 C.3       1 UD2602      0.0000 
      6 C6'       -36.9130  -58.0390  -27.5530 C.3       1 UD2602      0.0000 
      7 C7'       -32.6170  -53.2550  -29.4660 C.2       1 UD2602      0.0000 
      8 C8'       -32.3890  -51.9120  -30.0940 C.3       1 UD2602      0.0000 
      9 N2'       -33.8570  -53.7290  -29.5530 N.am      1 UD2602      0.0000 
     10 O1'       -36.5270  -54.1510  -28.7570 O.3       1 UD2602      0.0000 
     11 O3'       -33.3660  -56.4280  -30.5520 O.3       1 UD2602      0.0000 
     12 O4'       -34.1950  -57.9340  -28.4400 O.3       1 UD2602      0.0000 
     13 O5'       -35.8670  -55.8790  -27.3410 O.3       1 UD2602      0.0000 
     14 O6'       -37.9030  -58.6710  -28.3710 O.3       1 UD2602      0.0000 
     15 O7'       -31.7230  -53.8740  -28.9120 O.2       1 UD2602      0.0000 
     16 N1        -40.5430  -56.4170  -34.9840 N.am      1 UD2602      0.0000 
     17 C2        -41.2400  -57.3500  -35.7800 C.2       1 UD2602      0.0000 
     18 N3        -42.4040  -57.8590  -35.3590 N.am      1 UD2602      0.0000 
     19 C4        -42.9230  -57.4930  -34.1810 C.2       1 UD2602      0.0000 
     20 C5        -42.2550  -56.5750  -33.3790 C.2       1 UD2602      0.0000 
     21 C6        -41.0470  -56.0410  -33.8060 C.2       1 UD2602      0.0000 
     22 O2        -40.7690  -57.7030  -36.8830 O.2       1 UD2602      0.0000 
     23 O4        -44.0110  -57.9780  -33.8020 O.2       1 UD2602      0.0000 
     24 C1B       -39.2700  -55.8630  -35.4490 C.3       1 UD2602      0.0000 
     25 C2B       -39.3510  -54.3450  -35.4770 C.3       1 UD2602      0.0000 
     26 O2'       -39.0960  -53.8640  -36.8000 O.3       1 UD2602      0.0000 
     27 C3B       -38.2820  -53.8440  -34.5270 C.3       1 UD2602      0.0000 
     28 C4B       -37.5970  -55.0810  -33.9660 C.3       1 UD2602      0.0000 
     29 O4B       -38.2250  -56.2290  -34.5440 O.3       1 UD2602      0.0000 
     30 O3B       -37.3350  -53.0390  -35.2360 O.3       1 UD2602      0.0000 
     31 C5B       -37.7180  -55.1380  -32.4490 C.3       1 UD2602      0.0000 
     32 O5B       -37.1820  -53.9420  -31.8840 O.3       1 UD2602      0.0000 
     33 PA        -38.1400  -52.6870  -31.5710 P.3       1 UD2602      0.0000 
     34 O1A       -39.5700  -53.1140  -31.8000 O.co2     1 UD2602      0.0000 
     35 O2A       -37.5890  -51.4810  -32.2930 O.co2     1 UD2602      0.0000 
     36 O3A       -37.9270  -52.4680  -29.9900 O.3       1 UD2602      0.0000 
     37 PB        -36.4700  -52.6480  -29.3290 P.3       1 UD2602      0.0000 
     38 O1B       -36.3620  -51.7000  -28.1580 O.co2     1 UD2602      0.0000 
     39 O2B       -35.4410  -52.6010  -30.4330 O.co2     1 UD2602      0.0000 
@<TRIPOS>BOND
     1    1    2 1    
     2    1   10 1    
     3    1   13 1    
     4    2    3 1    
     5    2    9 1    
     6    3    4 1    
     7    3   11 1    
     8    4    5 1    
     9    4   12 1    
    10    5    6 1    
    11    5   13 1    
    12    6   14 1    
    13    7    8 1    
    14    7    9 am   
    15    7   15 2    
    16   10   37 1    
    17   16   17 1    
    18   16   21 1    
    19   16   24 1    
    20   17   18 1    
    21   17   22 2    
    22   18   19 1    
    23   19   20 1    
    24   19   23 2    
    25   20   21 2    
    26   24   25 1    
    27   24   29 1    
    28   25   26 1    
    29   25   27 1    
    30   27   28 1    
    31   27   30 1    
    32   28   29 1    
    33   28   31 1    
    34   31   32 1    
    35   32   33 1    
    36   33   34 ar   
    37   33   35 ar   
    38   33   36 1    
    39   36   37 1    
    40   37   38 ar   
    41   37   39 ar   
@<TRIPOS>SUBSTRUCTURE
     1 UD2602      1 GROUP   
@<TRIPOS>SET

