#    Name: 6egs_1_UD2
#    Modification time : Fri May 22 19:25:09 2020

@<TRIPOS>MOLECULE
6egs_1_UD2
   39    41     1     0     0
SMALL
NO_CHARGES


@<TRIPOS>ATOM
      1 C1'       -10.6930  -45.0660   19.8700 C.3       1 UD2602      0.0000 
      2 C2'        -9.8750  -46.3680   19.8110 C.3       1 UD2602      0.0000 
      3 C3'        -8.5210  -46.0450   20.4840 C.3       1 UD2602      0.0000 
      4 C4'        -7.8450  -44.9750   19.5980 C.3       1 UD2602      0.0000 
      5 C5'        -8.6870  -43.6920   19.7470 C.3       1 UD2602      0.0000 
      6 C6'        -8.0320  -42.4580   19.1150 C.3       1 UD2602      0.0000 
      7 C7'       -11.0370  -48.5430   19.7810 C.2       1 UD2602      0.0000 
      8 C8'       -11.9070  -49.4660   20.5600 C.3       1 UD2602      0.0000 
      9 N2'       -10.6560  -47.4430   20.4330 N.am      1 UD2602      0.0000 
     10 O1'       -10.9190  -44.8240   21.2590 O.3       1 UD2602      0.0000 
     11 O3'        -7.6620  -47.1540   20.8130 O.3       1 UD2602      0.0000 
     12 O4'        -7.7310  -45.3620   18.2080 O.3       1 UD2602      0.0000 
     13 O5'       -10.0150  -43.9470   19.2410 O.3       1 UD2602      0.0000 
     14 O6'        -7.6600  -41.4970   20.1260 O.3       1 UD2602      0.0000 
     15 O7'       -10.7190  -48.8000   18.6310 O.2       1 UD2602      0.0000 
     16 N1         -6.8380  -41.0860   26.8800 N.am      1 UD2602      0.0000 
     17 C2         -5.5510  -40.5430   27.1760 C.2       1 UD2602      0.0000 
     18 N3         -4.5680  -41.3280   27.5580 N.am      1 UD2602      0.0000 
     19 C4         -4.7570  -42.6300   27.6570 C.2       1 UD2602      0.0000 
     20 C5         -5.9830  -43.2280   27.3770 C.2       1 UD2602      0.0000 
     21 C6         -7.0330  -42.4210   26.9850 C.2       1 UD2602      0.0000 
     22 O2         -5.2740  -39.3250   27.1040 O.2       1 UD2602      0.0000 
     23 O4         -3.7680  -43.2720   28.0040 O.2       1 UD2602      0.0000 
     24 C1B        -7.9440  -40.1680   26.4670 C.3       1 UD2602      0.0000 
     25 C2B        -8.1220  -40.1720   24.9490 C.3       1 UD2602      0.0000 
     26 O2'        -7.3640  -39.1380   24.3130 O.3       1 UD2602      0.0000 
     27 C3B        -9.6230  -40.0290   24.7230 C.3       1 UD2602      0.0000 
     28 C4B       -10.2500  -40.5640   26.0130 C.3       1 UD2602      0.0000 
     29 O4B        -9.2400  -40.4770   27.0390 O.3       1 UD2602      0.0000 
     30 O3B       -10.0220  -38.6750   24.4480 O.3       1 UD2602      0.0000 
     31 C5B       -10.7850  -42.0020   25.8210 C.3       1 UD2602      0.0000 
     32 O5B        -9.8250  -42.8130   25.1300 O.3       1 UD2602      0.0000 
     33 PA        -10.1590  -43.8920   23.9990 P.3       1 UD2602      0.0000 
     34 O1A        -8.8190  -44.2790   23.4080 O.co2     1 UD2602      0.0000 
     35 O2A       -10.9460  -45.0170   24.6150 O.co2     1 UD2602      0.0000 
     36 O3A       -11.2280  -43.1140   23.0460 O.3       1 UD2602      0.0000 
     37 PB        -12.0330  -43.8690   21.8440 P.3       1 UD2602      0.0000 
     38 O1B       -12.4030  -42.9070   20.7580 O.co2     1 UD2602      0.0000 
     39 O2B       -13.0830  -44.7560   22.4560 O.co2     1 UD2602      0.0000 
@<TRIPOS>BOND
     1    1    2 1    
     2    1   10 1    
     3    1   13 1    
     4    2    3 1    
     5    2    9 1    
     6    3    4 1    
     7    3   11 1    
     8    4    5 1    
     9    4   12 1    
    10    5    6 1    
    11    5   13 1    
    12    6   14 1    
    13    7    8 1    
    14    7    9 am   
    15    7   15 2    
    16   10   37 1    
    17   16   17 1    
    18   16   21 1    
    19   16   24 1    
    20   17   18 1    
    21   17   22 2    
    22   18   19 1    
    23   19   20 1    
    24   19   23 2    
    25   20   21 2    
    26   24   25 1    
    27   24   29 1    
    28   25   26 1    
    29   25   27 1    
    30   27   28 1    
    31   27   30 1    
    32   28   29 1    
    33   28   31 1    
    34   31   32 1    
    35   32   33 1    
    36   33   34 ar   
    37   33   35 ar   
    38   33   36 1    
    39   36   37 1    
    40   37   38 ar   
    41   37   39 ar   
@<TRIPOS>SUBSTRUCTURE
     1 UD2602      1 GROUP   
@<TRIPOS>SET

