#    Name: 6egs_2_UD2_CAVITY_N1_ALL
#    Modification time : Fri May 22 19:25:19 2020

@<TRIPOS>MOLECULE
6egs_2_UD2_CAVITY_N1_ALL
  125     0     7     0     0
SMALL
NO_CHARGES


@<TRIPOS>ATOM
      1 OG        -39.2500  -56.1700  -36.2600 O.3       1 SER1        0.0000 
      2 OG        -39.2400  -53.2800  -37.0700 O.3       1 SER1        0.0000 
      3 OG        -38.7500  -52.9000  -35.7000 O.3       1 SER1        0.0000 
      4 OG        -32.0800  -52.8600  -29.8500 O.3       1 SER1        0.0000 
      5 OG        -31.5900  -51.0400  -28.8800 O.3       1 SER1        0.0000 
      6 O         -40.6700  -56.0300  -35.8000 O.2       2 ALA2        0.0000 
      7 O         -40.6600  -54.5900  -36.2000 O.2       2 ALA2        0.0000 
      8 O         -40.6600  -53.1400  -36.6000 O.2       2 ALA2        0.0000 
      9 N         -40.6500  -51.6900  -37.0000 N.am      2 ALA2        0.0000 
     10 N         -41.6100  -56.9600  -33.5700 N.am      2 ALA2        0.0000 
     11 N         -37.3500  -55.9200  -35.3600 N.am      2 ALA2        0.0000 
     12 N         -38.7600  -54.3400  -35.3000 N.am      2 ALA2        0.0000 
     13 N         -37.3400  -54.4800  -35.7600 N.am      2 ALA2        0.0000 
     14 N         -41.5900  -52.6300  -34.7700 N.am      2 ALA2        0.0000 
     15 N         -41.5900  -51.1800  -35.1700 N.am      2 ALA2        0.0000 
     16 O         -37.3100  -54.6600  -30.7900 O.2       2 ALA2        0.0000 
     17 O         -40.1500  -52.9400  -30.2600 O.2       2 ALA2        0.0000 
     18 O         -38.7300  -53.0800  -30.7300 O.2       2 ALA2        0.0000 
     19 O         -36.8400  -57.1700  -28.6200 O.2       2 ALA2        0.0000 
     20 O         -34.0000  -57.4400  -29.5500 O.2       2 ALA2        0.0000 
     21 O         -36.8400  -55.7300  -29.0200 O.2       2 ALA2        0.0000 
     22 O         -34.0000  -56.0000  -29.9500 O.2       2 ALA2        0.0000 
     23 O         -36.8300  -54.2800  -29.4200 O.2       2 ALA2        0.0000 
     24 O         -38.2400  -52.7000  -29.3600 O.2       2 ALA2        0.0000 
     25 O         -36.3600  -56.7900  -27.2500 O.2       2 ALA2        0.0000 
     26 O         -36.3500  -55.3500  -27.6500 O.2       2 ALA2        0.0000 
     27 O         -33.5100  -55.6200  -28.5800 O.2       2 ALA2        0.0000 
     28 O         -36.3500  -53.9000  -28.0500 O.2       2 ALA2        0.0000 
     29 O         -32.0900  -54.3100  -29.4500 O.2       2 ALA2        0.0000 
     30 O         -37.7600  -52.3200  -27.9900 O.2       2 ALA2        0.0000 
     31 O         -34.4600  -56.5500  -26.3500 O.2       2 ALA2        0.0000 
     32 N         -33.0200  -53.8000  -27.6100 N.am      2 ALA2        0.0000 
     33 N         -31.6000  -53.9300  -28.0800 N.am      2 ALA2        0.0000 
     34 N         -33.9600  -54.7300  -25.3800 N.am      2 ALA2        0.0000 
     35 N         -32.5400  -53.4200  -26.2500 N.am      2 ALA2        0.0000 
     36 N         -31.1200  -53.5500  -26.7100 N.am      2 ALA2        0.0000 
     37 N         -33.4700  -52.9100  -24.4100 N.am      2 ALA2        0.0000 
     38 N         -32.0500  -53.0400  -24.8800 N.am      2 ALA2        0.0000 
     39 OD1       -44.4500  -55.2500  -33.0400 O.co2     3 ASP3        0.0000 
     40 OD1       -37.7900  -53.5900  -32.5600 O.co2     3 ASP3        0.0000 
     41 OD1       -37.3100  -53.2100  -31.1900 O.co2     3 ASP3        0.0000 
     42 OD1       -36.8200  -52.8300  -29.8200 O.co2     3 ASP3        0.0000 
     43 OD1       -36.3400  -52.4600  -28.4500 O.co2     3 ASP3        0.0000 
     44 OD1       -34.9200  -52.5900  -28.9200 O.co2     3 ASP3        0.0000 
     45 NZ        -42.1000  -57.3400  -34.9300 N.4       4 LYS4        0.0000 
     46 NZ        -40.1700  -51.3200  -35.6300 N.4       4 LYS4        0.0000 
     47 NZ        -36.8600  -55.5500  -33.9900 N.4       4 LYS4        0.0000 
     48 NZ        -36.8600  -54.1000  -34.3900 N.4       4 LYS4        0.0000 
     49 NZ        -36.3800  -55.1700  -32.6200 N.4       4 LYS4        0.0000 
     50 NZ        -35.9000  -56.2400  -30.8500 N.4       4 LYS4        0.0000 
     51 NZ        -34.4800  -56.3700  -31.3200 N.4       4 LYS4        0.0000 
     52 NZ        -35.8900  -54.7900  -31.2500 N.4       4 LYS4        0.0000 
     53 NZ        -35.4200  -57.3100  -29.0800 N.4       4 LYS4        0.0000 
     54 NZ        -35.4100  -54.4200  -29.8900 N.4       4 LYS4        0.0000 
     55 NZ        -33.9900  -54.5500  -30.3500 N.4       4 LYS4        0.0000 
     56 NZ        -34.9400  -56.9300  -27.7200 N.4       4 LYS4        0.0000 
     57 NZ        -33.5100  -54.1700  -28.9800 N.4       4 LYS4        0.0000 
     58 NZ        -33.5000  -52.7300  -29.3800 N.4       4 LYS4        0.0000 
     59 CZ        -39.7000  -55.2800  -33.0600 C.ar      5 PHE5        0.0000 
     60 CZ        -39.6900  -52.3900  -33.8600 C.ar      5 PHE5        0.0000 
     61 CZ        -38.2700  -52.5200  -34.3300 C.ar      5 PHE5        0.0000 
     62 CZ        -39.6800  -50.9400  -34.2600 C.ar      5 PHE5        0.0000 
     63 CZ        -39.2200  -54.9000  -31.6900 C.ar      5 PHE5        0.0000 
     64 CZ        -37.8000  -55.0300  -32.1600 C.ar      5 PHE5        0.0000 
     65 CZ        -39.2100  -53.4500  -32.0900 C.ar      5 PHE5        0.0000 
     66 CZ        -39.2100  -52.0100  -32.4900 C.ar      5 PHE5        0.0000 
     67 CZ        -37.7900  -52.1400  -32.9600 C.ar      5 PHE5        0.0000 
     68 CZ        -39.2000  -50.5600  -32.9000 C.ar      5 PHE5        0.0000 
     69 CZ        -37.3200  -56.1000  -30.3900 C.ar      5 PHE5        0.0000 
     70 CZ        -35.8700  -54.9700  -26.2800 C.ar      5 PHE5        0.0000 
     71 CZ        -35.8600  -53.5300  -26.6800 C.ar      5 PHE5        0.0000 
     72 CZ        -34.4400  -52.2200  -27.5500 C.ar      5 PHE5        0.0000 
     73 CZ        -33.0200  -52.3500  -28.0100 C.ar      5 PHE5        0.0000 
     74 CZ        -31.6000  -52.4900  -28.4800 C.ar      5 PHE5        0.0000 
     75 CZ        -35.8500  -50.6300  -27.4900 C.ar      5 PHE5        0.0000 
     76 CZ        -34.4300  -50.7700  -27.9500 C.ar      5 PHE5        0.0000 
     77 CZ        -35.3800  -54.5900  -24.9100 C.ar      5 PHE5        0.0000 
     78 CZ        -33.9500  -51.8400  -26.1800 C.ar      5 PHE5        0.0000 
     79 CZ        -32.5300  -51.9700  -26.6500 C.ar      5 PHE5        0.0000 
     80 CZ        -31.1100  -52.1100  -27.1100 C.ar      5 PHE5        0.0000 
     81 CZ        -33.9400  -50.3900  -26.5800 C.ar      5 PHE5        0.0000 
     82 CZ        -32.0500  -51.6000  -25.2800 C.ar      5 PHE5        0.0000 
     83 CZ        -30.6300  -51.7300  -25.7400 C.ar      5 PHE5        0.0000 
     84 CZ        -33.4600  -50.0200  -25.2100 C.ar      5 PHE5        0.0000 
     85 CA        -40.6800  -57.4800  -35.4000 C.3       6 GLY6        0.0000 
     86 CA        -43.5100  -55.7600  -34.8700 C.3       6 GLY6        0.0000 
     87 CA        -42.0900  -55.9000  -35.3300 C.3       6 GLY6        0.0000 
     88 CA        -43.5000  -54.3100  -35.2700 C.3       6 GLY6        0.0000 
     89 CA        -42.0800  -54.4500  -35.7400 C.3       6 GLY6        0.0000 
     90 CA        -39.2400  -54.7200  -36.6700 C.3       6 GLY6        0.0000 
     91 CA        -43.0300  -56.8300  -33.1000 C.3       6 GLY6        0.0000 
     92 CA        -40.1900  -57.1000  -34.0300 C.3       6 GLY6        0.0000 
     93 CA        -38.7700  -57.2300  -34.4900 C.3       6 GLY6        0.0000 
     94 CA        -41.1300  -56.5900  -32.2000 C.3       6 GLY6        0.0000 
     95 CA        -39.7100  -56.7200  -32.6600 C.3       6 GLY6        0.0000 
     96 CA        -38.2900  -56.8600  -33.1300 C.3       6 GLY6        0.0000 
     97 CA        -38.2800  -55.4100  -33.5300 C.3       6 GLY6        0.0000 
     98 CA        -37.8100  -56.4800  -31.7600 C.3       6 GLY6        0.0000 
     99 CA        -36.3900  -56.6200  -32.2200 C.3       6 GLY6        0.0000 
    100 CA        -37.3300  -57.5500  -29.9900 C.3       6 GLY6        0.0000 
    101 CA        -35.9100  -57.6800  -30.4500 C.3       6 GLY6        0.0000 
    102 CA        -33.5200  -57.0600  -28.1800 C.3       6 GLY6        0.0000 
    103 CA        -30.6600  -53.0000  -30.3100 C.3       6 GLY6        0.0000 
    104 CA        -33.0300  -55.2400  -27.2100 C.3       6 GLY6        0.0000 
    105 CA        -30.1800  -54.0700  -28.5400 C.3       6 GLY6        0.0000 
    106 CA        -30.1800  -52.6200  -28.9400 C.3       6 GLY6        0.0000 
    107 DU        -41.6100  -55.5200  -33.9700 H         7 CUB7        0.0000 
    108 DU        -40.1900  -55.6500  -34.4300 H         7 CUB7        0.0000 
    109 DU        -38.7700  -55.7900  -34.9000 H         7 CUB7        0.0000 
    110 DU        -41.6000  -54.0700  -34.3700 H         7 CUB7        0.0000 
    111 DU        -40.1800  -54.2100  -34.8300 H         7 CUB7        0.0000 
    112 DU        -40.1700  -52.7600  -35.2300 H         7 CUB7        0.0000 
    113 DU        -39.7000  -53.8300  -33.4600 H         7 CUB7        0.0000 
    114 DU        -38.2800  -53.9700  -33.9300 H         7 CUB7        0.0000 
    115 DU        -41.1100  -52.2500  -33.4000 H         7 CUB7        0.0000 
    116 DU        -35.4200  -55.8600  -29.4900 H         7 CUB7        0.0000 
    117 DU        -34.9300  -55.4800  -28.1200 H         7 CUB7        0.0000 
    118 DU        -34.9300  -54.0400  -28.5200 H         7 CUB7        0.0000 
    119 DU        -34.4500  -55.1100  -26.7500 H         7 CUB7        0.0000 
    120 DU        -34.4400  -53.6600  -27.1500 H         7 CUB7        0.0000 
    121 DU        -35.8600  -52.0800  -27.0800 H         7 CUB7        0.0000 
    122 DU        -35.3800  -53.1500  -25.3200 H         7 CUB7        0.0000 
    123 DU        -33.9600  -53.2800  -25.7800 H         7 CUB7        0.0000 
    124 DU        -35.3700  -51.7000  -25.7200 H         7 CUB7        0.0000 
    125 DU        -34.9000  -54.2200  -23.5500 H         7 CUB7        0.0000 
@<TRIPOS>BOND
@<TRIPOS>SUBSTRUCTURE
     1 SER1        1 GROUP   
     2 ALA2        6 GROUP   
     3 ASP3       39 GROUP   
     4 LYS4       45 GROUP   
     5 PHE5       59 GROUP   
     6 GLY6       85 GROUP   
     7 CUB7      107 GROUP   
@<TRIPOS>SET

