#    Name: 6bz0_4_FAD
#    Modification time : Fri May 22 19:26:38 2020

@<TRIPOS>MOLECULE
6bz0_4_FAD
   53    58     1     0     1
SMALL
NO_CHARGES


@<TRIPOS>ATOM
      1 PA        -26.6500  -31.2280   43.2720 P.3       1 FAD501      0.0000 
      2 O1A       -26.3200  -29.9220   43.9430 O.co2     1 FAD501      0.0000 
      3 O2A       -26.0240  -32.4970   43.8150 O.co2     1 FAD501      0.0000 
      4 O5B       -28.2510  -31.3920   43.2760 O.3       1 FAD501      0.0000 
      5 C5B       -28.8520  -32.5920   42.8050 C.3       1 FAD501      0.0000 
      6 C4B       -30.1250  -32.8470   43.5880 C.3       1 FAD501      0.0000 
      7 O4B       -30.9430  -33.7670   42.8640 O.3       1 FAD501      0.0000 
      8 C3B       -29.8620  -33.4670   44.9560 C.3       1 FAD501      0.0000 
      9 O3B       -30.4650  -32.6880   45.9890 O.3       1 FAD501      0.0000 
     10 C2B       -30.5060  -34.8360   44.9170 C.3       1 FAD501      0.0000 
     11 O2B       -31.1860  -35.1250   46.1340 O.3       1 FAD501      0.0000 
     12 C1B       -31.5050  -34.7110   43.7840 C.3       1 FAD501      0.0000 
     13 N9A       -31.7840  -35.9300   43.0100 N.pl3     1 FAD501      0.0000 
     14 C8A       -30.8900  -36.7940   42.4920 C.2       1 FAD501      0.0000 
     15 N7A       -31.5250  -37.7710   41.7930 N.2       1 FAD501      0.0000 
     16 C5A       -32.8440  -37.5210   41.8600 C.ar      1 FAD501      0.0000 
     17 C6A       -34.0730  -38.1610   41.3450 C.ar      1 FAD501      0.0000 
     18 N6A       -33.9810  -39.2860   40.6080 N.pl3     1 FAD501      0.0000 
     19 N1A       -35.2680  -37.5770   41.6380 N.ar      1 FAD501      0.0000 
     20 C2A       -35.3480  -36.4440   42.3810 C.ar      1 FAD501      0.0000 
     21 N3A       -34.2570  -35.8120   42.8840 N.ar      1 FAD501      0.0000 
     22 C4A       -33.0100  -36.2980   42.6550 C.ar      1 FAD501      0.0000 
     23 N1        -18.8900  -26.0980   44.4400 N.2       1 FAD501      0.0000 
     24 C2        -18.4560  -24.8370   44.1900 C.2       1 FAD501      0.0000 
     25 O2        -18.6300  -24.3680   43.0370 O.2       1 FAD501      0.0000 
     26 N3        -17.8610  -24.0830   45.1430 N.am      1 FAD501      0.0000 
     27 C4        -17.6670  -24.5350   46.3940 C.2       1 FAD501      0.0000 
     28 O4        -17.1190  -23.8200   47.2530 O.2       1 FAD501      0.0000 
     29 C4X       -18.1050  -25.9030   46.7450 C.2       1 FAD501      0.0000 
     30 N5        -17.9490  -26.4280   47.9820 N.2       1 FAD501      0.0000 
     31 C5X       -18.3740  -27.6870   48.2610 C.ar      1 FAD501      0.0000 
     32 C6        -18.1920  -28.1900   49.5420 C.ar      1 FAD501      0.0000 
     33 C7        -18.6160  -29.4750   49.8660 C.ar      1 FAD501      0.0000 
     34 C7M       -18.4080  -30.0070   51.2610 C.3       1 FAD501      0.0000 
     35 C8        -19.2810  -30.3150   48.8340 C.ar      1 FAD501      0.0000 
     36 C8M       -19.7430  -31.7100   49.1700 C.3       1 FAD501      0.0000 
     37 C9        -19.4690  -29.8210   47.5480 C.ar      1 FAD501      0.0000 
     38 C9A       -19.0420  -28.5290   47.2140 C.ar      1 FAD501      0.0000 
     39 N10       -19.2120  -27.9810   45.9170 N.pl3     1 FAD501      0.0000 
     40 C10       -18.7520  -26.6740   45.6590 C.2       1 FAD501      0.0000 
     41 C1'       -19.8290  -28.7090   44.8080 C.3       1 FAD501      0.0000 
     42 C2'       -21.2650  -28.2760   44.5900 C.3       1 FAD501      0.0000 
     43 O2'       -22.0230  -28.5540   45.7710 O.3       1 FAD501      0.0000 
     44 C3'       -21.8140  -29.0530   43.4000 C.3       1 FAD501      0.0000 
     45 O3'       -20.9400  -28.8940   42.2700 O.3       1 FAD501      0.0000 
     46 C4'       -23.2140  -28.6000   43.0280 C.3       1 FAD501      0.0000 
     47 O4'       -24.0890  -28.7330   44.1490 O.3       1 FAD501      0.0000 
     48 C5'       -23.7620  -29.4230   41.8780 C.3       1 FAD501      0.0000 
     49 O5'       -25.0600  -28.9440   41.5560 O.3       1 FAD501      0.0000 
     50 P         -26.0940  -29.8900   40.7650 P.3       1 FAD501      0.0000 
     51 O1P       -25.4150  -30.4100   39.5400 O.co2     1 FAD501      0.0000 
     52 O2P       -27.4000  -29.1500   40.6510 O.co2     1 FAD501      0.0000 
     53 O3P       -26.3050  -31.1830   41.7030 O.3       1 FAD501      0.0000 
@<TRIPOS>BOND
     1    1    2 ar   
     2    1    3 ar   
     3    1    4 1    
     4    1   53 1    
     5    4    5 1    
     6    5    6 1    
     7    6    7 1    
     8    6    8 1    
     9    7   12 1    
    10    8    9 1    
    11    8   10 1    
    12   10   11 1    
    13   10   12 1    
    14   12   13 1    
    15   13   14 1    
    16   13   22 1    
    17   14   15 2    
    18   15   16 1    
    19   16   17 ar   
    20   16   22 ar   
    21   17   18 1    
    22   17   19 ar   
    23   19   20 ar   
    24   20   21 ar   
    25   21   22 ar   
    26   23   24 1    
    27   23   40 2    
    28   24   25 2    
    29   24   26 am   
    30   26   27 am   
    31   27   28 2    
    32   27   29 1    
    33   29   30 2    
    34   29   40 1    
    35   30   31 1    
    36   31   32 ar   
    37   31   38 ar   
    38   32   33 ar   
    39   33   34 1    
    40   33   35 ar   
    41   35   36 1    
    42   35   37 ar   
    43   37   38 ar   
    44   38   39 1    
    45   39   40 1    
    46   39   41 1    
    47   41   42 1    
    48   42   43 1    
    49   42   44 1    
    50   44   45 1    
    51   44   46 1    
    52   46   47 1    
    53   46   48 1    
    54   48   49 1    
    55   49   50 1    
    56   50   51 ar   
    57   50   52 ar   
    58   50   53 1    
@<TRIPOS>SUBSTRUCTURE
     1 FAD501      1 GROUP   
@<TRIPOS>SET
ATOM$ORANGE STATIC     ATOMS   COLORGROUP SYSTEM 
54 5 5 6 6 8 8 10 10 12 12 14 14 16 16 17 17 20 \
20 22 22 24 24 27 27 29 29 31 31 32 32 33 33 34 34 35 \
35 36 36 37 37 38 38 40 40 41 41 42 42 44 44 46 46 48 \
48 

