#    Name: 6bz0_3_FAD
#    Modification time : Fri May 22 19:26:24 2020

@<TRIPOS>MOLECULE
6bz0_3_FAD
   53    58     1     0     1
SMALL
NO_CHARGES


@<TRIPOS>ATOM
      1 PA          0.7750   14.8430   46.4340 P.3       1 FAD501      0.0000 
      2 O1A         0.6460   13.3960   46.8470 O.co2     1 FAD501      0.0000 
      3 O2A         0.2050   15.9070   47.3240 O.co2     1 FAD501      0.0000 
      4 O5B         2.3430   15.0830   46.2210 O.3       1 FAD501      0.0000 
      5 C5B         2.8430   16.3970   46.0060 C.3       1 FAD501      0.0000 
      6 C4B         4.1790   16.5210   46.7090 C.3       1 FAD501      0.0000 
      7 O4B         4.9000   17.6180   46.1470 O.3       1 FAD501      0.0000 
      8 C3B         4.0730   16.7910   48.2110 C.3       1 FAD501      0.0000 
      9 O3B         4.8110   15.8080   48.9390 O.3       1 FAD501      0.0000 
     10 C2B         4.7200   18.1530   48.4230 C.3       1 FAD501      0.0000 
     11 O2B         5.5440   18.1980   49.5780 O.3       1 FAD501      0.0000 
     12 C1B         5.5970   18.2970   47.2020 C.3       1 FAD501      0.0000 
     13 N9A         5.8310   19.6770   46.7270 N.pl3     1 FAD501      0.0000 
     14 C8A         4.9090   20.6210   46.4800 C.2       1 FAD501      0.0000 
     15 N7A         5.4930   21.7560   46.0020 N.2       1 FAD501      0.0000 
     16 C5A         6.8070   21.5140   45.9330 C.ar      1 FAD501      0.0000 
     17 C6A         7.9940   22.2700   45.5110 C.ar      1 FAD501      0.0000 
     18 N6A         7.8620   23.5410   45.0670 N.pl3     1 FAD501      0.0000 
     19 N1A         9.1910   21.6520   45.5950 N.ar      1 FAD501      0.0000 
     20 C2A         9.3310   20.3810   46.0240 C.ar      1 FAD501      0.0000 
     21 N3A         8.2850   19.6280   46.4270 N.ar      1 FAD501      0.0000 
     22 C4A         7.0280   20.1380   46.3940 C.ar      1 FAD501      0.0000 
     23 N1         -6.6380    9.1740   47.1460 N.2       1 FAD501      0.0000 
     24 C2         -7.0800    7.9760   46.6850 C.2       1 FAD501      0.0000 
     25 O2         -6.9950    7.7560   45.4610 O.2       1 FAD501      0.0000 
     26 N3         -7.5890    7.0260   47.5030 N.am      1 FAD501      0.0000 
     27 C4         -7.6960    7.2250   48.8290 C.2       1 FAD501      0.0000 
     28 O4         -8.1670    6.3420   49.5730 O.2       1 FAD501      0.0000 
     29 C4X        -7.2410    8.5160   49.4060 C.2       1 FAD501      0.0000 
     30 N5         -7.3160    8.7930   50.7270 N.2       1 FAD501      0.0000 
     31 C5X        -6.8860    9.9780   51.2240 C.ar      1 FAD501      0.0000 
     32 C6         -6.9780   10.2030   52.5960 C.ar      1 FAD501      0.0000 
     33 C7         -6.5550   11.4110   53.1400 C.ar      1 FAD501      0.0000 
     34 C7M        -6.6660   11.6490   54.6240 C.3       1 FAD501      0.0000 
     35 C8         -5.9800   12.4570   52.2460 C.ar      1 FAD501      0.0000 
     36 C8M        -5.5060   13.7740   52.8110 C.3       1 FAD501      0.0000 
     37 C9         -5.8820   12.2340   50.8760 C.ar      1 FAD501      0.0000 
     38 C9A        -6.3150   11.0260   50.3190 C.ar      1 FAD501      0.0000 
     39 N10        -6.2320   10.7490   48.9290 N.pl3     1 FAD501      0.0000 
     40 C10        -6.6960    9.5080   48.4530 C.2       1 FAD501      0.0000 
     41 C1'        -5.7220   11.7070   47.9460 C.3       1 FAD501      0.0000 
     42 C2'        -4.3260   11.3670   47.4740 C.3       1 FAD501      0.0000 
     43 O2'        -3.4530   11.4380   48.5990 O.3       1 FAD501      0.0000 
     44 C3'        -3.9320   12.3830   46.4070 C.3       1 FAD501      0.0000 
     45 O3'        -4.8720   12.3500   45.3290 O.3       1 FAD501      0.0000 
     46 C4'        -2.5510   12.1050   45.8490 C.3       1 FAD501      0.0000 
     47 O4'        -1.6030   12.0790   46.9200 O.3       1 FAD501      0.0000 
     48 C5'        -2.1970   13.1820   44.8460 C.3       1 FAD501      0.0000 
     49 O5'        -0.8990   12.9150   44.3700 O.3       1 FAD501      0.0000 
     50 P          -0.0320   14.0910   43.7280 P.3       1 FAD501      0.0000 
     51 O1P        -0.8870   14.8860   42.7810 O.co2     1 FAD501      0.0000 
     52 O2P         1.2720   13.4690   43.2860 O.co2     1 FAD501      0.0000 
     53 O3P         0.1790   15.1090   44.9630 O.3       1 FAD501      0.0000 
@<TRIPOS>BOND
     1    1    2 ar   
     2    1    3 ar   
     3    1    4 1    
     4    1   53 1    
     5    4    5 1    
     6    5    6 1    
     7    6    7 1    
     8    6    8 1    
     9    7   12 1    
    10    8    9 1    
    11    8   10 1    
    12   10   11 1    
    13   10   12 1    
    14   12   13 1    
    15   13   14 1    
    16   13   22 1    
    17   14   15 2    
    18   15   16 1    
    19   16   17 ar   
    20   16   22 ar   
    21   17   18 1    
    22   17   19 ar   
    23   19   20 ar   
    24   20   21 ar   
    25   21   22 ar   
    26   23   24 1    
    27   23   40 2    
    28   24   25 2    
    29   24   26 am   
    30   26   27 am   
    31   27   28 2    
    32   27   29 1    
    33   29   30 2    
    34   29   40 1    
    35   30   31 1    
    36   31   32 ar   
    37   31   38 ar   
    38   32   33 ar   
    39   33   34 1    
    40   33   35 ar   
    41   35   36 1    
    42   35   37 ar   
    43   37   38 ar   
    44   38   39 1    
    45   39   40 1    
    46   39   41 1    
    47   41   42 1    
    48   42   43 1    
    49   42   44 1    
    50   44   45 1    
    51   44   46 1    
    52   46   47 1    
    53   46   48 1    
    54   48   49 1    
    55   49   50 1    
    56   50   51 ar   
    57   50   52 ar   
    58   50   53 1    
@<TRIPOS>SUBSTRUCTURE
     1 FAD501      1 GROUP   
@<TRIPOS>SET
ATOM$ORANGE STATIC     ATOMS   COLORGROUP SYSTEM 
54 5 5 6 6 8 8 10 10 12 12 14 14 16 16 17 17 20 \
20 22 22 24 24 27 27 29 29 31 31 32 32 33 33 34 34 35 \
35 36 36 37 37 38 38 40 40 41 41 42 42 44 44 46 46 48 \
48 

