#    Name: 6bz0_2_FAD
#    Modification time : Fri May 22 19:26:10 2020

@<TRIPOS>MOLECULE
6bz0_2_FAD
   53    58     1     0     1
SMALL
NO_CHARGES


@<TRIPOS>ATOM
      1 PA        -12.9070   23.4400    0.9270 P.3       1 FAD501      0.0000 
      2 O1A       -12.6640   22.1370    0.2180 O.co2     1 FAD501      0.0000 
      3 O2A       -12.2150   24.6850    0.4260 O.co2     1 FAD501      0.0000 
      4 O5B       -14.5000   23.6570    0.9390 O.3       1 FAD501      0.0000 
      5 C5B       -15.0920   24.8820    1.3860 C.3       1 FAD501      0.0000 
      6 C4B       -16.3420   25.1580    0.5570 C.3       1 FAD501      0.0000 
      7 O4B       -17.2220   26.0320    1.2650 O.3       1 FAD501      0.0000 
      8 C3B       -16.0320   25.8310   -0.7760 C.3       1 FAD501      0.0000 
      9 O3B       -16.7180   25.1290   -1.8140 O.3       1 FAD501      0.0000 
     10 C2B       -16.5460   27.2550   -0.6400 C.3       1 FAD501      0.0000 
     11 O2B       -17.1020   27.7800   -1.8490 O.3       1 FAD501      0.0000 
     12 C1B       -17.6260   27.1200    0.4190 C.3       1 FAD501      0.0000 
     13 N9A       -17.8790   28.3410    1.2300 N.pl3     1 FAD501      0.0000 
     14 C8A       -16.9910   29.2460    1.6910 C.2       1 FAD501      0.0000 
     15 N7A       -17.6270   30.2110    2.4130 N.2       1 FAD501      0.0000 
     16 C5A       -18.9380   29.9190    2.4120 C.ar      1 FAD501      0.0000 
     17 C6A       -20.1670   30.5130    2.9780 C.ar      1 FAD501      0.0000 
     18 N6A       -20.1040   31.6450    3.7060 N.pl3     1 FAD501      0.0000 
     19 N1A       -21.3470   29.8890    2.7470 N.ar      1 FAD501      0.0000 
     20 C2A       -21.4300   28.7520    2.0190 C.ar      1 FAD501      0.0000 
     21 N3A       -20.3420   28.1610    1.4760 N.ar      1 FAD501      0.0000 
     22 C4A       -19.0990   28.6900    1.6370 C.ar      1 FAD501      0.0000 
     23 N1         -5.3220   18.0380   -0.4010 N.2       1 FAD501      0.0000 
     24 C2         -4.9070   16.7620   -0.1760 C.2       1 FAD501      0.0000 
     25 O2         -5.0630   16.2820    0.9700 O.2       1 FAD501      0.0000 
     26 N3         -4.3410   16.0010   -1.1390 N.am      1 FAD501      0.0000 
     27 C4         -4.1550   16.4660   -2.3860 C.2       1 FAD501      0.0000 
     28 O4         -3.6330   15.7500   -3.2640 O.2       1 FAD501      0.0000 
     29 C4X        -4.5800   17.8550   -2.7080 C.2       1 FAD501      0.0000 
     30 N5         -4.4280   18.3870   -3.9400 N.2       1 FAD501      0.0000 
     31 C5X        -4.8320   19.6560   -4.2110 C.ar      1 FAD501      0.0000 
     32 C6         -4.6490   20.1560   -5.4950 C.ar      1 FAD501      0.0000 
     33 C7         -5.0440   21.4520   -5.8150 C.ar      1 FAD501      0.0000 
     34 C7M        -4.8410   21.9780   -7.2140 C.3       1 FAD501      0.0000 
     35 C8         -5.6780   22.3060   -4.7720 C.ar      1 FAD501      0.0000 
     36 C8M        -6.1120   23.7160   -5.1000 C.3       1 FAD501      0.0000 
     37 C9         -5.8620   21.8140   -3.4850 C.ar      1 FAD501      0.0000 
     38 C9A        -5.4620   20.5110   -3.1480 C.ar      1 FAD501      0.0000 
     39 N10        -5.6350   19.9620   -1.8440 N.pl3     1 FAD501      0.0000 
     40 C10        -5.1940   18.6360   -1.6060 C.2       1 FAD501      0.0000 
     41 C1'        -6.2260   20.7160   -0.7270 C.3       1 FAD501      0.0000 
     42 C2'        -7.6540   20.2760   -0.4490 C.3       1 FAD501      0.0000 
     43 O2'        -8.4650   20.5070   -1.6040 O.3       1 FAD501      0.0000 
     44 C3'        -8.1910   21.0530    0.7420 C.3       1 FAD501      0.0000 
     45 O3'        -7.3430   20.8440    1.8830 O.3       1 FAD501      0.0000 
     46 C4'        -9.5930   20.6130    1.1080 C.3       1 FAD501      0.0000 
     47 O4'       -10.4720   20.7760   -0.0100 O.3       1 FAD501      0.0000 
     48 C5'       -10.0940   21.4130    2.3050 C.3       1 FAD501      0.0000 
     49 O5'       -11.4350   21.0300    2.5440 O.3       1 FAD501      0.0000 
     50 P         -12.4010   21.9860    3.3930 P.3       1 FAD501      0.0000 
     51 O1P       -11.6360   22.4750    4.5950 O.co2     1 FAD501      0.0000 
     52 O2P       -13.7110   21.2660    3.5660 O.co2     1 FAD501      0.0000 
     53 O3P       -12.5640   23.3200    2.4990 O.3       1 FAD501      0.0000 
@<TRIPOS>BOND
     1    1    2 ar   
     2    1    3 ar   
     3    1    4 1    
     4    1   53 1    
     5    4    5 1    
     6    5    6 1    
     7    6    7 1    
     8    6    8 1    
     9    7   12 1    
    10    8    9 1    
    11    8   10 1    
    12   10   11 1    
    13   10   12 1    
    14   12   13 1    
    15   13   14 1    
    16   13   22 1    
    17   14   15 2    
    18   15   16 1    
    19   16   17 ar   
    20   16   22 ar   
    21   17   18 1    
    22   17   19 ar   
    23   19   20 ar   
    24   20   21 ar   
    25   21   22 ar   
    26   23   24 1    
    27   23   40 2    
    28   24   25 2    
    29   24   26 am   
    30   26   27 am   
    31   27   28 2    
    32   27   29 1    
    33   29   30 2    
    34   29   40 1    
    35   30   31 1    
    36   31   32 ar   
    37   31   38 ar   
    38   32   33 ar   
    39   33   34 1    
    40   33   35 ar   
    41   35   36 1    
    42   35   37 ar   
    43   37   38 ar   
    44   38   39 1    
    45   39   40 1    
    46   39   41 1    
    47   41   42 1    
    48   42   43 1    
    49   42   44 1    
    50   44   45 1    
    51   44   46 1    
    52   46   47 1    
    53   46   48 1    
    54   48   49 1    
    55   49   50 1    
    56   50   51 ar   
    57   50   52 ar   
    58   50   53 1    
@<TRIPOS>SUBSTRUCTURE
     1 FAD501      1 GROUP   
@<TRIPOS>SET
ATOM$ORANGE STATIC     ATOMS   COLORGROUP SYSTEM 
54 5 5 6 6 8 8 10 10 12 12 14 14 16 16 17 17 20 \
20 22 22 24 24 27 27 29 29 31 31 32 32 33 33 34 34 35 \
35 36 36 37 37 38 38 40 40 41 41 42 42 44 44 46 46 48 \
48 

