#    Name: 6bz0_1_FAD
#    Modification time : Fri May 22 19:25:56 2020

@<TRIPOS>MOLECULE
6bz0_1_FAD
   53    58     1     0     1
SMALL
NO_CHARGES


@<TRIPOS>ATOM
      1 PA         13.3370  -23.0500   -3.4350 P.3       1 FAD501      0.0000 
      2 O1A        13.1580  -21.6170   -3.8930 O.co2     1 FAD501      0.0000 
      3 O2A        12.7840  -24.1600   -4.2790 O.co2     1 FAD501      0.0000 
      4 O5B        14.9130  -23.2480   -3.2530 O.3       1 FAD501      0.0000 
      5 C5B        15.4620  -24.5240   -2.9340 C.3       1 FAD501      0.0000 
      6 C4B        16.7960  -24.6580   -3.6330 C.3       1 FAD501      0.0000 
      7 O4B        17.5540  -25.7340   -3.0810 O.3       1 FAD501      0.0000 
      8 C3B        16.6390  -24.9580   -5.1190 C.3       1 FAD501      0.0000 
      9 O3B        17.2970  -23.9320   -5.8550 O.3       1 FAD501      0.0000 
     10 C2B        17.3270  -26.2870   -5.3560 C.3       1 FAD501      0.0000 
     11 O2B        18.1680  -26.2630   -6.5060 O.3       1 FAD501      0.0000 
     12 C1B        18.2040  -26.4340   -4.1410 C.3       1 FAD501      0.0000 
     13 N9A        18.4150  -27.8080   -3.6610 N.pl3     1 FAD501      0.0000 
     14 C8A        17.4780  -28.7370   -3.4280 C.2       1 FAD501      0.0000 
     15 N7A        18.0560  -29.8680   -2.9440 N.2       1 FAD501      0.0000 
     16 C5A        19.3810  -29.6370   -2.8600 C.ar      1 FAD501      0.0000 
     17 C6A        20.5620  -30.3960   -2.4190 C.ar      1 FAD501      0.0000 
     18 N6A        20.4220  -31.6650   -1.9750 N.pl3     1 FAD501      0.0000 
     19 N1A        21.7670  -29.7870   -2.4880 N.ar      1 FAD501      0.0000 
     20 C2A        21.9140  -28.5130   -2.9330 C.ar      1 FAD501      0.0000 
     21 N3A        20.8740  -27.7600   -3.3460 N.ar      1 FAD501      0.0000 
     22 C4A        19.6140  -28.2710   -3.3290 C.ar      1 FAD501      0.0000 
     23 N1          5.8800  -17.3680   -4.0950 N.2       1 FAD501      0.0000 
     24 C2          5.4630  -16.1630   -3.6320 C.2       1 FAD501      0.0000 
     25 O2          5.5570  -15.9280   -2.4000 O.2       1 FAD501      0.0000 
     26 N3          4.9620  -15.2140   -4.4560 N.am      1 FAD501      0.0000 
     27 C4          4.8390  -15.4100   -5.7820 C.2       1 FAD501      0.0000 
     28 O4          4.3640  -14.5120   -6.4980 O.2       1 FAD501      0.0000 
     29 C4X         5.2680  -16.6980   -6.3770 C.2       1 FAD501      0.0000 
     30 N5          5.1800  -16.9800   -7.7110 N.2       1 FAD501      0.0000 
     31 C5X         5.5970  -18.1840   -8.1910 C.ar      1 FAD501      0.0000 
     32 C6          5.5160  -18.4550   -9.5510 C.ar      1 FAD501      0.0000 
     33 C7          5.9390  -19.6810  -10.0680 C.ar      1 FAD501      0.0000 
     34 C7M         5.8300  -19.9690  -11.5460 C.3       1 FAD501      0.0000 
     35 C8          6.5010  -20.7090   -9.1570 C.ar      1 FAD501      0.0000 
     36 C8M         6.9710  -22.0410   -9.6830 C.3       1 FAD501      0.0000 
     37 C9          6.5950  -20.4400   -7.7960 C.ar      1 FAD501      0.0000 
     38 C9A         6.1710  -19.2150   -7.2690 C.ar      1 FAD501      0.0000 
     39 N10         6.2610  -18.9270   -5.8810 N.pl3     1 FAD501      0.0000 
     40 C10         5.8130  -17.6870   -5.4100 C.2       1 FAD501      0.0000 
     41 C1'         6.7660  -19.8900   -4.8950 C.3       1 FAD501      0.0000 
     42 C2'         8.1790  -19.5860   -4.4520 C.3       1 FAD501      0.0000 
     43 O2'         9.0550  -19.6250   -5.5880 O.3       1 FAD501      0.0000 
     44 C3'         8.5640  -20.6260   -3.4130 C.3       1 FAD501      0.0000 
     45 O3'         7.6020  -20.6330   -2.3470 O.3       1 FAD501      0.0000 
     46 C4'         9.9440  -20.3390   -2.8380 C.3       1 FAD501      0.0000 
     47 O4'        10.9190  -20.3190   -3.8820 O.3       1 FAD501      0.0000 
     48 C5'        10.3320  -21.3970   -1.8270 C.3       1 FAD501      0.0000 
     49 O5'        11.6290  -21.0880   -1.3580 O.3       1 FAD501      0.0000 
     50 P          12.5650  -22.2300   -0.7500 P.3       1 FAD501      0.0000 
     51 O1P        11.7620  -22.9970    0.2660 O.co2     1 FAD501      0.0000 
     52 O2P        13.8710  -21.5650   -0.3910 O.co2     1 FAD501      0.0000 
     53 O3P        12.7540  -23.2730   -1.9570 O.3       1 FAD501      0.0000 
@<TRIPOS>BOND
     1    1    2 ar   
     2    1    3 ar   
     3    1    4 1    
     4    1   53 1    
     5    4    5 1    
     6    5    6 1    
     7    6    7 1    
     8    6    8 1    
     9    7   12 1    
    10    8    9 1    
    11    8   10 1    
    12   10   11 1    
    13   10   12 1    
    14   12   13 1    
    15   13   14 1    
    16   13   22 1    
    17   14   15 2    
    18   15   16 1    
    19   16   17 ar   
    20   16   22 ar   
    21   17   18 1    
    22   17   19 ar   
    23   19   20 ar   
    24   20   21 ar   
    25   21   22 ar   
    26   23   24 1    
    27   23   40 2    
    28   24   25 2    
    29   24   26 am   
    30   26   27 am   
    31   27   28 2    
    32   27   29 1    
    33   29   30 2    
    34   29   40 1    
    35   30   31 1    
    36   31   32 ar   
    37   31   38 ar   
    38   32   33 ar   
    39   33   34 1    
    40   33   35 ar   
    41   35   36 1    
    42   35   37 ar   
    43   37   38 ar   
    44   38   39 1    
    45   39   40 1    
    46   39   41 1    
    47   41   42 1    
    48   42   43 1    
    49   42   44 1    
    50   44   45 1    
    51   44   46 1    
    52   46   47 1    
    53   46   48 1    
    54   48   49 1    
    55   49   50 1    
    56   50   51 ar   
    57   50   52 ar   
    58   50   53 1    
@<TRIPOS>SUBSTRUCTURE
     1 FAD501      1 GROUP   
@<TRIPOS>SET
ATOM$ORANGE STATIC     ATOMS   COLORGROUP SYSTEM 
54 5 5 6 6 8 8 10 10 12 12 14 14 16 16 17 17 20 \
20 22 22 24 24 27 27 29 29 31 31 32 32 33 33 34 34 35 \
35 36 36 37 37 38 38 40 40 41 41 42 42 44 44 46 46 48 \
48 

