#    Name: 5owy_1_IMP_CAVITY_N1_ALL
#    Modification time : Fri May 22 19:15:04 2020

@<TRIPOS>MOLECULE
5owy_1_IMP_CAVITY_N1_ALL
  106     0     7     0     0
SMALL
NO_CHARGES


@<TRIPOS>ATOM
      1 OG         28.0500    4.9200   48.9100 O.3       1 SER1        0.0000 
      2 N          23.0900    3.5100   50.5500 N.am      2 ALA2        0.0000 
      3 N          24.6800   -0.4700   51.9400 N.am      2 ALA2        0.0000 
      4 N          28.1900   -1.0800   51.0200 N.am      2 ALA2        0.0000 
      5 N          28.1100    1.5700   48.9600 N.am      2 ALA2        0.0000 
      6 N          28.6500    0.2400   49.4300 N.am      2 ALA2        0.0000 
      7 N          29.1800   -1.0800   49.8900 N.am      2 ALA2        0.0000 
      8 N          29.6300    0.2400   48.3000 N.am      2 ALA2        0.0000 
      9 N          30.1600   -1.0800   48.7600 N.am      2 ALA2        0.0000 
     10 N          28.5800    3.6000   49.3700 N.am      2 ALA2        0.0000 
     11 N          29.1100    2.2700   49.8300 N.am      2 ALA2        0.0000 
     12 N          29.5700    3.6000   48.2400 N.am      2 ALA2        0.0000 
     13 OD1        23.1000    4.2100   52.5500 O.co2     3 ASP3        0.0000 
     14 OD1        23.6300    2.8900   53.0100 O.co2     3 ASP3        0.0000 
     15 OD1        23.5600    5.5400   50.9500 O.co2     3 ASP3        0.0000 
     16 OD1        24.0900    4.2100   51.4200 O.co2     3 ASP3        0.0000 
     17 OD1        24.6300    3.5900   53.8800 O.co2     3 ASP3        0.0000 
     18 OD1        25.0800    4.9200   52.2900 O.co2     3 ASP3        0.0000 
     19 OD1        25.6100    3.5900   52.7600 O.co2     3 ASP3        0.0000 
     20 OD1        30.1000    2.2700   48.7100 O.co2     3 ASP3        0.0000 
     21 OD1        30.6300    0.9500   49.1700 O.co2     3 ASP3        0.0000 
     22 OD1        31.1600   -0.3800   49.6300 O.co2     3 ASP3        0.0000 
     23 OD1        32.1500   -0.3800   48.5100 O.co2     3 ASP3        0.0000 
     24 OD1        26.0800    5.6200   53.1600 O.co2     3 ASP3        0.0000 
     25 OD1        26.6100    4.3000   53.6300 O.co2     3 ASP3        0.0000 
     26 OD1        28.0600    5.6200   50.9100 O.co2     3 ASP3        0.0000 
     27 OD1        28.5900    4.3000   51.3700 O.co2     3 ASP3        0.0000 
     28 OD1        29.0400    5.6200   49.7800 O.co2     3 ASP3        0.0000 
     29 OD1        29.5700    4.3000   50.2400 O.co2     3 ASP3        0.0000 
     30 OD1        30.1100    2.9800   50.7100 O.co2     3 ASP3        0.0000 
     31 OD1        30.6400    1.6500   51.1700 O.co2     3 ASP3        0.0000 
     32 OD1        30.0300    5.6300   48.6500 O.co2     3 ASP3        0.0000 
     33 OD1        28.0600    6.3300   52.9100 O.co2     3 ASP3        0.0000 
     34 OD1        29.5800    5.0000   52.2400 O.co2     3 ASP3        0.0000 
     35 OD1        30.5700    5.0100   51.1200 O.co2     3 ASP3        0.0000 
     36 OD1        31.1000    3.6800   51.5800 O.co2     3 ASP3        0.0000 
     37 OD1        31.6300    2.3600   52.0400 O.co2     3 ASP3        0.0000 
     38 OD1        32.1600    1.0300   52.5100 O.co2     3 ASP3        0.0000 
     39 OD1        32.6900   -0.2900   52.9700 O.co2     3 ASP3        0.0000 
     40 OD1        33.1500    1.0300   51.3800 O.co2     3 ASP3        0.0000 
     41 OD1        33.6800   -0.2900   51.8400 O.co2     3 ASP3        0.0000 
     42 NZ         25.5400    6.2400   50.7000 N.4       4 LYS4        0.0000 
     43 NZ         26.0700    4.9200   51.1600 N.4       4 LYS4        0.0000 
     44 NZ         26.5300    6.2400   49.5700 N.4       4 LYS4        0.0000 
     45 NZ         27.0600    4.9200   50.0300 N.4       4 LYS4        0.0000 
     46 NZ         27.0700    5.6200   52.0400 N.4       4 LYS4        0.0000 
     47 CZ         21.5700    4.8300   51.2100 C.ar      5 PHE5        0.0000 
     48 CZ         22.5600    4.8300   50.0800 C.ar      5 PHE5        0.0000 
     49 CZ         24.5400    5.5400   49.8300 C.ar      5 PHE5        0.0000 
     50 CZ         29.7100   -1.7000   52.3600 C.ar      5 PHE5        0.0000 
     51 CZ         30.2400   -3.0300   52.8200 C.ar      5 PHE5        0.0000 
     52 CZ         30.7000   -1.7000   51.2300 C.ar      5 PHE5        0.0000 
     53 CZ         29.0400    4.9200   47.7800 C.ar      5 PHE5        0.0000 
     54 CZ         31.6900   -1.7000   50.1000 C.ar      5 PHE5        0.0000 
     55 CZ         31.2400   -2.3200   53.6900 C.ar      5 PHE5        0.0000 
     56 CZ         31.7000   -1.0000   52.1000 C.ar      5 PHE5        0.0000 
     57 CZ         32.2300   -2.3200   52.5600 C.ar      5 PHE5        0.0000 
     58 CZ         32.6900   -0.9900   50.9700 C.ar      5 PHE5        0.0000 
     59 CZ         33.2200   -2.3200   51.4400 C.ar      5 PHE5        0.0000 
     60 CZ         27.6100    5.0000   54.5000 C.ar      5 PHE5        0.0000 
     61 CZ         28.5900    5.0000   53.3700 C.ar      5 PHE5        0.0000 
     62 CZ         29.1200    3.6800   53.8400 C.ar      5 PHE5        0.0000 
     63 CZ         30.1100    3.6800   52.7100 C.ar      5 PHE5        0.0000 
     64 CZ         30.6400    2.3600   53.1700 C.ar      5 PHE5        0.0000 
     65 CZ         33.7600   -2.9400   53.9000 C.ar      5 PHE5        0.0000 
     66 CZ         31.1100    4.3900   53.5800 C.ar      5 PHE5        0.0000 
     67 CZ         31.6400    3.0600   54.0400 C.ar      5 PHE5        0.0000 
     68 CA         19.5900    4.1200   51.4700 C.3       6 GLY6        0.0000 
     69 CA         22.1000    3.5100   51.6700 C.3       6 GLY6        0.0000 
     70 CA         22.6300    2.1800   52.1400 C.3       6 GLY6        0.0000 
     71 CA         23.1700    0.8600   52.6000 C.3       6 GLY6        0.0000 
     72 CA         23.6200    2.1800   51.0100 C.3       6 GLY6        0.0000 
     73 CA         24.1500    0.8600   51.4700 C.3       6 GLY6        0.0000 
     74 CA         24.0800    3.5100   49.4200 C.3       6 GLY6        0.0000 
     75 CA         25.0800    4.2100   50.2900 C.3       6 GLY6        0.0000 
     76 CA         25.6100    2.8900   50.7500 C.3       6 GLY6        0.0000 
     77 CA         26.1400    1.5600   51.2200 C.3       6 GLY6        0.0000 
     78 CA         26.6700    0.2400   51.6800 C.3       6 GLY6        0.0000 
     79 CA         26.0600    4.2100   49.1600 C.3       6 GLY6        0.0000 
     80 CA         27.6600    0.2400   50.5500 C.3       6 GLY6        0.0000 
     81 CA         28.7200   -2.4100   51.4800 C.3       6 GLY6        0.0000 
     82 CA         27.5900    3.5900   50.5000 C.3       6 GLY6        0.0000 
     83 CA         28.1200    2.2700   50.9600 C.3       6 GLY6        0.0000 
     84 CA         32.1600    0.3300   50.5100 C.3       6 GLY6        0.0000 
     85 CA         33.6700   -0.9900   49.8400 C.3       6 GLY6        0.0000 
     86 CA         34.2100   -1.6100   52.3100 C.3       6 GLY6        0.0000 
     87 DU         24.6200    2.8900   51.8800 H         7 CUB7        0.0000 
     88 DU         25.1500    1.5600   52.3500 H         7 CUB7        0.0000 
     89 DU         25.6800    0.2400   52.8100 H         7 CUB7        0.0000 
     90 DU         27.2000   -1.0800   52.1500 H         7 CUB7        0.0000 
     91 DU         26.1400    2.2700   53.2200 H         7 CUB7        0.0000 
     92 DU         26.6000    3.5900   51.6300 H         7 CUB7        0.0000 
     93 DU         27.1300    2.2700   52.0900 H         7 CUB7        0.0000 
     94 DU         27.6600    0.9500   52.5600 H         7 CUB7        0.0000 
     95 DU         28.6500    0.9500   51.4300 H         7 CUB7        0.0000 
     96 DU         29.1800   -0.3800   51.8900 H         7 CUB7        0.0000 
     97 DU         29.6400    0.9500   50.3000 H         7 CUB7        0.0000 
     98 DU         30.1700   -0.3800   50.7600 H         7 CUB7        0.0000 
     99 DU         27.1400    2.9700   54.0900 H         7 CUB7        0.0000 
    100 DU         27.6000    4.3000   52.5000 H         7 CUB7        0.0000 
    101 DU         28.1300    2.9700   52.9600 H         7 CUB7        0.0000 
    102 DU         28.6600    1.6500   53.4300 H         7 CUB7        0.0000 
    103 DU         29.1200    2.9800   51.8400 H         7 CUB7        0.0000 
    104 DU         29.6500    1.6500   52.3000 H         7 CUB7        0.0000 
    105 DU         30.7100   -1.0000   53.2300 H         7 CUB7        0.0000 
    106 DU         31.1700    0.3300   51.6400 H         7 CUB7        0.0000 
@<TRIPOS>BOND
@<TRIPOS>SUBSTRUCTURE
     1 SER1        1 GROUP   
     2 ALA2        2 GROUP   
     3 ASP3       13 GROUP   
     4 LYS4       42 GROUP   
     5 PHE5       47 GROUP   
     6 GLY6       68 GROUP   
     7 CUB7       87 GROUP   
@<TRIPOS>SET

