#    Name: 5owy_1_IMP
#    Modification time : Fri May 22 19:15:03 2020

@<TRIPOS>MOLECULE
5owy_1_IMP
   23    25     1     0     0
SMALL
NO_CHARGES


@<TRIPOS>ATOM
      1 P          30.9140    2.1590   51.3070 P.3       1 IMP903      0.0000 
      2 O1P        30.4830    3.2470   50.3530 O.co2     1 IMP903      0.0000 
      3 O2P        32.2570    1.5480   50.9940 O.co2     1 IMP903      0.0000 
      4 O3P        30.7110    2.5070   52.7620 O.co2     1 IMP903      0.0000 
      5 O5'        29.8720    0.9600   51.0300 O.3       1 IMP903      0.0000 
      6 C5'        28.5420    0.9770   51.5460 C.3       1 IMP903      0.0000 
      7 C4'        28.3620   -0.2230   52.4670 C.3       1 IMP903      0.0000 
      8 O4'        28.8010   -1.4240   51.8310 O.3       1 IMP903      0.0000 
      9 C3'        26.9190   -0.4740   52.8920 C.3       1 IMP903      0.0000 
     10 O3'        25.9860    0.1040   51.9730 O.3       1 IMP903      0.0000 
     11 C2'        26.7870   -1.9910   52.9460 C.3       1 IMP903      0.0000 
     12 O2'        25.6650   -2.4610   52.1970 O.3       1 IMP903      0.0000 
     13 C1'        28.0970   -2.5350   52.3920 C.3       1 IMP903      0.0000 
     14 N9         28.8840   -3.1280   53.5020 N.pl3     1 IMP903      0.0000 
     15 C8         30.0100   -2.6100   54.0380 C.2       1 IMP903      0.0000 
     16 N7         30.4660   -3.4070   55.0440 N.2       1 IMP903      0.0000 
     17 C5         29.6210   -4.4520   55.1620 C.2       1 IMP903      0.0000 
     18 C6         29.5120   -5.6600   56.0170 C.2       1 IMP903      0.0000 
     19 O6         30.3570   -5.8990   56.9060 O.2       1 IMP903      0.0000 
     20 N1         28.4830   -6.4940   55.8100 N.am      1 IMP903      0.0000 
     21 C2         27.5570   -6.2620   54.8560 C.2       1 IMP903      0.0000 
     22 N3         27.5920   -5.1870   54.0450 N.2       1 IMP903      0.0000 
     23 C4         28.5800   -4.2620   54.1430 C.2       1 IMP903      0.0000 
@<TRIPOS>BOND
     1    1    2 ar   
     2    1    3 ar   
     3    1    4 ar   
     4    1    5 1    
     5    5    6 1    
     6    6    7 1    
     7    7    8 1    
     8    7    9 1    
     9    8   13 1    
    10    9   10 1    
    11    9   11 1    
    12   11   12 1    
    13   11   13 1    
    14   13   14 1    
    15   14   15 1    
    16   14   23 1    
    17   15   16 2    
    18   16   17 1    
    19   17   18 1    
    20   17   23 2    
    21   18   19 2    
    22   18   20 am   
    23   20   21 1    
    24   21   22 2    
    25   22   23 1    
@<TRIPOS>SUBSTRUCTURE
     1 IMP903      1 GROUP   
@<TRIPOS>SET

