#    Name: 5owy_1_IMP_CAVITY_N1_4
#    Modification time : Fri May 22 19:15:04 2020

@<TRIPOS>MOLECULE
5owy_1_IMP_CAVITY_N1_4
   83     0     7     0     0
SMALL
NO_CHARGES


@<TRIPOS>ATOM
      1 OG         28.0500    4.9200   48.9100 O.3       1 SER1        0.0000 
      2 N          24.6800   -0.4700   51.9400 N.am      2 ALA2        0.0000 
      3 N          28.1900   -1.0800   51.0200 N.am      2 ALA2        0.0000 
      4 N          28.1100    1.5700   48.9600 N.am      2 ALA2        0.0000 
      5 N          28.6500    0.2400   49.4300 N.am      2 ALA2        0.0000 
      6 N          29.1800   -1.0800   49.8900 N.am      2 ALA2        0.0000 
      7 N          29.6300    0.2400   48.3000 N.am      2 ALA2        0.0000 
      8 N          30.1600   -1.0800   48.7600 N.am      2 ALA2        0.0000 
      9 N          28.5800    3.6000   49.3700 N.am      2 ALA2        0.0000 
     10 N          29.1100    2.2700   49.8300 N.am      2 ALA2        0.0000 
     11 N          29.5700    3.6000   48.2400 N.am      2 ALA2        0.0000 
     12 OD1        23.6300    2.8900   53.0100 O.co2     3 ASP3        0.0000 
     13 OD1        25.6100    3.5900   52.7600 O.co2     3 ASP3        0.0000 
     14 OD1        30.1000    2.2700   48.7100 O.co2     3 ASP3        0.0000 
     15 OD1        30.6300    0.9500   49.1700 O.co2     3 ASP3        0.0000 
     16 OD1        31.1600   -0.3800   49.6300 O.co2     3 ASP3        0.0000 
     17 OD1        32.1500   -0.3800   48.5100 O.co2     3 ASP3        0.0000 
     18 OD1        28.0600    5.6200   50.9100 O.co2     3 ASP3        0.0000 
     19 OD1        28.5900    4.3000   51.3700 O.co2     3 ASP3        0.0000 
     20 OD1        29.0400    5.6200   49.7800 O.co2     3 ASP3        0.0000 
     21 OD1        29.5700    4.3000   50.2400 O.co2     3 ASP3        0.0000 
     22 OD1        30.1100    2.9800   50.7100 O.co2     3 ASP3        0.0000 
     23 OD1        30.6400    1.6500   51.1700 O.co2     3 ASP3        0.0000 
     24 OD1        30.0300    5.6300   48.6500 O.co2     3 ASP3        0.0000 
     25 OD1        29.5800    5.0000   52.2400 O.co2     3 ASP3        0.0000 
     26 OD1        30.5700    5.0100   51.1200 O.co2     3 ASP3        0.0000 
     27 OD1        31.1000    3.6800   51.5800 O.co2     3 ASP3        0.0000 
     28 OD1        31.6300    2.3600   52.0400 O.co2     3 ASP3        0.0000 
     29 OD1        32.1600    1.0300   52.5100 O.co2     3 ASP3        0.0000 
     30 OD1        32.6900   -0.2900   52.9700 O.co2     3 ASP3        0.0000 
     31 OD1        33.1500    1.0300   51.3800 O.co2     3 ASP3        0.0000 
     32 OD1        33.6800   -0.2900   51.8400 O.co2     3 ASP3        0.0000 
     33 NZ         27.0600    4.9200   50.0300 N.4       4 LYS4        0.0000 
     34 CZ         29.7100   -1.7000   52.3600 C.ar      5 PHE5        0.0000 
     35 CZ         30.2400   -3.0300   52.8200 C.ar      5 PHE5        0.0000 
     36 CZ         30.7000   -1.7000   51.2300 C.ar      5 PHE5        0.0000 
     37 CZ         29.0400    4.9200   47.7800 C.ar      5 PHE5        0.0000 
     38 CZ         31.6900   -1.7000   50.1000 C.ar      5 PHE5        0.0000 
     39 CZ         31.2400   -2.3200   53.6900 C.ar      5 PHE5        0.0000 
     40 CZ         31.7000   -1.0000   52.1000 C.ar      5 PHE5        0.0000 
     41 CZ         32.2300   -2.3200   52.5600 C.ar      5 PHE5        0.0000 
     42 CZ         32.6900   -0.9900   50.9700 C.ar      5 PHE5        0.0000 
     43 CZ         28.5900    5.0000   53.3700 C.ar      5 PHE5        0.0000 
     44 CZ         29.1200    3.6800   53.8400 C.ar      5 PHE5        0.0000 
     45 CZ         30.1100    3.6800   52.7100 C.ar      5 PHE5        0.0000 
     46 CZ         30.6400    2.3600   53.1700 C.ar      5 PHE5        0.0000 
     47 CZ         33.7600   -2.9400   53.9000 C.ar      5 PHE5        0.0000 
     48 CZ         31.1100    4.3900   53.5800 C.ar      5 PHE5        0.0000 
     49 CZ         31.6400    3.0600   54.0400 C.ar      5 PHE5        0.0000 
     50 CA         22.6300    2.1800   52.1400 C.3       6 GLY6        0.0000 
     51 CA         23.1700    0.8600   52.6000 C.3       6 GLY6        0.0000 
     52 CA         23.6200    2.1800   51.0100 C.3       6 GLY6        0.0000 
     53 CA         24.1500    0.8600   51.4700 C.3       6 GLY6        0.0000 
     54 CA         25.6100    2.8900   50.7500 C.3       6 GLY6        0.0000 
     55 CA         26.1400    1.5600   51.2200 C.3       6 GLY6        0.0000 
     56 CA         26.6700    0.2400   51.6800 C.3       6 GLY6        0.0000 
     57 CA         27.6600    0.2400   50.5500 C.3       6 GLY6        0.0000 
     58 CA         28.7200   -2.4100   51.4800 C.3       6 GLY6        0.0000 
     59 CA         27.5900    3.5900   50.5000 C.3       6 GLY6        0.0000 
     60 CA         28.1200    2.2700   50.9600 C.3       6 GLY6        0.0000 
     61 CA         32.1600    0.3300   50.5100 C.3       6 GLY6        0.0000 
     62 CA         33.6700   -0.9900   49.8400 C.3       6 GLY6        0.0000 
     63 CA         34.2100   -1.6100   52.3100 C.3       6 GLY6        0.0000 
     64 DU         24.6200    2.8900   51.8800 H         7 CUB7        0.0000 
     65 DU         25.1500    1.5600   52.3500 H         7 CUB7        0.0000 
     66 DU         25.6800    0.2400   52.8100 H         7 CUB7        0.0000 
     67 DU         27.2000   -1.0800   52.1500 H         7 CUB7        0.0000 
     68 DU         26.1400    2.2700   53.2200 H         7 CUB7        0.0000 
     69 DU         26.6000    3.5900   51.6300 H         7 CUB7        0.0000 
     70 DU         27.1300    2.2700   52.0900 H         7 CUB7        0.0000 
     71 DU         27.6600    0.9500   52.5600 H         7 CUB7        0.0000 
     72 DU         28.6500    0.9500   51.4300 H         7 CUB7        0.0000 
     73 DU         29.1800   -0.3800   51.8900 H         7 CUB7        0.0000 
     74 DU         29.6400    0.9500   50.3000 H         7 CUB7        0.0000 
     75 DU         30.1700   -0.3800   50.7600 H         7 CUB7        0.0000 
     76 DU         27.1400    2.9700   54.0900 H         7 CUB7        0.0000 
     77 DU         27.6000    4.3000   52.5000 H         7 CUB7        0.0000 
     78 DU         28.1300    2.9700   52.9600 H         7 CUB7        0.0000 
     79 DU         28.6600    1.6500   53.4300 H         7 CUB7        0.0000 
     80 DU         29.1200    2.9800   51.8400 H         7 CUB7        0.0000 
     81 DU         29.6500    1.6500   52.3000 H         7 CUB7        0.0000 
     82 DU         30.7100   -1.0000   53.2300 H         7 CUB7        0.0000 
     83 DU         31.1700    0.3300   51.6400 H         7 CUB7        0.0000 
@<TRIPOS>BOND
@<TRIPOS>SUBSTRUCTURE
     1 SER1        1 GROUP   
     2 ALA2        2 GROUP   
     3 ASP3       12 GROUP   
     4 LYS4       33 GROUP   
     5 PHE5       34 GROUP   
     6 GLY6       50 GROUP   
     7 CUB7       64 GROUP   
@<TRIPOS>SET

