#    Name: 5voo_3_C2F
#    Modification time : Fri May 22 19:14:02 2020

@<TRIPOS>MOLECULE
5voo_3_C2F
   56    58     1     0     0
SMALL
NO_CHARGES


@<TRIPOS>ATOM
      1 N1        -43.7190   59.8350   10.6000 N.2       1 C2F702      0.0000 
      2 C2        -43.1820   59.2070   11.6700 C.2       1 C2F702      0.0000 
      3 NA2       -41.9710   59.6070   12.0920 N.pl3     1 C2F702      0.0000 
      4 N3        -43.8090   58.2120   12.3230 N.am      1 C2F702      0.0000 
      5 C4        -45.0070   57.7600   11.9530 C.2       1 C2F702      0.0000 
      6 O4        -45.5290   56.8220   12.6040 O.2       1 C2F702      0.0000 
      7 C4A       -45.6550   58.4120   10.7830 C.2       1 C2F702      0.0000 
      8 N5        -46.8530   58.0660   10.1360 N.3       1 C2F702      0.0000 
      9 C6        -47.7560   59.0520    9.5180 C.3       1 C2F702      0.0000 
     10 C7        -46.8230   59.7740    8.5160 C.3       1 C2F702      0.0000 
     11 N8        -45.4780   60.1060    9.0260 N.pl3     1 C2F702      0.0000 
     12 C8A       -44.9190   59.4860   10.1110 C.2       1 C2F702      0.0000 
     13 C9        -48.2970   60.0170   10.5790 C.3       1 C2F702      0.0000 
     14 N10       -49.2900   60.9390   10.0310 N.pl3     1 C2F702      0.0000 
     15 C11       -47.0200   56.6450    9.8020 C.3       1 C2F702      0.0000 
     16 C12       -53.3190   60.0630    9.3900 C.ar      1 C2F702      0.0000 
     17 C13       -52.7570   61.2350    8.8630 C.ar      1 C2F702      0.0000 
     18 C14       -51.4010   61.5200    9.0960 C.ar      1 C2F702      0.0000 
     19 C15       -50.6030   60.6380    9.8330 C.ar      1 C2F702      0.0000 
     20 C16       -51.1690   59.4590   10.3250 C.ar      1 C2F702      0.0000 
     21 C17       -52.5190   59.1690   10.1160 C.ar      1 C2F702      0.0000 
     22 C         -54.7530   59.6950    9.1760 C.2       1 C2F702      0.0000 
     23 O         -55.2310   58.8020    9.8580 O.2       1 C2F702      0.0000 
     24 N         -55.4810   60.3120    8.2530 N.am      1 C2F702      0.0000 
     25 CA        -56.9180   60.1340    8.1950 C.3       1 C2F702      0.0000 
     26 CB        -57.5480   61.2810    7.4170 C.3       1 C2F702      0.0000 
     27 CG        -58.4290   60.8620    6.2440 C.3       1 C2F702      0.0000 
     28 CD        -58.7930   62.0730    5.4080 C.2       1 C2F702      0.0000 
     29 OE1       -58.6350   61.9700    4.1670 O.co2     1 C2F702      0.0000 
     30 OE2       -59.2260   63.1050    5.9870 O.co2     1 C2F702      0.0000 
     31 CT        -57.2870   58.7600    7.7220 C.2       1 C2F702      0.0000 
     32 O1        -56.5280   58.1550    6.9440 O.co2     1 C2F702      0.0000 
     33 O2        -58.3460   58.2670    8.1440 O.co2     1 C2F702      0.0000 
     34 HN21      -41.5620   60.2440   11.6840 H         1 C2F702      0.0000 
     35 HN22      -41.6040   59.2260   12.7700 H         1 C2F702      0.0000 
     36 HN3       -43.4230   57.8550   13.0030 H         1 C2F702      0.0000 
     37 H6        -48.5390   58.6650    9.0970 H         1 C2F702      0.0000 
     38 H71       -47.2550   60.5940    8.2290 H         1 C2F702      0.0000 
     39 H72       -46.7250   59.2150    7.7290 H         1 C2F702      0.0000 
     40 HN8       -45.0250   60.7160    8.6230 H         1 C2F702      0.0000 
     41 H91       -47.5620   60.5240   10.9580 H         1 C2F702      0.0000 
     42 H92       -48.6950   59.5090   11.3030 H         1 C2F702      0.0000 
     43 HN1       -49.0260   61.7290    9.8180 H         1 C2F702      0.0000 
     44 H111      -47.8740   56.5140    9.3610 H         1 C2F702      0.0000 
     45 H112      -46.9920   56.1160   10.6140 H         1 C2F702      0.0000 
     46 H113      -46.3050   56.3650    9.2090 H         1 C2F702      0.0000 
     47 H13       -53.3010   61.8450    8.3410 H         1 C2F702      0.0000 
     48 H14       -51.0140   62.3360    8.7420 H         1 C2F702      0.0000 
     49 H16       -50.6160   58.8330   10.8190 H         1 C2F702      0.0000 
     50 H17       -52.9020   58.3520   10.4720 H         1 C2F702      0.0000 
     51 HN        -55.0940   60.8250    7.6810 H         1 C2F702      0.0000 
     52 HA        -57.2950   60.1800    9.0880 H         1 C2F702      0.0000 
     53 HB1       -56.8400   61.8540    7.0830 H         1 C2F702      0.0000 
     54 HB2       -58.0800   61.8140    8.0280 H         1 C2F702      0.0000 
     55 HG1       -59.2340   60.4330    6.5720 H         1 C2F702      0.0000 
     56 HG2       -57.9630   60.2100    5.6970 H         1 C2F702      0.0000 
@<TRIPOS>BOND
     1    1    2 2    
     2    1   12 1    
     3    2    3 1    
     4    2    4 1    
     5    3   34 1    
     6    3   35 1    
     7    4    5 am   
     8    4   36 1    
     9    5    6 2    
    10    5    7 1    
    11    7    8 1    
    12    7   12 2    
    13    8    9 1    
    14    8   15 1    
    15    9   10 1    
    16    9   13 1    
    17    9   37 1    
    18   10   11 1    
    19   10   38 1    
    20   10   39 1    
    21   11   12 1    
    22   11   40 1    
    23   13   14 1    
    24   13   41 1    
    25   13   42 1    
    26   14   19 1    
    27   14   43 1    
    28   15   44 1    
    29   15   45 1    
    30   15   46 1    
    31   16   17 ar   
    32   16   21 ar   
    33   16   22 1    
    34   17   18 ar   
    35   17   47 1    
    36   18   19 ar   
    37   18   48 1    
    38   19   20 ar   
    39   20   21 ar   
    40   20   49 1    
    41   21   50 1    
    42   22   23 2    
    43   22   24 am   
    44   24   25 1    
    45   24   51 1    
    46   25   26 1    
    47   25   31 1    
    48   25   52 1    
    49   26   27 1    
    50   26   53 1    
    51   26   54 1    
    52   27   28 1    
    53   27   55 1    
    54   27   56 1    
    55   28   29 ar   
    56   28   30 ar   
    57   31   32 ar   
    58   31   33 ar   
@<TRIPOS>SUBSTRUCTURE
     1 C2F702      1 GROUP   
@<TRIPOS>SET

