#    Name: 5voo_1_C2F
#    Modification time : Fri May 22 19:13:51 2020

@<TRIPOS>MOLECULE
5voo_1_C2F
   56    58     1     0     0
SMALL
NO_CHARGES


@<TRIPOS>ATOM
      1 N1        -44.5170   50.2080  -12.0730 N.2       1 C2F3001     0.0000 
      2 C2        -43.9990   50.7650  -13.2030 C.2       1 C2F3001     0.0000 
      3 NA2       -42.8290   50.2860  -13.6840 N.pl3     1 C2F3001     0.0000 
      4 N3        -44.6080   51.7810  -13.8610 N.am      1 C2F3001     0.0000 
      5 C4        -45.7600   52.3160  -13.4450 C.2       1 C2F3001     0.0000 
      6 O4        -46.2480   53.2610  -14.0890 O.2       1 C2F3001     0.0000 
      7 C4A       -46.3960   51.7390  -12.2330 C.2       1 C2F3001     0.0000 
      8 N5        -47.5300   52.1660  -11.5320 N.3       1 C2F3001     0.0000 
      9 C6        -48.4470   51.2510  -10.8480 C.3       1 C2F3001     0.0000 
     10 C7        -47.5080   50.5320   -9.8570 C.3       1 C2F3001     0.0000 
     11 N8        -46.2200   50.1100  -10.4280 N.pl3     1 C2F3001     0.0000 
     12 C8A       -45.6730   50.6530  -11.5500 C.2       1 C2F3001     0.0000 
     13 C9        -49.0940   50.3040  -11.8490 C.3       1 C2F3001     0.0000 
     14 N10       -50.0840   49.4870  -11.1550 N.pl3     1 C2F3001     0.0000 
     15 C11       -47.6300   53.5840  -11.1550 C.3       1 C2F3001     0.0000 
     16 C12       -53.9630   50.6990  -10.4660 C.ar      1 C2F3001     0.0000 
     17 C13       -53.5110   49.4870   -9.9600 C.ar      1 C2F3001     0.0000 
     18 C14       -52.1990   49.1040  -10.1980 C.ar      1 C2F3001     0.0000 
     19 C15       -51.3570   49.9140  -10.9430 C.ar      1 C2F3001     0.0000 
     20 C16       -51.8240   51.1330  -11.4580 C.ar      1 C2F3001     0.0000 
     21 C17       -53.1230   51.5340  -11.2160 C.ar      1 C2F3001     0.0000 
     22 C         -55.3650   51.1380  -10.2330 C.2       1 C2F3001     0.0000 
     23 O         -55.8090   51.9770  -10.9890 O.2       1 C2F3001     0.0000 
     24 N         -56.0860   50.6280   -9.2590 N.am      1 C2F3001     0.0000 
     25 CA        -57.4770   50.9970   -9.1020 C.3       1 C2F3001     0.0000 
     26 CB        -58.1940   49.8140   -8.4570 C.3       1 C2F3001     0.0000 
     27 CG        -59.1260   50.1460   -7.2990 C.3       1 C2F3001     0.0000 
     28 CD        -59.4360   48.8840   -6.5270 C.2       1 C2F3001     0.0000 
     29 OE1       -60.0060   47.9470   -7.1270 O.co2     1 C2F3001     0.0000 
     30 OE2       -59.1140   48.8250   -5.3210 O.co2     1 C2F3001     0.0000 
     31 CT        -57.5960   52.3430   -8.4220 C.2       1 C2F3001     0.0000 
     32 O1        -58.5990   53.0680   -8.6600 O.co2     1 C2F3001     0.0000 
     33 O2        -56.6630   52.7150   -7.6650 O.co2     1 C2F3001     0.0000 
     34 HN21      -42.4280   49.6430  -13.2780 H         1 C2F3001     0.0000 
     35 HN22      -42.4860   50.6250  -14.3960 H         1 C2F3001     0.0000 
     36 HN3       -44.2400   52.0930  -14.5730 H         1 C2F3001     0.0000 
     37 H6        -49.1950   51.6790  -10.4030 H         1 C2F3001     0.0000 
     38 H71       -47.9640   49.7510   -9.5070 H         1 C2F3001     0.0000 
     39 H72       -47.3370   51.1220   -9.1060 H         1 C2F3001     0.0000 
     40 HN8       -45.7870   49.4830  -10.0290 H         1 C2F3001     0.0000 
     41 H91       -48.4210   49.7390  -12.2600 H         1 C2F3001     0.0000 
     42 H92       -49.5160   50.8070  -12.5630 H         1 C2F3001     0.0000 
     43 HN1       -49.8540   48.7090  -10.8700 H         1 C2F3001     0.0000 
     44 H111      -48.4610   53.7340  -10.6780 H         1 C2F3001     0.0000 
     45 H112      -47.6120   54.1340  -11.9540 H         1 C2F3001     0.0000 
     46 H113      -46.8830   53.8210  -10.5840 H         1 C2F3001     0.0000 
     47 H13       -54.1050   48.9160   -9.4470 H         1 C2F3001     0.0000 
     48 H14       -51.8690   48.2650   -9.8410 H         1 C2F3001     0.0000 
     49 H16       -51.2340   51.6940  -11.9850 H         1 C2F3001     0.0000 
     50 H17       -53.4490   52.3800  -11.5600 H         1 C2F3001     0.0000 
     51 HN        -55.7280   50.0700   -8.7110 H         1 C2F3001     0.0000 
     52 HA        -57.9320   51.1520   -9.9450 H         1 C2F3001     0.0000 
     53 HB1       -57.5250   49.1870   -8.1400 H         1 C2F3001     0.0000 
     54 HB2       -58.7080   49.3580   -9.1420 H         1 C2F3001     0.0000 
     55 HG1       -59.9460   50.5420   -7.6340 H         1 C2F3001     0.0000 
     56 HG2       -58.7120   50.8010   -6.7150 H         1 C2F3001     0.0000 
@<TRIPOS>BOND
     1    1    2 2    
     2    1   12 1    
     3    2    3 1    
     4    2    4 1    
     5    3   34 1    
     6    3   35 1    
     7    4    5 am   
     8    4   36 1    
     9    5    6 2    
    10    5    7 1    
    11    7    8 1    
    12    7   12 2    
    13    8    9 1    
    14    8   15 1    
    15    9   10 1    
    16    9   13 1    
    17    9   37 1    
    18   10   11 1    
    19   10   38 1    
    20   10   39 1    
    21   11   12 1    
    22   11   40 1    
    23   13   14 1    
    24   13   41 1    
    25   13   42 1    
    26   14   19 1    
    27   14   43 1    
    28   15   44 1    
    29   15   45 1    
    30   15   46 1    
    31   16   17 ar   
    32   16   21 ar   
    33   16   22 1    
    34   17   18 ar   
    35   17   47 1    
    36   18   19 ar   
    37   18   48 1    
    38   19   20 ar   
    39   20   21 ar   
    40   20   49 1    
    41   21   50 1    
    42   22   23 2    
    43   22   24 am   
    44   24   51 1    
    45   24   25 1    
    46   25   26 1    
    47   25   31 1    
    48   25   52 1    
    49   26   27 1    
    50   26   53 1    
    51   26   54 1    
    52   27   28 1    
    53   27   55 1    
    54   27   56 1    
    55   28   29 ar   
    56   28   30 ar   
    57   31   32 ar   
    58   31   33 ar   
@<TRIPOS>SUBSTRUCTURE
     1 C2F3001     1 GROUP   
@<TRIPOS>SET

