#    Name: 5voo_5_C2F
#    Modification time : Fri May 22 19:14:12 2020

@<TRIPOS>MOLECULE
5voo_5_C2F
   56    58     1     0     0
SMALL
NO_CHARGES


@<TRIPOS>ATOM
      1 N1        -16.3780   78.8050  -26.1520 N.2       1 C2F3001     0.0000 
      2 C2        -17.0000   78.4130  -25.0120 C.2       1 C2F3001     0.0000 
      3 NA2       -16.4470   77.3780  -24.3400 N.pl3     1 C2F3001     0.0000 
      4 N3        -18.1200   79.0160  -24.5430 N.am      1 C2F3001     0.0000 
      5 C4        -18.6830   80.0570  -25.1950 C.2       1 C2F3001     0.0000 
      6 O4        -19.7100   80.6160  -24.7670 O.2       1 C2F3001     0.0000 
      7 C4A       -18.0400   80.5200  -26.4500 C.2       1 C2F3001     0.0000 
      8 N5        -18.4660   81.5210  -27.3140 N.3       1 C2F3001     0.0000 
      9 C6        -17.4790   82.3860  -27.9570 C.3       1 C2F3001     0.0000 
     10 C7        -16.5920   81.4230  -28.7770 C.3       1 C2F3001     0.0000 
     11 N8        -16.2180   80.2080  -28.0580 N.pl3     1 C2F3001     0.0000 
     12 C8A       -16.8330   79.8120  -26.9050 C.2       1 C2F3001     0.0000 
     13 C9        -16.6430   83.1160  -26.9000 C.3       1 C2F3001     0.0000 
     14 N10       -15.7840   84.0780  -27.5780 N.pl3     1 C2F3001     0.0000 
     15 C11       -19.8520   81.5390  -27.7680 C.3       1 C2F3001     0.0000 
     16 C12       -17.0160   87.7830  -28.9480 C.ar      1 C2F3001     0.0000 
     17 C13       -15.7590   87.2800  -29.3150 C.ar      1 C2F3001     0.0000 
     18 C14       -15.3690   86.0280  -28.8460 C.ar      1 C2F3001     0.0000 
     19 C15       -16.2170   85.2810  -28.0180 C.ar      1 C2F3001     0.0000 
     20 C16       -17.4710   85.7910  -27.6540 C.ar      1 C2F3001     0.0000 
     21 C17       -17.8640   87.0330  -28.1160 C.ar      1 C2F3001     0.0000 
     22 C         -17.4760   89.1470  -29.4070 C.2       1 C2F3001     0.0000 
     23 O         -18.3850   89.6890  -28.7770 O.2       1 C2F3001     0.0000 
     24 N         -16.8780   89.7490  -30.4370 N.am      1 C2F3001     0.0000 
     25 CA        -17.2710   91.0930  -30.8180 C.3       1 C2F3001     0.0000 
     26 CB        -16.1000   91.8330  -31.4560 C.3       1 C2F3001     0.0000 
     27 CG        -16.3020   92.2950  -32.8950 C.3       1 C2F3001     0.0000 
     28 CD        -14.9560   92.6850  -33.4560 C.2       1 C2F3001     0.0000 
     29 OE1       -14.1470   93.3150  -32.7390 O.co2     1 C2F3001     0.0000 
     30 OE2       -14.6990   92.3500  -34.6290 O.co2     1 C2F3001     0.0000 
     31 CT        -18.5640   91.0720  -31.5880 C.2       1 C2F3001     0.0000 
     32 O1        -19.3460   92.0300  -31.4260 O.co2     1 C2F3001     0.0000 
     33 O2        -18.8270   90.0960  -32.3200 O.co2     1 C2F3001     0.0000 
     34 HN21      -15.7340   77.0020  -24.6410 H         1 C2F3001     0.0000 
     35 HN22      -16.8080   77.0960  -23.6120 H         1 C2F3001     0.0000 
     36 HN3       -18.4790   78.7300  -23.8160 H         1 C2F3001     0.0000 
     37 H6        -17.8900   83.0690  -28.5100 H         1 C2F3001     0.0000 
     38 H71       -15.7860   81.8900  -29.0470 H         1 C2F3001     0.0000 
     39 H72       -17.0620   81.1760  -29.5890 H         1 C2F3001     0.0000 
     40 HN8       -15.5830   79.7210  -28.3740 H         1 C2F3001     0.0000 
     41 H91       -16.1090   82.4830  -26.3960 H         1 C2F3001     0.0000 
     42 H92       -17.2210   83.5680  -26.2650 H         1 C2F3001     0.0000 
     43 HN1       -14.9590   83.8700  -27.7050 H         1 C2F3001     0.0000 
     44 H111      -19.9890   82.2940  -28.3610 H         1 C2F3001     0.0000 
     45 H112      -20.4420   81.6190  -27.0030 H         1 C2F3001     0.0000 
     46 H113      -20.0480   80.7160  -28.2430 H         1 C2F3001     0.0000 
     47 H13       -15.1700   87.7970  -29.8870 H         1 C2F3001     0.0000 
     48 H14       -14.5030   85.6700  -29.0950 H         1 C2F3001     0.0000 
     49 H16       -18.0600   85.2750  -27.0810 H         1 C2F3001     0.0000 
     50 H17       -18.7310   87.3890  -27.8640 H         1 C2F3001     0.0000 
     51 HN        -16.2600   89.3410  -30.8750 H         1 C2F3001     0.0000 
     52 HA        -17.4810   91.6260  -30.0360 H         1 C2F3001     0.0000 
     53 HB1       -15.3220   91.2550  -31.4270 H         1 C2F3001     0.0000 
     54 HB2       -15.8970   92.6100  -30.9120 H         1 C2F3001     0.0000 
     55 HG1       -16.9130   93.0480  -32.9260 H         1 C2F3001     0.0000 
     56 HG2       -16.6980   91.5860  -33.4260 H         1 C2F3001     0.0000 
@<TRIPOS>BOND
     1    1    2 2    
     2    1   12 1    
     3    2    3 1    
     4    2    4 1    
     5    3   34 1    
     6    3   35 1    
     7    4    5 am   
     8    4   36 1    
     9    5    6 2    
    10    5    7 1    
    11    7    8 1    
    12    7   12 2    
    13    8    9 1    
    14    8   15 1    
    15    9   10 1    
    16    9   13 1    
    17    9   37 1    
    18   10   11 1    
    19   10   38 1    
    20   10   39 1    
    21   11   12 1    
    22   11   40 1    
    23   13   14 1    
    24   13   41 1    
    25   13   42 1    
    26   14   19 1    
    27   14   43 1    
    28   15   44 1    
    29   15   45 1    
    30   15   46 1    
    31   16   17 ar   
    32   16   21 ar   
    33   16   22 1    
    34   17   18 ar   
    35   17   47 1    
    36   18   19 ar   
    37   18   48 1    
    38   19   20 ar   
    39   20   21 ar   
    40   20   49 1    
    41   21   50 1    
    42   22   23 2    
    43   22   24 am   
    44   24   25 1    
    45   24   51 1    
    46   25   26 1    
    47   25   31 1    
    48   25   52 1    
    49   26   27 1    
    50   26   53 1    
    51   26   54 1    
    52   27   28 1    
    53   27   55 1    
    54   27   56 1    
    55   28   29 ar   
    56   28   30 ar   
    57   31   32 ar   
    58   31   33 ar   
@<TRIPOS>SUBSTRUCTURE
     1 C2F3001     1 GROUP   
@<TRIPOS>SET

