#    Name: 5voo_3_C2F_CAVITY_N1_4
#    Modification time : Fri May 22 19:14:03 2020

@<TRIPOS>MOLECULE
5voo_3_C2F_CAVITY_N1_4
   60     0     6     0     0
SMALL
NO_CHARGES


@<TRIPOS>ATOM
      1 N         -49.4200   54.5900    7.7000 N.am      1 ALA2        0.0000 
      2 O         -48.7000   55.8100    8.1900 O.2       1 ALA2        0.0000 
      3 O         -50.0100   56.4900    8.4500 O.2       1 ALA2        0.0000 
      4 N         -55.2600   59.7400    8.1100 N.am      1 ALA2        0.0000 
      5 O         -49.2900   57.7000    8.9400 O.2       1 ALA2        0.0000 
      6 O         -49.2800   58.2600    7.5500 O.2       1 ALA2        0.0000 
      7 O         -50.6000   58.3800    9.2100 O.2       1 ALA2        0.0000 
      8 O         -50.5900   58.9400    7.8100 O.2       1 ALA2        0.0000 
      9 O         -50.5800   59.4900    6.4200 O.2       1 ALA2        0.0000 
     10 N         -53.2200   60.2900    8.3400 N.am      1 ALA2        0.0000 
     11 N         -54.5300   60.9600    8.6000 N.am      1 ALA2        0.0000 
     12 N         -45.9400   57.0100   10.3000 N.am      1 ALA2        0.0000 
     13 N         -47.2600   57.6900   10.5700 N.am      1 ALA2        0.0000 
     14 N         -47.2500   58.2500    9.1700 N.am      1 ALA2        0.0000 
     15 O         -47.2400   58.8000    7.7800 O.2       1 ALA2        0.0000 
     16 N         -48.5600   58.9200    9.4400 N.am      1 ALA2        0.0000 
     17 O         -48.5500   59.4800    8.0400 O.2       1 ALA2        0.0000 
     18 N         -49.8800   59.0400   11.0900 N.am      1 ALA2        0.0000 
     19 O         -49.8700   60.1500    8.3100 O.2       1 ALA2        0.0000 
     20 O         -51.1800   60.8300    8.5700 O.2       1 ALA2        0.0000 
     21 O         -51.1700   61.3900    7.1800 O.2       1 ALA2        0.0000 
     22 N         -52.5000   61.5000    8.8300 N.am      1 ALA2        0.0000 
     23 N         -52.4900   62.0600    7.4400 N.am      1 ALA2        0.0000 
     24 N         -46.5300   58.9100   11.0600 N.am      1 ALA2        0.0000 
     25 N         -47.8500   59.5800   11.3200 N.am      1 ALA2        0.0000 
     26 O         -47.8300   60.7000    8.5400 O.2       1 ALA2        0.0000 
     27 OD1       -55.2700   59.1800    9.5000 O.co2     2 ASP3        0.0000 
     28 OD1       -53.8100   62.1800    9.1000 O.co2     2 ASP3        0.0000 
     29 NZ        -53.2300   59.7300    9.7300 N.4       3 LYS4        0.0000 
     30 NZ        -54.5400   60.4000   10.0000 N.4       3 LYS4        0.0000 
     31 NZ        -51.1900   60.2700    9.9600 N.4       3 LYS4        0.0000 
     32 NZ        -52.5000   60.9400   10.2300 N.4       3 LYS4        0.0000 
     33 NZ        -45.2100   58.7900    9.4000 N.4       3 LYS4        0.0000 
     34 NZ        -46.5200   60.0200    8.2700 N.4       3 LYS4        0.0000 
     35 NZ        -50.4700   61.4900   10.4600 N.4       3 LYS4        0.0000 
     36 NZ        -44.4900   60.0100    9.9000 N.4       3 LYS4        0.0000 
     37 NZ        -45.8000   60.6800   10.1600 N.4       3 LYS4        0.0000 
     38 CZ        -55.9900   57.9700    9.0100 C.ar      4 PHE5        0.0000 
     39 CZ        -51.3200   57.1600    8.7100 C.ar      4 PHE5        0.0000 
     40 CZ        -51.3200   57.7200    7.3200 C.ar      4 PHE5        0.0000 
     41 CZ        -53.9500   58.5100    9.2400 C.ar      4 PHE5        0.0000 
     42 CZ        -51.9100   59.0500    9.4700 C.ar      4 PHE5        0.0000 
     43 CA        -50.0000   57.0400    7.0600 C.3       5 GLY6        0.0000 
     44 CA        -47.9700   57.0300    8.6800 C.3       5 GLY6        0.0000 
     45 CA        -47.9600   57.5900    7.2900 C.3       5 GLY6        0.0000 
     46 CA        -51.9200   58.4900   10.8600 C.3       5 GLY6        0.0000 
     47 CA        -51.9100   59.6100    8.0800 C.3       5 GLY6        0.0000 
     48 CA        -45.9400   57.5700    8.9100 C.3       5 GLY6        0.0000 
     49 CA        -51.2000   59.7100   11.3500 C.3       5 GLY6        0.0000 
     50 CA        -49.1500   60.8100   10.1900 C.3       5 GLY6        0.0000 
     51 CA        -50.4600   62.0500    9.0600 C.3       5 GLY6        0.0000 
     52 CA        -51.7700   62.7200    9.3300 C.3       5 GLY6        0.0000 
     53 CA        -44.5000   59.4500   11.2900 C.3       5 GLY6        0.0000 
     54 CA        -45.8100   60.1200   11.5500 C.3       5 GLY6        0.0000 
     55 CA        -47.1200   60.8000   11.8100 C.3       5 GLY6        0.0000 
     56 CA        -47.1100   61.3600   10.4200 C.3       5 GLY6        0.0000 
     57 DU        -49.8800   59.6000    9.7000 H         6 CUB7        0.0000 
     58 DU        -45.2200   58.2300   10.8000 H         6 CUB7        0.0000 
     59 DU        -46.5200   59.4600    9.6700 H         6 CUB7        0.0000 
     60 DU        -47.8400   60.1400    9.9300 H         6 CUB7        0.0000 
@<TRIPOS>BOND
@<TRIPOS>SUBSTRUCTURE
     1 ALA2        1 GROUP   
     2 ASP3       27 GROUP   
     3 LYS4       29 GROUP   
     4 PHE5       38 GROUP   
     5 GLY6       43 GROUP   
     6 CUB7       57 GROUP   
@<TRIPOS>SET

