#    Name: 5voo_5_C2F_CAVITY_N1_4
#    Modification time : Fri May 22 19:14:13 2020

@<TRIPOS>MOLECULE
5voo_5_C2F_CAVITY_N1_4
   96     0     6     0     0
SMALL
NO_CHARGES


@<TRIPOS>ATOM
      1 O         -22.5900   79.2800  -24.2700 O.2       1 ALA2        0.0000 
      2 N         -22.5800   79.8400  -25.6600 N.am      1 ALA2        0.0000 
      3 N         -22.5700   80.4000  -27.0500 N.am      1 ALA2        0.0000 
      4 O         -16.6000   78.3600  -26.2200 O.2       1 ALA2        0.0000 
      5 N         -19.2200   80.2700  -27.0800 N.am      1 ALA2        0.0000 
      6 N         -20.5400   80.3800  -25.4300 N.am      1 ALA2        0.0000 
      7 N         -20.5300   80.9400  -26.8200 N.am      1 ALA2        0.0000 
      8 N         -20.5200   81.5000  -28.2100 N.am      1 ALA2        0.0000 
      9 N         -21.8500   81.0600  -25.1700 N.am      1 ALA2        0.0000 
     10 N         -21.8500   81.6200  -26.5600 N.am      1 ALA2        0.0000 
     11 O         -21.8400   82.1700  -27.9500 O.2       1 ALA2        0.0000 
     12 O         -23.1500   82.8500  -27.6900 O.2       1 ALA2        0.0000 
     13 O         -17.1600   81.9300  -29.6400 O.2       1 ALA2        0.0000 
     14 O         -18.5100   80.3700  -23.8100 O.2       1 ALA2        0.0000 
     15 N         -18.4900   81.4800  -26.5900 N.am      1 ALA2        0.0000 
     16 N         -18.4900   82.0400  -27.9800 N.am      1 ALA2        0.0000 
     17 O         -18.4800   82.6000  -29.3800 O.2       1 ALA2        0.0000 
     18 O         -16.4400   83.1400  -29.1500 O.2       1 ALA2        0.0000 
     19 N         -17.7700   82.7000  -26.1000 N.am      1 ALA2        0.0000 
     20 N         -17.7600   83.2600  -27.4900 N.am      1 ALA2        0.0000 
     21 O         -17.7500   83.8200  -28.8800 O.2       1 ALA2        0.0000 
     22 O         -17.7500   84.3800  -30.2800 O.2       1 ALA2        0.0000 
     23 O         -20.3700   85.7300  -29.7500 O.2       1 ALA2        0.0000 
     24 O         -15.7200   84.3600  -28.6500 O.2       1 ALA2        0.0000 
     25 O         -15.7100   84.9200  -30.0500 O.2       1 ALA2        0.0000 
     26 N         -17.0400   84.4800  -27.0000 N.am      1 ALA2        0.0000 
     27 N         -18.3500   85.1500  -26.7400 N.am      1 ALA2        0.0000 
     28 O         -18.3400   85.7100  -28.1300 O.2       1 ALA2        0.0000 
     29 O         -18.3400   86.2700  -29.5200 O.2       1 ALA2        0.0000 
     30 O         -19.6500   86.9400  -29.2600 O.2       1 ALA2        0.0000 
     31 N         -14.9800   86.1400  -29.5500 N.am      1 ALA2        0.0000 
     32 N         -16.3000   86.8100  -29.2900 N.am      1 ALA2        0.0000 
     33 N         -16.2900   87.3700  -30.6800 N.am      1 ALA2        0.0000 
     34 N         -17.6000   88.0500  -30.4200 N.am      1 ALA2        0.0000 
     35 OD1       -18.9300   88.1600  -28.7700 O.co2     2 ASP3        0.0000 
     36 OD1       -15.5700   88.0300  -28.8000 O.co2     2 ASP3        0.0000 
     37 OD1       -16.8900   88.7000  -28.5400 O.co2     2 ASP3        0.0000 
     38 OD1       -16.8800   89.2600  -29.9300 O.co2     2 ASP3        0.0000 
     39 OD1       -18.2000   89.3800  -28.2700 O.co2     2 ASP3        0.0000 
     40 OD1       -18.1900   89.9400  -29.6600 O.co2     2 ASP3        0.0000 
     41 OD1       -18.1900   90.5000  -31.0600 O.co2     2 ASP3        0.0000 
     42 NZ        -17.3200   77.7000  -28.1000 N.4       3 LYS4        0.0000 
     43 NZ        -17.3100   78.2600  -29.5000 N.4       3 LYS4        0.0000 
     44 NZ        -18.6500   77.2600  -25.0600 N.4       3 LYS4        0.0000 
     45 NZ        -19.9600   77.9300  -24.7900 N.4       3 LYS4        0.0000 
     46 NZ        -16.6100   77.8000  -24.8300 N.4       3 LYS4        0.0000 
     47 NZ        -16.5900   78.9200  -27.6100 N.4       3 LYS4        0.0000 
     48 NZ        -16.5800   79.4700  -29.0000 N.4       3 LYS4        0.0000 
     49 NZ        -17.9100   79.0300  -25.9600 N.4       3 LYS4        0.0000 
     50 NZ        -19.2300   79.1500  -24.3000 N.4       3 LYS4        0.0000 
     51 NZ        -20.5500   79.8200  -24.0400 N.4       3 LYS4        0.0000 
     52 NZ        -15.8700   80.1300  -27.1200 N.4       3 LYS4        0.0000 
     53 NZ        -15.8600   80.6900  -28.5100 N.4       3 LYS4        0.0000 
     54 NZ        -17.2000   79.6900  -24.0700 N.4       3 LYS4        0.0000 
     55 NZ        -15.1400   81.9100  -28.0200 N.4       3 LYS4        0.0000 
     56 NZ        -16.3100   86.2500  -27.9000 N.4       3 LYS4        0.0000 
     57 NZ        -16.9000   88.1500  -27.1400 N.4       3 LYS4        0.0000 
     58 CZ        -18.9200   88.7200  -30.1600 C.ar      4 PHE5        0.0000 
     59 CA        -19.3600   76.6000  -26.9400 C.3       5 GLY6        0.0000 
     60 CA        -19.3500   77.1600  -28.3300 C.3       5 GLY6        0.0000 
     61 CA        -20.6700   77.2700  -26.6800 C.3       5 GLY6        0.0000 
     62 CA        -21.9900   77.9500  -26.4100 C.3       5 GLY6        0.0000 
     63 CA        -18.6400   77.8200  -26.4500 C.3       5 GLY6        0.0000 
     64 CA        -19.9500   78.4900  -26.1900 C.3       5 GLY6        0.0000 
     65 CA        -21.2700   78.6100  -24.5300 C.3       5 GLY6        0.0000 
     66 CA        -15.8800   79.5800  -25.7300 C.3       5 GLY6        0.0000 
     67 CA        -17.1900   80.2500  -25.4600 C.3       5 GLY6        0.0000 
     68 CA        -18.5000   80.9300  -25.2000 C.3       5 GLY6        0.0000 
     69 CA        -15.1400   81.3500  -26.6300 C.3       5 GLY6        0.0000 
     70 CA        -16.4700   81.4700  -24.9700 C.3       5 GLY6        0.0000 
     71 CA        -16.4600   82.0300  -26.3600 C.3       5 GLY6        0.0000 
     72 CA        -14.4100   83.1300  -27.5300 C.3       5 GLY6        0.0000 
     73 CA        -15.7300   83.2400  -25.8700 C.3       5 GLY6        0.0000 
     74 CA        -15.7200   83.8000  -27.2600 C.3       5 GLY6        0.0000 
     75 CA        -17.0200   85.5900  -29.7800 C.3       5 GLY6        0.0000 
     76 CA        -17.0100   86.1500  -31.1800 C.3       5 GLY6        0.0000 
     77 CA        -14.9900   85.5800  -28.1600 C.3       5 GLY6        0.0000 
     78 CA        -17.6200   86.9300  -27.6400 C.3       5 GLY6        0.0000 
     79 CA        -18.9300   87.6000  -27.3700 C.3       5 GLY6        0.0000 
     80 DU        -20.6700   77.8300  -28.0700 H         6 CUB7        0.0000 
     81 DU        -21.9800   78.5000  -27.8100 H         6 CUB7        0.0000 
     82 DU        -18.6300   78.3700  -27.8400 H         6 CUB7        0.0000 
     83 DU        -18.6200   78.9300  -29.2300 H         6 CUB7        0.0000 
     84 DU        -19.9400   79.0500  -27.5800 H         6 CUB7        0.0000 
     85 DU        -21.2600   79.1600  -25.9200 H         6 CUB7        0.0000 
     86 DU        -21.2600   79.7200  -27.3100 H         6 CUB7        0.0000 
     87 DU        -17.9100   79.5900  -27.3500 H         6 CUB7        0.0000 
     88 DU        -17.9000   80.1500  -28.7400 H         6 CUB7        0.0000 
     89 DU        -17.8900   80.7100  -30.1300 H         6 CUB7        0.0000 
     90 DU        -19.2300   79.7100  -25.6900 H         6 CUB7        0.0000 
     91 DU        -19.2100   80.8200  -28.4800 H         6 CUB7        0.0000 
     92 DU        -17.1800   80.8100  -26.8600 H         6 CUB7        0.0000 
     93 DU        -17.1700   81.3700  -28.2500 H         6 CUB7        0.0000 
     94 DU        -16.4500   82.5900  -27.7500 H         6 CUB7        0.0000 
     95 DU        -17.0300   85.0400  -28.3900 H         6 CUB7        0.0000 
     96 DU        -17.6100   87.4900  -29.0300 H         6 CUB7        0.0000 
@<TRIPOS>BOND
@<TRIPOS>SUBSTRUCTURE
     1 ALA2        1 GROUP   
     2 ASP3       35 GROUP   
     3 LYS4       42 GROUP   
     4 PHE5       58 GROUP   
     5 GLY6       59 GROUP   
     6 CUB7       80 GROUP   
@<TRIPOS>SET

