#    Name: 5voo_3_C2F_CAVITY_N1_8
#    Modification time : Fri May 22 19:14:03 2020

@<TRIPOS>MOLECULE
5voo_3_C2F_CAVITY_N1_8
  110     0     7     0     0
SMALL
NO_CHARGES


@<TRIPOS>ATOM
      1 OG        -50.1200   55.0500    3.0300 O.3       1 SER1        0.0000 
      2 OG        -49.4000   56.2700    3.5200 O.3       1 SER1        0.0000 
      3 OG        -49.3900   56.8300    2.1300 O.3       1 SER1        0.0000 
      4 OG        -50.7100   56.9400    3.7800 O.3       1 SER1        0.0000 
      5 OG        -49.9900   57.6000    5.6700 O.3       1 SER1        0.0000 
      6 O         -54.9500   50.5100    7.6400 O.2       2 ALA2        0.0000 
      7 O         -54.2200   52.2900    6.7400 O.2       2 ALA2        0.0000 
      8 N         -50.8800   51.6000    8.1000 N.am      2 ALA2        0.0000 
      9 O         -52.1800   52.8300    6.9700 O.2       2 ALA2        0.0000 
     10 O         -52.1700   53.3900    5.5800 O.2       2 ALA2        0.0000 
     11 N         -51.4500   54.6100    6.0700 N.am      2 ALA2        0.0000 
     12 N         -52.7500   56.4000    3.5500 N.am      2 ALA2        0.0000 
     13 N         -49.4200   54.5900    7.7000 N.am      2 ALA2        0.0000 
     14 O         -50.7300   55.2700    7.9600 O.2       2 ALA2        0.0000 
     15 O         -48.7000   55.8100    8.1900 O.2       2 ALA2        0.0000 
     16 O         -50.0100   56.4900    8.4500 O.2       2 ALA2        0.0000 
     17 N         -55.2600   59.7400    8.1100 N.am      2 ALA2        0.0000 
     18 O         -49.2900   57.7000    8.9400 O.2       2 ALA2        0.0000 
     19 O         -49.2800   58.2600    7.5500 O.2       2 ALA2        0.0000 
     20 O         -50.6000   58.3800    9.2100 O.2       2 ALA2        0.0000 
     21 O         -50.5900   58.9400    7.8100 O.2       2 ALA2        0.0000 
     22 O         -50.5800   59.4900    6.4200 O.2       2 ALA2        0.0000 
     23 N         -53.2200   60.2900    8.3400 N.am      2 ALA2        0.0000 
     24 N         -54.5300   60.9600    8.6000 N.am      2 ALA2        0.0000 
     25 N         -45.9400   57.0100   10.3000 N.am      2 ALA2        0.0000 
     26 N         -47.2600   57.6900   10.5700 N.am      2 ALA2        0.0000 
     27 N         -47.2500   58.2500    9.1700 N.am      2 ALA2        0.0000 
     28 O         -47.2400   58.8000    7.7800 O.2       2 ALA2        0.0000 
     29 N         -48.5600   58.9200    9.4400 N.am      2 ALA2        0.0000 
     30 O         -48.5500   59.4800    8.0400 O.2       2 ALA2        0.0000 
     31 N         -49.8800   59.0400   11.0900 N.am      2 ALA2        0.0000 
     32 O         -49.8700   60.1500    8.3100 O.2       2 ALA2        0.0000 
     33 O         -51.1800   60.8300    8.5700 O.2       2 ALA2        0.0000 
     34 O         -51.1700   61.3900    7.1800 O.2       2 ALA2        0.0000 
     35 N         -52.5000   61.5000    8.8300 N.am      2 ALA2        0.0000 
     36 N         -52.4900   62.0600    7.4400 N.am      2 ALA2        0.0000 
     37 N         -46.5300   58.9100   11.0600 N.am      2 ALA2        0.0000 
     38 N         -47.8500   59.5800   11.3200 N.am      2 ALA2        0.0000 
     39 O         -47.8300   60.7000    8.5400 O.2       2 ALA2        0.0000 
     40 OD1       -55.2700   59.1800    9.5000 O.co2     3 ASP3        0.0000 
     41 OD1       -53.8100   62.1800    9.1000 O.co2     3 ASP3        0.0000 
     42 NZ        -53.2300   59.7300    9.7300 N.4       4 LYS4        0.0000 
     43 NZ        -54.5400   60.4000   10.0000 N.4       4 LYS4        0.0000 
     44 NZ        -51.1900   60.2700    9.9600 N.4       4 LYS4        0.0000 
     45 NZ        -52.5000   60.9400   10.2300 N.4       4 LYS4        0.0000 
     46 NZ        -45.2100   58.7900    9.4000 N.4       4 LYS4        0.0000 
     47 NZ        -46.5200   60.0200    8.2700 N.4       4 LYS4        0.0000 
     48 NZ        -50.4700   61.4900   10.4600 N.4       4 LYS4        0.0000 
     49 NZ        -44.4900   60.0100    9.9000 N.4       4 LYS4        0.0000 
     50 NZ        -45.8000   60.6800   10.1600 N.4       4 LYS4        0.0000 
     51 CZ        -54.9400   51.0700    6.2500 C.ar      5 PHE5        0.0000 
     52 CZ        -56.2700   51.1900    7.9100 C.ar      5 PHE5        0.0000 
     53 CZ        -54.2300   51.7300    8.1400 C.ar      5 PHE5        0.0000 
     54 CZ        -54.2100   52.8500    5.3500 C.ar      5 PHE5        0.0000 
     55 CZ        -54.2000   53.9600    2.5700 C.ar      5 PHE5        0.0000 
     56 CZ        -54.1900   54.5200    1.1800 C.ar      5 PHE5        0.0000 
     57 CZ        -55.5300   52.9600    7.0100 C.ar      5 PHE5        0.0000 
     58 CZ        -55.5300   53.5200    5.6100 C.ar      5 PHE5        0.0000 
     59 CZ        -50.8500   53.2700    3.9300 C.ar      5 PHE5        0.0000 
     60 CZ        -52.2000   51.7200    9.7600 C.ar      5 PHE5        0.0000 
     61 CZ        -52.1900   52.2700    8.3700 C.ar      5 PHE5        0.0000 
     62 CZ        -52.1700   53.9500    4.1900 C.ar      5 PHE5        0.0000 
     63 CZ        -52.1600   54.5100    2.8000 C.ar      5 PHE5        0.0000 
     64 CZ        -53.5000   53.5100    7.2400 C.ar      5 PHE5        0.0000 
     65 CZ        -53.4900   54.0600    5.8400 C.ar      5 PHE5        0.0000 
     66 CZ        -53.4800   54.6200    4.4500 C.ar      5 PHE5        0.0000 
     67 CZ        -53.4700   55.1800    3.0600 C.ar      5 PHE5        0.0000 
     68 CZ        -51.4700   53.4900    8.8600 C.ar      5 PHE5        0.0000 
     69 CZ        -51.4600   54.0500    7.4700 C.ar      5 PHE5        0.0000 
     70 CZ        -52.7600   55.2800    6.3400 C.ar      5 PHE5        0.0000 
     71 CZ        -52.7600   55.8400    4.9400 C.ar      5 PHE5        0.0000 
     72 CZ        -50.7300   55.8300    6.5700 C.ar      5 PHE5        0.0000 
     73 CZ        -52.0400   56.5000    6.8300 C.ar      5 PHE5        0.0000 
     74 CZ        -55.9900   57.9700    9.0100 C.ar      5 PHE5        0.0000 
     75 CZ        -51.3200   57.1600    8.7100 C.ar      5 PHE5        0.0000 
     76 CZ        -51.3200   57.7200    7.3200 C.ar      5 PHE5        0.0000 
     77 CZ        -53.9500   58.5100    9.2400 C.ar      5 PHE5        0.0000 
     78 CZ        -51.9100   59.0500    9.4700 C.ar      5 PHE5        0.0000 
     79 CA        -54.2400   51.1700    9.5300 C.3       6 GLY6        0.0000 
     80 CA        -50.8900   51.0400    9.5000 C.3       6 GLY6        0.0000 
     81 CA        -50.1300   54.4900    4.4200 C.3       6 GLY6        0.0000 
     82 CA        -51.4300   55.7200    3.2900 C.3       6 GLY6        0.0000 
     83 CA        -51.4300   56.2800    1.9000 C.3       6 GLY6        0.0000 
     84 CA        -52.7400   56.9600    2.1600 C.3       6 GLY6        0.0000 
     85 CA        -49.4100   55.1500    6.3000 C.3       6 GLY6        0.0000 
     86 CA        -50.7200   56.3800    5.1700 C.3       6 GLY6        0.0000 
     87 CA        -48.6800   56.9300    5.4000 C.3       6 GLY6        0.0000 
     88 CA        -50.0000   57.0400    7.0600 C.3       6 GLY6        0.0000 
     89 CA        -51.3100   58.2800    5.9300 C.3       6 GLY6        0.0000 
     90 CA        -47.9700   57.0300    8.6800 C.3       6 GLY6        0.0000 
     91 CA        -47.9600   57.5900    7.2900 C.3       6 GLY6        0.0000 
     92 CA        -51.9200   58.4900   10.8600 C.3       6 GLY6        0.0000 
     93 CA        -51.9100   59.6100    8.0800 C.3       6 GLY6        0.0000 
     94 CA        -45.9400   57.5700    8.9100 C.3       6 GLY6        0.0000 
     95 CA        -51.2000   59.7100   11.3500 C.3       6 GLY6        0.0000 
     96 CA        -49.1500   60.8100   10.1900 C.3       6 GLY6        0.0000 
     97 CA        -50.4600   62.0500    9.0600 C.3       6 GLY6        0.0000 
     98 CA        -51.7700   62.7200    9.3300 C.3       6 GLY6        0.0000 
     99 CA        -44.5000   59.4500   11.2900 C.3       6 GLY6        0.0000 
    100 CA        -45.8100   60.1200   11.5500 C.3       6 GLY6        0.0000 
    101 CA        -47.1200   60.8000   11.8100 C.3       6 GLY6        0.0000 
    102 CA        -47.1100   61.3600   10.4200 C.3       6 GLY6        0.0000 
    103 DU        -52.1500   55.0600    1.4100 H         7 CUB7        0.0000 
    104 DU        -53.4600   55.7400    1.6700 H         7 CUB7        0.0000 
    105 DU        -53.4600   56.3000    0.2800 H         7 CUB7        0.0000 
    106 DU        -51.4400   55.1700    4.6800 H         7 CUB7        0.0000 
    107 DU        -49.8800   59.6000    9.7000 H         7 CUB7        0.0000 
    108 DU        -45.2200   58.2300   10.8000 H         7 CUB7        0.0000 
    109 DU        -46.5200   59.4600    9.6700 H         7 CUB7        0.0000 
    110 DU        -47.8400   60.1400    9.9300 H         7 CUB7        0.0000 
@<TRIPOS>BOND
@<TRIPOS>SUBSTRUCTURE
     1 SER1        1 GROUP   
     2 ALA2        6 GROUP   
     3 ASP3       40 GROUP   
     4 LYS4       42 GROUP   
     5 PHE5       51 GROUP   
     6 GLY6       79 GROUP   
     7 CUB7      103 GROUP   
@<TRIPOS>SET

