#    Name: 5voo_6_C2F
#    Modification time : Fri May 22 19:14:16 2020

@<TRIPOS>MOLECULE
5voo_6_C2F
   56    58     1     0     0
SMALL
NO_CHARGES


@<TRIPOS>ATOM
      1 N1        -17.1810   28.9900   23.3550 N.2       1 C2F3001     0.0000 
      2 C2        -17.7780   29.4440   22.2290 C.2       1 C2F3001     0.0000 
      3 NA2       -17.1890   30.4460   21.5340 N.pl3     1 C2F3001     0.0000 
      4 N3        -18.9420   28.9280   21.7820 N.am      1 C2F3001     0.0000 
      5 C4        -19.6040   27.9420   22.4140 C.2       1 C2F3001     0.0000 
      6 O4        -20.6670   27.5210   21.9260 O.2       1 C2F3001     0.0000 
      7 C4A       -19.0010   27.3930   23.6510 C.2       1 C2F3001     0.0000 
      8 N5        -19.4710   26.4050   24.5350 N.3       1 C2F3001     0.0000 
      9 C6        -18.5350   25.4290   25.1010 C.3       1 C2F3001     0.0000 
     10 C7        -17.4910   26.2680   25.8660 C.3       1 C2F3001     0.0000 
     11 N8        -17.1320   27.5340   25.2170 N.pl3     1 C2F3001     0.0000 
     12 C8A       -17.7220   28.0080   24.0910 C.2       1 C2F3001     0.0000 
     13 C9        -17.8330   24.6220   24.0020 C.3       1 C2F3001     0.0000 
     14 N10       -17.0210   23.6090   24.6670 N.pl3     1 C2F3001     0.0000 
     15 C11       -20.8100   26.5110   25.0980 C.3       1 C2F3001     0.0000 
     16 C12       -18.3930   19.9110   25.9720 C.ar      1 C2F3001     0.0000 
     17 C13       -17.0690   20.2970   26.2000 C.ar      1 C2F3001     0.0000 
     18 C14       -16.6270   21.5470   25.7720 C.ar      1 C2F3001     0.0000 
     19 C15       -17.4930   22.4030   25.0870 C.ar      1 C2F3001     0.0000 
     20 C16       -18.8200   22.0000   24.8500 C.ar      1 C2F3001     0.0000 
     21 C17       -19.2710   20.7590   25.2860 C.ar      1 C2F3001     0.0000 
     22 C         -18.8830   18.5630   26.3960 C.2       1 C2F3001     0.0000 
     23 O         -19.6580   17.9960   25.6390 O.2       1 C2F3001     0.0000 
     24 N         -18.4490   17.9790   27.5030 N.am      1 C2F3001     0.0000 
     25 CA        -18.8550   16.6050   27.7540 C.3       1 C2F3001     0.0000 
     26 CB        -17.7340   15.7610   28.3730 C.3       1 C2F3001     0.0000 
     27 CG        -17.6690   15.9720   29.8880 C.3       1 C2F3001     0.0000 
     28 CD        -16.7120   15.0720   30.6340 C.2       1 C2F3001     0.0000 
     29 OE1       -15.8840   14.3540   30.0220 O.co2     1 C2F3001     0.0000 
     30 OE2       -16.7960   15.1150   31.8810 O.co2     1 C2F3001     0.0000 
     31 CT        -20.1380   16.5870   28.5420 C.2       1 C2F3001     0.0000 
     32 O1        -20.8120   15.5360   28.5470 O.co2     1 C2F3001     0.0000 
     33 O2        -20.4890   17.6150   29.1620 O.co2     1 C2F3001     0.0000 
     34 HN21      -16.4480   30.7830   21.8100 H         1 C2F3001     0.0000 
     35 HN22      -17.5560   30.7450   20.8160 H         1 C2F3001     0.0000 
     36 HN3       -19.2780   29.2450   21.0570 H         1 C2F3001     0.0000 
     37 H6        -18.9980   24.7910   25.6670 H         1 C2F3001     0.0000 
     38 H71       -16.6870   25.7370   25.9800 H         1 C2F3001     0.0000 
     39 H72       -17.8340   26.4590   26.7530 H         1 C2F3001     0.0000 
     40 HN8       -16.5070   28.0060   25.5730 H         1 C2F3001     0.0000 
     41 H91       -17.2790   25.1990   23.4530 H         1 C2F3001     0.0000 
     42 H92       -18.4830   24.2080   23.4130 H         1 C2F3001     0.0000 
     43 HN1       -16.1900   23.7850   24.8030 H         1 C2F3001     0.0000 
     44 H111      -20.9760   25.7550   25.6830 H         1 C2F3001     0.0000 
     45 H112      -21.4630   26.5140   24.3810 H         1 C2F3001     0.0000 
     46 H113      -20.8840   27.3340   25.6060 H         1 C2F3001     0.0000 
     47 H13       -16.4590   19.6960   26.6550 H         1 C2F3001     0.0000 
     48 H14       -15.7150   21.8240   25.9500 H         1 C2F3001     0.0000 
     49 H16       -19.4260   22.5930   24.3780 H         1 C2F3001     0.0000 
     50 H17       -20.1850   20.4830   25.1160 H         1 C2F3001     0.0000 
     51 HN        -17.9430   18.3990   28.0560 H         1 C2F3001     0.0000 
     52 HA        -19.0330   16.1740   26.9040 H         1 C2F3001     0.0000 
     53 HB1       -16.8840   16.0000   27.9720 H         1 C2F3001     0.0000 
     54 HB2       -17.8850   14.8230   28.1790 H         1 C2F3001     0.0000 
     55 HG1       -18.5580   15.8450   30.2540 H         1 C2F3001     0.0000 
     56 HG2       -17.4200   16.8940   30.0590 H         1 C2F3001     0.0000 
@<TRIPOS>BOND
     1    1    2 2    
     2    1   12 1    
     3    2    3 1    
     4    2    4 1    
     5    3   34 1    
     6    3   35 1    
     7    4    5 am   
     8    4   36 1    
     9    5    6 2    
    10    5    7 1    
    11    7    8 1    
    12    7   12 2    
    13    8    9 1    
    14    8   15 1    
    15    9   10 1    
    16    9   13 1    
    17    9   37 1    
    18   10   11 1    
    19   10   38 1    
    20   10   39 1    
    21   11   12 1    
    22   11   40 1    
    23   13   14 1    
    24   13   41 1    
    25   13   42 1    
    26   14   19 1    
    27   14   43 1    
    28   15   44 1    
    29   15   45 1    
    30   15   46 1    
    31   16   17 ar   
    32   16   21 ar   
    33   16   22 1    
    34   17   18 ar   
    35   17   47 1    
    36   18   19 ar   
    37   18   48 1    
    38   19   20 ar   
    39   20   21 ar   
    40   20   49 1    
    41   21   50 1    
    42   22   23 2    
    43   22   24 am   
    44   24   25 1    
    45   24   51 1    
    46   25   26 1    
    47   25   31 1    
    48   25   52 1    
    49   26   27 1    
    50   26   53 1    
    51   26   54 1    
    52   27   28 1    
    53   27   55 1    
    54   27   56 1    
    55   28   29 ar   
    56   28   30 ar   
    57   31   32 ar   
    58   31   33 ar   
@<TRIPOS>SUBSTRUCTURE
     1 C2F3001     1 GROUP   
@<TRIPOS>SET

