#    Name: 5voo_4_C2F
#    Modification time : Fri May 22 19:14:07 2020

@<TRIPOS>MOLECULE
5voo_4_C2F
   56    58     1     0     0
SMALL
NO_CHARGES


@<TRIPOS>ATOM
      1 N1        -75.5580   86.4400  -14.4300 N.2       1 C2F3001     0.0000 
      2 C2        -75.6360   87.1940  -15.5460 C.2       1 C2F3001     0.0000 
      3 NA2       -74.5540   87.2720  -16.3460 N.pl3     1 C2F3001     0.0000 
      4 N3        -76.7380   87.8720  -15.8860 N.am      1 C2F3001     0.0000 
      5 C4        -77.8410   87.8680  -15.1390 C.2       1 C2F3001     0.0000 
      6 O4        -78.8410   88.4880  -15.5060 O.2       1 C2F3001     0.0000 
      7 C4A       -77.8380   87.0490  -13.9200 C.2       1 C2F3001     0.0000 
      8 N5        -78.8430   86.9210  -12.9690 N.3       1 C2F3001     0.0000 
      9 C6        -79.0900   85.6300  -12.3180 C.3       1 C2F3001     0.0000 
     10 C7        -77.7370   85.2430  -11.6710 C.3       1 C2F3001     0.0000 
     11 N8        -76.5510   85.5820  -12.4600 N.pl3     1 C2F3001     0.0000 
     12 C8A       -76.5960   86.3320  -13.5900 C.2       1 C2F3001     0.0000 
     13 C9        -79.5250   84.5620  -13.3130 C.3       1 C2F3001     0.0000 
     14 N10       -79.8540   83.3650  -12.5390 N.pl3     1 C2F3001     0.0000 
     15 C11       -79.4430   88.1430  -12.4340 C.3       1 C2F3001     0.0000 
     16 C12       -83.5930   82.6060  -10.8630 C.ar      1 C2F3001     0.0000 
     17 C13       -82.5200   81.7360  -10.6430 C.ar      1 C2F3001     0.0000 
     18 C14       -81.2650   82.0000  -11.2030 C.ar      1 C2F3001     0.0000 
     19 C15       -81.0780   83.1330  -11.9950 C.ar      1 C2F3001     0.0000 
     20 C16       -82.1570   84.0000  -12.2150 C.ar      1 C2F3001     0.0000 
     21 C17       -83.4040   83.7450  -11.6560 C.ar      1 C2F3001     0.0000 
     22 C         -84.9600   82.3650  -10.2770 C.2       1 C2F3001     0.0000 
     23 O         -85.9020   82.9020  -10.8490 O.2       1 C2F3001     0.0000 
     24 N         -85.1300   81.6100   -9.1790 N.am      1 C2F3001     0.0000 
     25 CA        -86.4360   81.2850   -8.5910 C.3       1 C2F3001     0.0000 
     26 CB        -86.3040   80.3710   -7.3880 C.3       1 C2F3001     0.0000 
     27 CG        -86.3040   78.8840   -7.7070 C.3       1 C2F3001     0.0000 
     28 CD        -86.2720   78.1350   -6.3890 C.2       1 C2F3001     0.0000 
     29 OE1       -86.5110   76.9100   -6.3980 O.co2     1 C2F3001     0.0000 
     30 OE2       -86.0060   78.7480   -5.3260 O.co2     1 C2F3001     0.0000 
     31 CT        -87.1450   82.4890   -8.0540 C.2       1 C2F3001     0.0000 
     32 O1        -88.3690   82.6030   -8.2880 O.co2     1 C2F3001     0.0000 
     33 O2        -86.4930   83.3260   -7.3860 O.co2     1 C2F3001     0.0000 
     34 HN21      -73.8350   86.8470  -16.1400 H         1 C2F3001     0.0000 
     35 HN22      -74.5820   87.7470  -17.0620 H         1 C2F3001     0.0000 
     36 HN3       -76.7340   88.3280  -16.6150 H         1 C2F3001     0.0000 
     37 H6        -79.8100   85.6970  -11.6710 H         1 C2F3001     0.0000 
     38 H71       -77.7350   84.2870  -11.5050 H         1 C2F3001     0.0000 
     39 H72       -77.6700   85.6810  -10.8080 H         1 C2F3001     0.0000 
     40 HN8       -75.7870   85.2910  -12.1940 H         1 C2F3001     0.0000 
     41 H91       -78.8160   84.3760  -13.9480 H         1 C2F3001     0.0000 
     42 H92       -80.2930   84.8620  -13.8240 H         1 C2F3001     0.0000 
     43 HN1       -79.2390   82.7750  -12.4220 H         1 C2F3001     0.0000 
     44 H111      -80.1250   87.9110  -11.7850 H         1 C2F3001     0.0000 
     45 H112      -79.8440   88.6500  -13.1570 H         1 C2F3001     0.0000 
     46 H113      -78.7580   88.6790  -12.0050 H         1 C2F3001     0.0000 
     47 H13       -82.6470   80.9440  -10.0980 H         1 C2F3001     0.0000 
     48 H14       -80.5250   81.3950  -11.0400 H         1 C2F3001     0.0000 
     49 H16       -82.0320   84.7890  -12.7650 H         1 C2F3001     0.0000 
     50 H17       -84.1420   84.3550  -11.8150 H         1 C2F3001     0.0000 
     51 HN        -84.4270   81.2960   -8.7950 H         1 C2F3001     0.0000 
     52 HA        -86.9240   80.8740   -9.3210 H         1 C2F3001     0.0000 
     53 HB1       -87.0330   80.5570   -6.7760 H         1 C2F3001     0.0000 
     54 HB2       -85.4810   80.5880   -6.9230 H         1 C2F3001     0.0000 
     55 HG1       -85.5350   78.6520   -8.2500 H         1 C2F3001     0.0000 
     56 HG2       -87.0940   78.6440   -8.2160 H         1 C2F3001     0.0000 
@<TRIPOS>BOND
     1    1    2 2    
     2    1   12 1    
     3    2    3 1    
     4    2    4 1    
     5    3   34 1    
     6    3   35 1    
     7    4    5 am   
     8    4   36 1    
     9    5    6 2    
    10    5    7 1    
    11    7    8 1    
    12    7   12 2    
    13    8    9 1    
    14    8   15 1    
    15    9   10 1    
    16    9   13 1    
    17    9   37 1    
    18   10   11 1    
    19   10   38 1    
    20   10   39 1    
    21   11   12 1    
    22   11   40 1    
    23   13   14 1    
    24   13   41 1    
    25   13   42 1    
    26   14   19 1    
    27   14   43 1    
    28   15   44 1    
    29   15   45 1    
    30   15   46 1    
    31   16   17 ar   
    32   16   21 ar   
    33   16   22 1    
    34   17   18 ar   
    35   17   47 1    
    36   18   19 ar   
    37   18   48 1    
    38   19   20 ar   
    39   20   21 ar   
    40   20   49 1    
    41   21   50 1    
    42   22   23 2    
    43   22   24 am   
    44   24   25 1    
    45   24   51 1    
    46   25   26 1    
    47   25   31 1    
    48   25   52 1    
    49   26   27 1    
    50   26   53 1    
    51   26   54 1    
    52   27   28 1    
    53   27   55 1    
    54   27   56 1    
    55   28   29 ar   
    56   28   30 ar   
    57   31   32 ar   
    58   31   33 ar   
@<TRIPOS>SUBSTRUCTURE
     1 C2F3001     1 GROUP   
@<TRIPOS>SET

