#    Name: 5voo_4_C2F_CAVITY_N1_ALL
#    Modification time : Fri May 22 19:14:08 2020

@<TRIPOS>MOLECULE
5voo_4_C2F_CAVITY_N1_ALL
   96     0     6     0     0
SMALL
NO_CHARGES


@<TRIPOS>ATOM
      1 N         -83.4300   82.1800  -10.5300 N.am      1 ALA2        0.0000 
      2 N         -84.7500   82.3000   -8.8700 N.am      1 ALA2        0.0000 
      3 O         -82.6900   84.5200  -12.8200 O.2       1 ALA2        0.0000 
      4 N         -84.0300   83.5200   -8.3800 N.am      1 ALA2        0.0000 
      5 O         -84.0100   84.6300  -11.1600 O.2       1 ALA2        0.0000 
      6 O         -79.3500   83.8300  -11.4600 O.2       1 ALA2        0.0000 
      7 O         -80.6700   83.9400   -9.8000 O.2       1 ALA2        0.0000 
      8 N         -80.6500   85.0600  -12.5900 N.am      1 ALA2        0.0000 
      9 O         -77.3100   84.3700  -11.2300 O.2       1 ALA2        0.0000 
     10 O         -78.6200   85.0500  -10.9700 O.2       1 ALA2        0.0000 
     11 N         -78.6100   86.1600  -13.7500 N.am      1 ALA2        0.0000 
     12 N         -79.9300   86.2800  -12.1000 N.am      1 ALA2        0.0000 
     13 O         -75.2600   86.0300  -13.7900 O.2       1 ALA2        0.0000 
     14 O         -75.2500   86.5900  -15.1800 O.2       1 ALA2        0.0000 
     15 N         -77.8800   87.3800  -13.2600 N.am      1 ALA2        0.0000 
     16 N         -77.8700   87.9400  -14.6500 N.am      1 ALA2        0.0000 
     17 N         -79.2000   87.5000  -11.6000 N.am      1 ALA2        0.0000 
     18 N         -79.2000   88.0600  -13.0000 N.am      1 ALA2        0.0000 
     19 N         -79.1900   88.6100  -14.3900 N.am      1 ALA2        0.0000 
     20 O         -80.5200   88.1700  -11.3400 O.2       1 ALA2        0.0000 
     21 N         -78.4700   89.2700  -12.5000 N.am      1 ALA2        0.0000 
     22 N         -78.4600   89.8300  -13.9000 N.am      1 ALA2        0.0000 
     23 N         -79.7900   89.9500  -12.2400 N.am      1 ALA2        0.0000 
     24 N         -79.7800   90.5100  -13.6300 N.am      1 ALA2        0.0000 
     25 N         -79.7700   91.0600  -15.0300 N.am      1 ALA2        0.0000 
     26 O         -81.1000   90.6200  -11.9800 O.2       1 ALA2        0.0000 
     27 N         -81.0900   91.1800  -13.3700 N.am      1 ALA2        0.0000 
     28 O         -82.4100   91.3000  -11.7100 O.2       1 ALA2        0.0000 
     29 N         -80.3700   92.4000  -12.8800 N.am      1 ALA2        0.0000 
     30 N         -80.3600   92.9600  -14.2700 N.am      1 ALA2        0.0000 
     31 N         -81.6800   93.0700  -12.6100 N.am      1 ALA2        0.0000 
     32 N         -81.6700   93.6300  -14.0100 N.am      1 ALA2        0.0000 
     33 OD1       -84.7400   83.4200  -11.6600 O.co2     2 ASP3        0.0000 
     34 NZ        -82.1200   81.5100  -10.7900 N.4       3 LYS4        0.0000 
     35 NZ        -82.1100   82.0700  -12.1800 N.4       3 LYS4        0.0000 
     36 NZ        -83.4200   82.7400  -11.9200 N.4       3 LYS4        0.0000 
     37 NZ        -81.3800   83.8400  -13.0800 N.4       3 LYS4        0.0000 
     38 NZ        -77.3000   84.9300  -12.6200 N.4       3 LYS4        0.0000 
     39 NZ        -76.5900   85.5900  -10.7400 N.4       3 LYS4        0.0000 
     40 NZ        -76.5800   86.1500  -12.1300 N.4       3 LYS4        0.0000 
     41 NZ        -76.5600   87.2600  -14.9100 N.4       3 LYS4        0.0000 
     42 NZ        -77.8700   88.5000  -16.0400 N.4       3 LYS4        0.0000 
     43 NZ        -75.8400   88.4800  -14.4200 N.4       3 LYS4        0.0000 
     44 NZ        -77.1400   89.7100  -15.5500 N.4       3 LYS4        0.0000 
     45 NZ        -78.4600   90.3900  -15.2900 N.4       3 LYS4        0.0000 
     46 CZ        -85.3400   84.1900   -8.1200 C.ar      4 PHE5        0.0000 
     47 CZ        -79.6400   93.6200  -12.3800 C.ar      4 PHE5        0.0000 
     48 CZ        -79.6400   94.1700  -13.7800 C.ar      4 PHE5        0.0000 
     49 CZ        -80.9600   94.2900  -12.1200 C.ar      4 PHE5        0.0000 
     50 CA        -80.0700   82.6100  -11.9500 C.3       5 GLY6        0.0000 
     51 CA        -80.0600   83.1700  -13.3400 C.3       5 GLY6        0.0000 
     52 CA        -81.3900   82.7300  -10.3000 C.3       5 GLY6        0.0000 
     53 CA        -82.7100   83.4000  -10.0300 C.3       5 GLY6        0.0000 
     54 CA        -78.0300   83.7100  -13.1200 C.3       5 GLY6        0.0000 
     55 CA        -78.0200   84.2700  -14.5100 C.3       5 GLY6        0.0000 
     56 CA        -79.3300   84.9400  -14.2400 C.3       5 GLY6        0.0000 
     57 CA        -81.9900   84.0600   -8.1500 C.3       5 GLY6        0.0000 
     58 CA        -83.3000   84.7400   -7.8900 C.3       5 GLY6        0.0000 
     59 CA        -75.9800   84.8100  -14.2800 C.3       5 GLY6        0.0000 
     60 CA        -77.2900   85.4900  -14.0100 C.3       5 GLY6        0.0000 
     61 CA        -77.2900   86.0500  -15.4100 C.3       5 GLY6        0.0000 
     62 CA        -78.6000   86.7200  -15.1400 C.3       5 GLY6        0.0000 
     63 CA        -75.1100   89.7000  -13.9300 C.3       5 GLY6        0.0000 
     64 CA        -76.4300   90.3700  -13.6700 C.3       5 GLY6        0.0000 
     65 CA        -76.4200   90.9300  -15.0600 C.3       5 GLY6        0.0000 
     66 CA        -77.7300   91.6100  -14.8000 C.3       5 GLY6        0.0000 
     67 CA        -79.0500   92.2800  -14.5300 C.3       5 GLY6        0.0000 
     68 CA        -79.0400   92.8400  -15.9200 C.3       5 GLY6        0.0000 
     69 CA        -75.7000   91.5900  -13.1700 C.3       5 GLY6        0.0000 
     70 CA        -75.6900   92.1500  -14.5700 C.3       5 GLY6        0.0000 
     71 CA        -77.0100   92.8300  -14.3000 C.3       5 GLY6        0.0000 
     72 CA        -78.3200   93.5000  -14.0400 C.3       5 GLY6        0.0000 
     73 CA        -76.2900   93.4800  -12.4200 C.3       5 GLY6        0.0000 
     74 CA        -77.6100   94.1600  -12.1600 C.3       5 GLY6        0.0000 
     75 CA        -77.6000   94.7200  -13.5500 C.3       5 GLY6        0.0000 
     76 CA        -78.9200   94.8300  -11.8900 C.3       5 GLY6        0.0000 
     77 DU        -84.7400   82.8600  -10.2600 H         6 CUB7        0.0000 
     78 DU        -81.3800   83.2800  -11.6900 H         6 CUB7        0.0000 
     79 DU        -82.7000   83.9600  -11.4300 H         6 CUB7        0.0000 
     80 DU        -84.0200   84.0800   -9.7700 H         6 CUB7        0.0000 
     81 DU        -79.3400   84.3900  -12.8500 H         6 CUB7        0.0000 
     82 DU        -80.6600   84.5000  -11.2000 H         6 CUB7        0.0000 
     83 DU        -78.6200   85.6000  -12.3600 H         6 CUB7        0.0000 
     84 DU        -76.5700   86.7100  -13.5200 H         6 CUB7        0.0000 
     85 DU        -77.9000   86.2600  -10.4700 H         6 CUB7        0.0000 
     86 DU        -77.8900   86.8200  -11.8700 H         6 CUB7        0.0000 
     87 DU        -75.8500   87.9200  -13.0300 H         6 CUB7        0.0000 
     88 DU        -77.1600   88.6000  -12.7700 H         6 CUB7        0.0000 
     89 DU        -77.1500   89.1600  -14.1600 H         6 CUB7        0.0000 
     90 DU        -77.7400   91.0500  -13.4000 H         6 CUB7        0.0000 
     91 DU        -79.0600   91.1700  -11.7500 H         6 CUB7        0.0000 
     92 DU        -79.0500   91.7200  -13.1400 H         6 CUB7        0.0000 
     93 DU        -80.3800   91.8400  -11.4900 H         6 CUB7        0.0000 
     94 DU        -77.0200   92.2700  -12.9100 H         6 CUB7        0.0000 
     95 DU        -78.3400   92.3800  -11.2600 H         6 CUB7        0.0000 
     96 DU        -78.3300   92.9400  -12.6500 H         6 CUB7        0.0000 
@<TRIPOS>BOND
@<TRIPOS>SUBSTRUCTURE
     1 ALA2        1 GROUP   
     2 ASP3       33 GROUP   
     3 LYS4       34 GROUP   
     4 PHE5       46 GROUP   
     5 GLY6       50 GROUP   
     6 CUB7       77 GROUP   
@<TRIPOS>SET

