#    Name: 5voo_6_C2F_CAVITY_N1_6
#    Modification time : Fri May 22 19:14:18 2020

@<TRIPOS>MOLECULE
5voo_6_C2F_CAVITY_N1_6
   83     0     6     0     0
SMALL
NO_CHARGES


@<TRIPOS>ATOM
      1 N         -18.4700   17.3500   26.8800 N.am      1 ALA2        0.0000 
      2 N         -17.7400   18.5600   27.3700 N.am      1 ALA2        0.0000 
      3 N         -19.0600   19.2400   27.6300 N.am      1 ALA2        0.0000 
      4 N         -20.3500   21.0300   25.1100 N.am      1 ALA2        0.0000 
      5 N         -17.0100   20.3400   26.4700 N.am      1 ALA2        0.0000 
      6 N         -19.6300   22.2500   25.6000 N.am      1 ALA2        0.0000 
      7 O         -19.6200   22.8100   24.2100 O.2       1 ALA2        0.0000 
      8 N         -20.9500   22.3600   27.2600 N.am      1 ALA2        0.0000 
      9 O         -17.5900   22.7900   25.8300 O.2       1 ALA2        0.0000 
     10 N         -18.9000   23.4600   26.1000 N.am      1 ALA2        0.0000 
     11 O         -18.9000   24.0200   24.7000 O.2       1 ALA2        0.0000 
     12 O         -18.8900   24.5800   23.3100 O.2       1 ALA2        0.0000 
     13 N         -20.2300   23.5800   27.7500 N.am      1 ALA2        0.0000 
     14 N         -20.2200   24.1400   26.3600 N.am      1 ALA2        0.0000 
     15 N         -20.2100   24.7000   24.9700 N.am      1 ALA2        0.0000 
     16 O         -15.5500   23.3300   26.0600 O.2       1 ALA2        0.0000 
     17 O         -16.8700   24.0100   26.3300 O.2       1 ALA2        0.0000 
     18 O         -16.8600   24.5700   24.9300 O.2       1 ALA2        0.0000 
     19 O         -18.1900   24.1200   27.9800 O.2       1 ALA2        0.0000 
     20 O         -18.1800   24.6800   26.5900 O.2       1 ALA2        0.0000 
     21 O         -18.1600   25.8000   23.8000 O.2       1 ALA2        0.0000 
     22 O         -19.4900   25.9200   25.4600 O.2       1 ALA2        0.0000 
     23 O         -19.4800   26.4700   24.0700 O.2       1 ALA2        0.0000 
     24 O         -19.4700   27.0300   22.6800 O.2       1 ALA2        0.0000 
     25 N         -20.8000   26.5900   25.7200 N.am      1 ALA2        0.0000 
     26 O         -20.7900   27.1500   24.3300 O.2       1 ALA2        0.0000 
     27 O         -20.7800   27.7100   22.9400 O.2       1 ALA2        0.0000 
     28 O         -16.7100   28.7900   23.4000 O.2       1 ALA2        0.0000 
     29 N         -18.0200   29.4700   23.6600 N.am      1 ALA2        0.0000 
     30 OD1       -19.7700   18.5800   25.7500 O.co2     2 ASP3        0.0000 
     31 NZ        -18.4600   17.9000   25.4900 N.4       3 LYS4        0.0000 
     32 NZ        -17.7300   19.1200   25.9800 N.4       3 LYS4        0.0000 
     33 NZ        -17.0000   20.9000   25.0800 N.4       3 LYS4        0.0000 
     34 NZ        -18.3200   21.5700   25.3400 N.4       3 LYS4        0.0000 
     35 NZ        -18.3100   22.1300   23.9500 N.4       3 LYS4        0.0000 
     36 NZ        -16.1400   25.7800   25.4300 N.4       3 LYS4        0.0000 
     37 NZ        -16.1300   26.3400   24.0300 N.4       3 LYS4        0.0000 
     38 NZ        -17.4500   26.4600   25.6900 N.4       3 LYS4        0.0000 
     39 NZ        -17.4400   27.0200   24.3000 N.4       3 LYS4        0.0000 
     40 NZ        -18.7400   28.8100   21.7800 N.4       3 LYS4        0.0000 
     41 NZ        -20.0600   28.9200   23.4300 N.4       3 LYS4        0.0000 
     42 NZ        -20.0500   29.4800   22.0400 N.4       3 LYS4        0.0000 
     43 NZ        -16.7200   28.2300   24.7900 N.4       3 LYS4        0.0000 
     44 NZ        -18.0400   28.3500   26.4500 N.4       3 LYS4        0.0000 
     45 NZ        -18.0300   28.9100   25.0500 N.4       3 LYS4        0.0000 
     46 NZ        -18.0100   30.0300   22.2700 N.4       3 LYS4        0.0000 
     47 NZ        -19.3300   30.7000   22.5300 N.4       3 LYS4        0.0000 
     48 NZ        -18.6300   30.2400   27.2000 N.4       3 LYS4        0.0000 
     49 CZ        -19.7800   18.0200   27.1400 C.ar      4 PHE5        0.0000 
     50 CZ        -21.0900   19.2500   26.0100 C.ar      4 PHE5        0.0000 
     51 CZ        -20.3700   19.9100   27.9000 C.ar      4 PHE5        0.0000 
     52 CZ        -20.3600   20.4700   26.5000 C.ar      4 PHE5        0.0000 
     53 CZ        -20.9600   21.8000   28.6500 C.ar      4 PHE5        0.0000 
     54 CA        -19.0400   20.3500   24.8500 C.3       5 GLY6        0.0000 
     55 CA        -15.7000   19.6600   26.2100 C.3       5 GLY6        0.0000 
     56 CA        -18.3300   20.4600   28.1300 C.3       5 GLY6        0.0000 
     57 CA        -18.3200   21.0100   26.7300 C.3       5 GLY6        0.0000 
     58 CA        -19.6500   21.1300   28.3900 C.3       5 GLY6        0.0000 
     59 CA        -16.2900   21.5600   26.9600 C.3       5 GLY6        0.0000 
     60 CA        -16.2800   22.1200   25.5700 C.3       5 GLY6        0.0000 
     61 CA        -16.2700   22.6700   24.1800 C.3       5 GLY6        0.0000 
     62 CA        -17.6000   22.2300   27.2300 C.3       5 GLY6        0.0000 
     63 CA        -18.9100   22.9100   27.4900 C.3       5 GLY6        0.0000 
     64 CA        -15.5500   23.8900   24.6700 C.3       5 GLY6        0.0000 
     65 CA        -16.8500   25.1200   23.5400 C.3       5 GLY6        0.0000 
     66 CA        -18.1600   26.3600   22.4100 C.3       5 GLY6        0.0000 
     67 CA        -17.4300   27.5800   22.9100 C.3       5 GLY6        0.0000 
     68 CA        -19.3400   30.1400   23.9200 C.3       5 GLY6        0.0000 
     69 CA        -20.6500   30.8200   24.1900 C.3       5 GLY6        0.0000 
     70 DU        -19.0500   19.8000   26.2400 H         6 CUB7        0.0000 
     71 DU        -19.6400   21.6900   27.0000 H         6 CUB7        0.0000 
     72 DU        -17.5800   23.3500   24.4400 H         6 CUB7        0.0000 
     73 DU        -18.1700   25.2400   25.2000 H         6 CUB7        0.0000 
     74 DU        -19.4900   25.3600   26.8500 H         6 CUB7        0.0000 
     75 DU        -22.1100   27.8200   24.5900 H         6 CUB7        0.0000 
     76 DU        -18.7600   27.1300   25.9500 H         6 CUB7        0.0000 
     77 DU        -18.7500   27.6900   24.5600 H         6 CUB7        0.0000 
     78 DU        -18.7500   28.2500   23.1700 H         6 CUB7        0.0000 
     79 DU        -20.0700   28.3700   24.8200 H         6 CUB7        0.0000 
     80 DU        -21.3700   29.6000   23.6900 H         6 CUB7        0.0000 
     81 DU        -19.3500   29.0300   26.7100 H         6 CUB7        0.0000 
     82 DU        -19.3400   29.5800   25.3200 H         6 CUB7        0.0000 
     83 DU        -20.6600   30.2600   25.5800 H         6 CUB7        0.0000 
@<TRIPOS>BOND
@<TRIPOS>SUBSTRUCTURE
     1 ALA2        1 GROUP   
     2 ASP3       30 GROUP   
     3 LYS4       31 GROUP   
     4 PHE5       49 GROUP   
     5 GLY6       54 GROUP   
     6 CUB7       70 GROUP   
@<TRIPOS>SET

