#    Name: 5voo_1_C2F_CAVITY_N1_6
#    Modification time : Fri May 22 19:13:53 2020

@<TRIPOS>MOLECULE
5voo_1_C2F_CAVITY_N1_6
   69     0     6     0     0
SMALL
NO_CHARGES


@<TRIPOS>ATOM
      1 N         -53.8300   49.2000   -9.0400 N.am      1 ALA2        0.0000 
      2 N         -55.1300   50.4300  -10.1700 N.am      1 ALA2        0.0000 
      3 N         -56.4500   50.5500   -8.5100 N.am      1 ALA2        0.0000 
      4 N         -57.7800   50.6700   -6.8600 N.am      1 ALA2        0.0000 
      5 O         -50.4700   49.6300  -10.4600 O.2       1 ALA2        0.0000 
      6 O         -51.7900   49.7400   -8.8100 O.2       1 ALA2        0.0000 
      7 N         -55.7300   51.7700   -8.0200 N.am      1 ALA2        0.0000 
      8 O         -48.4300   50.1700  -10.2300 O.2       1 ALA2        0.0000 
      9 N         -48.4200   50.7300  -11.6300 N.am      1 ALA2        0.0000 
     10 N         -48.4100   51.2900  -13.0200 N.am      1 ALA2        0.0000 
     11 O         -49.7400   50.8400   -9.9700 O.2       1 ALA2        0.0000 
     12 N         -49.7400   51.4000  -11.3600 N.am      1 ALA2        0.0000 
     13 O         -51.0600   50.9600   -8.3200 O.2       1 ALA2        0.0000 
     14 O         -51.0500   52.0800  -11.1000 O.2       1 ALA2        0.0000 
     15 O         -45.0700   50.6000  -11.6600 O.2       1 ALA2        0.0000 
     16 N         -47.7000   51.9500  -11.1300 N.am      1 ALA2        0.0000 
     17 N         -49.0100   52.6200  -10.8700 N.am      1 ALA2        0.0000 
     18 O         -50.3300   52.7400   -9.2100 O.2       1 ALA2        0.0000 
     19 N         -45.6500   53.0500  -12.3000 N.am      1 ALA2        0.0000 
     20 N         -46.9700   53.7200  -12.0300 N.am      1 ALA2        0.0000 
     21 O         -48.2900   53.8400  -10.3800 O.2       1 ALA2        0.0000 
     22 N         -46.2400   54.9400  -11.5400 N.am      1 ALA2        0.0000 
     23 N         -48.8800   55.7300   -9.6200 N.am      1 ALA2        0.0000 
     24 O         -48.8700   56.2900  -11.0100 O.2       1 ALA2        0.0000 
     25 O         -43.4900   56.1400   -9.4300 O.2       1 ALA2        0.0000 
     26 OD1       -56.4500   51.1100   -9.9000 O.co2     2 ASP3        0.0000 
     27 OD1       -57.7600   51.7800   -9.6400 O.co2     2 ASP3        0.0000 
     28 NZ        -53.8200   49.7600  -10.4300 N.4       3 LYS4        0.0000 
     29 NZ        -53.8100   50.3200  -11.8200 N.4       3 LYS4        0.0000 
     30 NZ        -50.4600   50.1900  -11.8600 N.4       3 LYS4        0.0000 
     31 NZ        -51.7700   50.8600  -11.5900 N.4       3 LYS4        0.0000 
     32 NZ        -47.1200   49.5000  -10.5000 N.4       3 LYS4        0.0000 
     33 NZ        -45.0600   51.1600  -13.0500 N.4       3 LYS4        0.0000 
     34 NZ        -46.3900   50.7100  -10.0000 N.4       3 LYS4        0.0000 
     35 CZ        -54.4100   51.6500   -9.6700 C.ar      4 PHE5        0.0000 
     36 CZ        -54.4000   52.2100  -11.0700 C.ar      4 PHE5        0.0000 
     37 CZ        -55.7200   52.3300   -9.4100 C.ar      4 PHE5        0.0000 
     38 CZ        -55.0100   52.9900   -7.5300 C.ar      4 PHE5        0.0000 
     39 CA        -52.5000   49.0800  -10.6900 C.3       5 GLY6        0.0000 
     40 CA        -47.8300   48.8400  -12.3800 C.3       5 GLY6        0.0000 
     41 CA        -49.1500   49.5100  -12.1200 C.3       5 GLY6        0.0000 
     42 CA        -53.1000   50.4200   -8.5400 C.3       5 GLY6        0.0000 
     43 CA        -53.0900   51.5300  -11.3300 C.3       5 GLY6        0.0000 
     44 CA        -54.4200   51.0900   -8.2800 C.3       5 GLY6        0.0000 
     45 CA        -55.7400   51.2100   -6.6300 C.3       5 GLY6        0.0000 
     46 CA        -45.7900   49.3800  -12.1500 C.3       5 GLY6        0.0000 
     47 CA        -47.1100   50.0500  -11.8900 C.3       5 GLY6        0.0000 
     48 CA        -47.1000   50.6100  -13.2800 C.3       5 GLY6        0.0000 
     49 CA        -46.9800   52.6100   -9.2500 C.3       5 GLY6        0.0000 
     50 CA        -46.9700   53.1600  -10.6400 C.3       5 GLY6        0.0000 
     51 CA        -48.3000   53.2800   -8.9900 C.3       5 GLY6        0.0000 
     52 CA        -49.6100   53.9600   -8.7200 C.3       5 GLY6        0.0000 
     53 CA        -46.2500   54.3800  -10.1500 C.3       5 GLY6        0.0000 
     54 CA        -47.5600   55.0600   -9.8800 C.3       5 GLY6        0.0000 
     55 CA        -47.5500   55.6200  -11.2800 C.3       5 GLY6        0.0000 
     56 CA        -44.2300   53.8100   -7.1300 C.3       5 GLY6        0.0000 
     57 CA        -44.2200   54.3700   -8.5300 C.3       5 GLY6        0.0000 
     58 CA        -45.5300   55.6000   -9.6500 C.3       5 GLY6        0.0000 
     59 CA        -45.5200   56.1600  -11.0500 C.3       5 GLY6        0.0000 
     60 CA        -42.1700   55.4700   -9.6900 C.3       5 GLY6        0.0000 
     61 CA        -43.5000   55.5800   -8.0300 C.3       5 GLY6        0.0000 
     62 DU        -51.7800   50.3000  -10.2000 H         6 CUB7        0.0000 
     63 DU        -53.0900   50.9800   -9.9400 H         6 CUB7        0.0000 
     64 DU        -51.0600   51.5200   -9.7100 H         6 CUB7        0.0000 
     65 DU        -46.3800   51.2700  -11.4000 H         6 CUB7        0.0000 
     66 DU        -47.7100   51.3900   -9.7400 H         6 CUB7        0.0000 
     67 DU        -49.0200   52.0600   -9.4800 H         6 CUB7        0.0000 
     68 DU        -45.6600   52.4900  -10.9000 H         6 CUB7        0.0000 
     69 DU        -44.2000   55.4800  -11.3100 H         6 CUB7        0.0000 
@<TRIPOS>BOND
@<TRIPOS>SUBSTRUCTURE
     1 ALA2        1 GROUP   
     2 ASP3       26 GROUP   
     3 LYS4       28 GROUP   
     4 PHE5       35 GROUP   
     5 GLY6       39 GROUP   
     6 CUB7       62 GROUP   
@<TRIPOS>SET

