#    Name: 6f88_1_STR
#    Modification time : Fri May 22 19:31:52 2020

@<TRIPOS>MOLECULE
6f88_1_STR
   23    26     1     0     0
SMALL
NO_CHARGES


@<TRIPOS>ATOM
      1 C1         56.1770 -116.4840  161.1130 C.3       1 STR502      0.0000 
      2 C2         57.3190 -117.0030  160.3080 C.3       1 STR502      0.0000 
      3 C3         56.9090 -117.8320  159.1790 C.2       1 STR502      0.0000 
      4 O3         57.6060 -118.5600  158.5990 O.2       1 STR502      0.0000 
      5 C4         55.5170 -117.6540  158.6860 C.2       1 STR502      0.0000 
      6 C5         54.6660 -116.4160  159.2010 C.2       1 STR502      0.0000 
      7 C6         53.4940 -116.1200  158.5300 C.3       1 STR502      0.0000 
      8 C7         52.2480 -115.6290  159.4990 C.3       1 STR502      0.0000 
      9 C8         52.5950 -114.8890  160.4210 C.3       1 STR502      0.0000 
     10 C9         53.8260 -115.3080  161.2200 C.3       1 STR502      0.0000 
     11 C10        55.0410 -115.7140  160.2490 C.3       1 STR502      0.0000 
     12 C11        54.1860 -114.2830  162.3830 C.3       1 STR502      0.0000 
     13 C12        53.2650 -113.8500  163.1120 C.3       1 STR502      0.0000 
     14 C13        52.1340 -113.4210  162.5750 C.3       1 STR502      0.0000 
     15 C14        51.5550 -114.4340  161.4350 C.3       1 STR502      0.0000 
     16 C15        50.1540 -113.6830  160.8940 C.3       1 STR502      0.0000 
     17 C16        49.6500 -112.9280  162.1060 C.3       1 STR502      0.0000 
     18 C17        50.6780 -113.0820  163.3730 C.3       1 STR502      0.0000 
     19 C18        52.4420 -112.1580  161.8050 C.3       1 STR502      0.0000 
     20 C19        55.7430 -114.5090  159.6990 C.3       1 STR502      0.0000 
     21 C20        50.7960 -112.0340  164.2600 C.2       1 STR502      0.0000 
     22 O20        51.3940 -112.0650  165.2840 O.2       1 STR502      0.0000 
     23 C21        50.0730 -110.7620  163.8700 C.3       1 STR502      0.0000 
@<TRIPOS>BOND
     1    1    2 1    
     2    1   11 1    
     3    2    3 1    
     4    3    4 2    
     5    3    5 1    
     6    5    6 2    
     7    6    7 1    
     8    6   11 1    
     9    7    8 1    
    10    8    9 1    
    11    9   10 1    
    12    9   15 1    
    13   10   11 1    
    14   10   12 1    
    15   11   20 1    
    16   12   13 1    
    17   13   14 1    
    18   14   15 1    
    19   14   18 1    
    20   14   19 1    
    21   15   16 1    
    22   16   17 1    
    23   17   18 1    
    24   18   21 1    
    25   21   22 2    
    26   21   23 1    
@<TRIPOS>SUBSTRUCTURE
     1 STR502      1 GROUP   
@<TRIPOS>SET

