#    Name: 6f88_2_STR
#    Modification time : Fri May 22 19:31:57 2020

@<TRIPOS>MOLECULE
6f88_2_STR
   23    26     1     0     0
SMALL
NO_CHARGES


@<TRIPOS>ATOM
      1 C1         40.9180  -86.0970  137.4120 C.3       1 STR502      0.0000 
      2 C2         39.8830  -85.0620  137.7070 C.3       1 STR502      0.0000 
      3 C3         38.5940  -85.3270  137.0820 C.2       1 STR502      0.0000 
      4 O3         37.7290  -84.5580  136.8780 O.2       1 STR502      0.0000 
      5 C4         38.3570  -86.7400  136.7270 C.2       1 STR502      0.0000 
      6 C5         39.2630  -87.8720  137.3620 C.2       1 STR502      0.0000 
      7 C6         38.7930  -89.1570  137.3950 C.3       1 STR502      0.0000 
      8 C7         39.9690  -90.2690  137.0030 C.3       1 STR502      0.0000 
      9 C8         41.0670  -90.0410  137.4870 C.3       1 STR502      0.0000 
     10 C9         41.5870  -88.6310  137.3710 C.3       1 STR502      0.0000 
     11 C10        40.4620  -87.6010  137.8320 C.3       1 STR502      0.0000 
     12 C11        42.9870  -88.4550  138.0470 C.3       1 STR502      0.0000 
     13 C12        43.8890  -89.3210  137.8840 C.3       1 STR502      0.0000 
     14 C13        43.6180  -90.6120  137.9560 C.3       1 STR502      0.0000 
     15 C14        42.2370  -90.9730  137.1430 C.3       1 STR502      0.0000 
     16 C15        42.0750  -92.6320  137.3350 C.3       1 STR502      0.0000 
     17 C16        43.4910  -93.1540  137.4580 C.3       1 STR502      0.0000 
     18 C17        44.5390  -91.9220  137.3600 C.3       1 STR502      0.0000 
     19 C18        43.3200  -90.9510  139.4180 C.3       1 STR502      0.0000 
     20 C19        40.3410  -87.5910  139.3480 C.3       1 STR502      0.0000 
     21 C20        45.6870  -92.0740  138.0620 C.2       1 STR502      0.0000 
     22 O20        46.6480  -91.3730  137.9790 O.2       1 STR502      0.0000 
     23 C21        45.7370  -93.2300  139.0500 C.3       1 STR502      0.0000 
@<TRIPOS>BOND
     1   21   23 1    
     2    1    2 1    
     3    1   11 1    
     4    2    3 1    
     5    3    4 2    
     6    3    5 1    
     7    5    6 2    
     8    6    7 1    
     9    6   11 1    
    10    7    8 1    
    11    8    9 1    
    12    9   10 1    
    13    9   15 1    
    14   10   11 1    
    15   10   12 1    
    16   11   20 1    
    17   12   13 1    
    18   13   14 1    
    19   14   15 1    
    20   14   18 1    
    21   14   19 1    
    22   15   16 1    
    23   16   17 1    
    24   17   18 1    
    25   18   21 1    
    26   21   22 2    
@<TRIPOS>SUBSTRUCTURE
     1 STR502      1 GROUP   
@<TRIPOS>SET

