#    Name: 6d6t_6_Y01
#    Modification time : Fri May 22 19:23:44 2020

@<TRIPOS>MOLECULE
6d6t_6_Y01
   21    24     1     0     0
SMALL
NO_CHARGES


@<TRIPOS>ATOM
      1 CBB       149.0360  100.5410  145.6580 C.3       1 Y01409      0.0000 
      2 CBE       150.2010  100.1590  146.5740 C.3       1 Y01409      0.0000 
      3 CAP       150.0420  100.8400  147.9560 C.3       1 Y01409      0.0000 
      4 CAQ       150.0540   99.7000  149.0110 C.3       1 Y01409      0.0000 
      5 CBG       150.7880   98.5660  148.2860 C.3       1 Y01409      0.0000 
      6 CBI       150.1810   98.6620  146.8610 C.3       1 Y01409      0.0000 
      7 CAE       148.7370   98.1550  146.8760 C.3       1 Y01409      0.0000 
      8 CAU       151.0280   97.7890  145.9540 C.3       1 Y01409      0.0000 
      9 CAS       150.8520   96.3400  146.4320 C.3       1 Y01409      0.0000 
     10 CBF       151.2490   96.1760  147.8950 C.3       1 Y01409      0.0000 
     11 CBD       150.5110   97.1670  148.8040 C.3       1 Y01409      0.0000 
     12 CAK       151.0790   97.0270  150.2220 C.3       1 Y01409      0.0000 
     13 CAI       150.9610   95.5970  150.6640 C.2       1 Y01409      0.0000 
     14 CAZ       150.9300   94.5970  149.8340 C.2       1 Y01409      0.0000 
     15 CAV       150.8060   93.1930  150.4010 C.3       1 Y01409      0.0000 
     16 CBH       150.9820   94.7490  148.3420 C.3       1 Y01409      0.0000 
     17 CAD       149.6310   94.3140  147.7700 C.3       1 Y01409      0.0000 
     18 CAT       152.0480   93.8100  147.7700 C.3       1 Y01409      0.0000 
     19 CAR       151.7780   92.3820  148.2480 Du        1 Y01409      0.0000 
     20 CBC       151.8940   92.3190  149.7720 Du        1 Y01409      0.0000 
     21 OAW       151.7270   90.9460  150.2130 Du        1 Y01409      0.0000 
@<TRIPOS>BOND
     1    1    2 1    
     2    2    3 1    
     3    2    6 1    
     4    3    4 1    
     5    4    5 1    
     6    5    6 1    
     7    5   11 1    
     8    6    7 1    
     9    6    8 1    
    10    8    9 1    
    11    9   10 1    
    12   10   11 1    
    13   10   16 1    
    14   11   12 1    
    15   12   13 1    
    16   13   14 2    
    17   14   15 1    
    18   14   16 1    
    19   15   20 du   
    20   16   17 1    
    21   16   18 1    
    22   18   19 du   
    23   19   20 du   
    24   20   21 du   
@<TRIPOS>SUBSTRUCTURE
     1 Y01409      1 GROUP   
@<TRIPOS>SET

