#    Name: 6d6t_3_Y01_CAVITY_N1_4
#    Modification time : Fri May 22 19:23:39 2020

@<TRIPOS>MOLECULE
6d6t_3_Y01_CAVITY_N1_4
   30     0     3     0     0
SMALL
NO_CHARGES


@<TRIPOS>ATOM
      1 O         167.0500  120.5100  162.1100 O.2       1 ALA2        0.0000 
      2 CA        164.3200  124.7100  158.1800 C.3       2 GLY6        0.0000 
      3 CA        165.7700  122.2600  159.1500 C.3       2 GLY6        0.0000 
      4 CA        164.7600  122.1000  160.2500 C.3       2 GLY6        0.0000 
      5 CA        166.4900  121.0400  159.6300 C.3       2 GLY6        0.0000 
      6 CA        165.4800  120.8800  160.7300 C.3       2 GLY6        0.0000 
      7 CA        164.4500  126.7800  158.5900 C.3       2 GLY6        0.0000 
      8 CA        166.1800  125.7100  157.9700 C.3       2 GLY6        0.0000 
      9 CA        165.1700  125.5600  159.0800 C.3       2 GLY6        0.0000 
     10 CA        165.8900  124.3400  159.5600 C.3       2 GLY6        0.0000 
     11 CA        166.6100  123.1100  160.0400 C.3       2 GLY6        0.0000 
     12 CA        167.3300  121.8900  160.5300 C.3       2 GLY6        0.0000 
     13 CA        165.3200  121.5800  162.7300 C.3       2 GLY6        0.0000 
     14 CA        168.0500  120.6700  161.0100 C.3       2 GLY6        0.0000 
     15 CA        164.5800  128.8600  159.0000 C.3       2 GLY6        0.0000 
     16 CA        165.3000  127.6400  159.4900 C.3       2 GLY6        0.0000 
     17 CA        164.7300  124.8800  162.6600 C.3       2 GLY6        0.0000 
     18 CA        165.4500  123.6500  163.1400 C.3       2 GLY6        0.0000 
     19 CA        166.1700  122.4300  163.6300 C.3       2 GLY6        0.0000 
     20 CA        166.3000  124.5100  164.0400 C.3       2 GLY6        0.0000 
     21 DU        164.1700  125.4000  160.1800 H         3 CUB7        0.0000 
     22 DU        164.8900  124.1800  160.6600 H         3 CUB7        0.0000 
     23 DU        165.6100  122.9600  161.1500 H         3 CUB7        0.0000 
     24 DU        164.6000  122.8000  162.2500 H         3 CUB7        0.0000 
     25 DU        166.3300  121.7300  161.6300 H         3 CUB7        0.0000 
     26 DU        164.3000  127.4800  160.5900 H         3 CUB7        0.0000 
     27 DU        166.0200  126.4100  159.9700 H         3 CUB7        0.0000 
     28 DU        165.7400  125.0300  161.5600 H         3 CUB7        0.0000 
     29 DU        166.4600  123.8100  162.0400 H         3 CUB7        0.0000 
     30 DU        167.1800  122.5900  162.5200 H         3 CUB7        0.0000 
@<TRIPOS>BOND
@<TRIPOS>SUBSTRUCTURE
     1 ALA2        1 GROUP   
     2 GLY6        2 GROUP   
     3 CUB7       21 GROUP   
@<TRIPOS>SET

