#    Name: 6d6t_3_Y01
#    Modification time : Fri May 22 19:23:39 2020

@<TRIPOS>MOLECULE
6d6t_3_Y01
   21    24     1     0     0
SMALL
NO_CHARGES


@<TRIPOS>ATOM
      1 CBB       168.5580  129.8680  159.6220 C.3       1 Y01408      0.0000 
      2 CBE       169.0320  128.6760  158.7860 C.3       1 Y01408      0.0000 
      3 CAP       170.5460  128.8020  158.4840 C.3       1 Y01408      0.0000 
      4 CAQ       171.2110  127.5130  159.0390 C.3       1 Y01408      0.0000 
      5 CBG       170.0540  126.5080  159.0520 C.3       1 Y01408      0.0000 
      6 CBI       168.8850  127.3820  159.5790 C.3       1 Y01408      0.0000 
      7 CAE       169.0770  127.6630  161.0710 C.3       1 Y01408      0.0000 
      8 CAU       167.6070  126.5970  159.3590 C.3       1 Y01408      0.0000 
      9 CAS       167.6840  125.3520  160.2550 C.3       1 Y01408      0.0000 
     10 CBF       168.9190  124.5100  159.9460 C.3       1 Y01408      0.0000 
     11 CBD       170.2090  125.3370  160.0050 C.3       1 Y01408      0.0000 
     12 CAK       171.3670  124.4470  159.5360 C.3       1 Y01408      0.0000 
     13 CAI       171.4050  123.2000  160.3720 C.2       1 Y01408      0.0000 
     14 CAZ       170.3540  122.7000  160.9510 C.2       1 Y01408      0.0000 
     15 CAV       170.5200  121.4400  161.7820 C.3       1 Y01408      0.0000 
     16 CBH       168.9990  123.3430  160.9140 C.3       1 Y01408      0.0000 
     17 CAD       168.6800  123.8640  162.3170 C.3       1 Y01408      0.0000 
     18 CAT       167.9440  122.2910  160.5620 C.3       1 Y01408      0.0000 
     19 CAR       168.0560  121.1160  161.5360 Du        1 Y01408      0.0000 
     20 CBC       169.4240  120.4490  161.3810 Du        1 Y01408      0.0000 
     21 OAW       169.4910  119.2790  162.2380 Du        1 Y01408      0.0000 
@<TRIPOS>BOND
     1    1    2 1    
     2    2    3 1    
     3    2    6 1    
     4    3    4 1    
     5    4    5 1    
     6    5    6 1    
     7    5   11 1    
     8    6    7 1    
     9    6    8 1    
    10    8    9 1    
    11    9   10 1    
    12   10   11 1    
    13   10   16 1    
    14   11   12 1    
    15   12   13 1    
    16   13   14 2    
    17   14   15 1    
    18   14   16 1    
    19   15   20 du   
    20   16   17 1    
    21   16   18 1    
    22   18   19 du   
    23   19   20 du   
    24   20   21 du   
@<TRIPOS>SUBSTRUCTURE
     1 Y01408      1 GROUP   
@<TRIPOS>SET

