#    Name: 5o5z_2_AT4
#    Modification time : Fri May 22 19:16:36 2020

@<TRIPOS>MOLECULE
5o5z_2_AT4
   27    29     1     0     0
SMALL
NO_CHARGES


@<TRIPOS>ATOM
      1 O5'       114.4670  131.6220  137.9840 O.3       1 AT4506      0.0000 
      2 C5'       115.4660  132.6190  137.9560 C.3       1 AT4506      0.0000 
      3 C4'       115.2360  133.4500  136.7230 C.3       1 AT4506      0.0000 
      4 O4'       114.7220  134.7180  137.0790 O.3       1 AT4506      0.0000 
      5 C3'       116.5310  133.7040  135.9990 C.3       1 AT4506      0.0000 
      6 O3'       116.7740  132.7020  135.0100 O.3       1 AT4506      0.0000 
      7 C2'       116.3480  135.0840  135.4270 C.3       1 AT4506      0.0000 
      8 C1'       115.2660  135.7370  136.2510 C.3       1 AT4506      0.0000 
      9 N1        115.4610  140.8510  137.3920 N.ar      1 AT4506      0.0000 
     10 C2        114.6750  140.2120  136.5290 C.ar      1 AT4506      0.0000 
     11 N3        114.7270  138.8890  136.3380 N.ar      1 AT4506      0.0000 
     12 C4        115.5870  138.1070  137.0090 C.ar      1 AT4506      0.0000 
     13 C5        116.4710  138.7490  137.9710 C.ar      1 AT4506      0.0000 
     14 C6        116.3590  140.2010  138.1340 C.ar      1 AT4506      0.0000 
     15 N6        117.1490  140.8440  139.0060 N.pl3     1 AT4506      0.0000 
     16 N7        117.2210  137.7870  138.5000 N.2       1 AT4506      0.0000 
     17 C8        116.8480  136.6210  137.9360 C.2       1 AT4506      0.0000 
     18 N9        115.8740  136.8120  137.0480 N.pl3     1 AT4506      0.0000 
     19 O2'       115.9160  135.0090  134.0810 O.3       1 AT4506      0.0000 
     20 PA        114.8570  130.0770  138.0060 P.3       1 AT4506      0.0000 
     21 O2A       114.1770  129.3670  136.8880 O.co2     1 AT4506      0.0000 
     22 O1A       114.6950  129.5660  139.4000 O.co2     1 AT4506      0.0000 
     23 O3A       116.4200  130.1730  137.7100 O.3       1 AT4506      0.0000 
     24 PB        117.4630  130.0560  138.9200 P.3       1 AT4506      0.0000 
     25 O1B       118.9480  129.9540  138.3250 O.co2     1 AT4506      0.0000 
     26 O2B       117.1290  128.8380  139.6760 O.co2     1 AT4506      0.0000 
     27 S3B       117.3640  131.7150  140.1520 S.3       1 AT4506      0.0000 
@<TRIPOS>BOND
     1    1    2 1    
     2    1   20 1    
     3    2    3 1    
     4    3    4 1    
     5    3    5 1    
     6    4    8 1    
     7    5    6 1    
     8    5    7 1    
     9    7    8 1    
    10    7   19 1    
    11    8   18 1    
    12    9   10 ar   
    13    9   14 ar   
    14   10   11 ar   
    15   11   12 ar   
    16   12   13 ar   
    17   12   18 1    
    18   13   14 ar   
    19   13   16 1    
    20   14   15 1    
    21   16   17 2    
    22   17   18 1    
    23   20   21 ar   
    24   20   22 ar   
    25   20   23 1    
    26   23   24 1    
    27   24   25 ar   
    28   24   26 ar   
    29   24   27 1    
@<TRIPOS>SUBSTRUCTURE
     1 AT4506      1 GROUP   
@<TRIPOS>SET

