#    Name: 5o5z_1_AT4
#    Modification time : Fri May 22 19:16:29 2020

@<TRIPOS>MOLECULE
5o5z_1_AT4
   27    29     1     0     0
SMALL
NO_CHARGES


@<TRIPOS>ATOM
      1 O5'       110.1630  111.3780  106.5220 O.3       1 AT4508      0.0000 
      2 C5'       109.7860  112.2910  107.5310 C.3       1 AT4508      0.0000 
      3 C4'       108.4580  112.9150  107.1570 C.3       1 AT4508      0.0000 
      4 O4'       107.4110  112.2720  107.8590 O.3       1 AT4508      0.0000 
      5 C3'       108.4240  114.3750  107.5310 C.3       1 AT4508      0.0000 
      6 O3'       108.6850  115.1720  106.3830 O.3       1 AT4508      0.0000 
      7 C2'       107.0610  114.5880  108.1290 C.3       1 AT4508      0.0000 
      8 C1'       106.5340  113.2090  108.4450 C.3       1 AT4508      0.0000 
      9 N1        103.6460  111.8390  112.5830 N.ar      1 AT4508      0.0000 
     10 C2        103.2960  111.9280  111.3030 C.ar      1 AT4508      0.0000 
     11 N3        104.1530  112.2970  110.3470 N.ar      1 AT4508      0.0000 
     12 C4        105.4450  112.5940  110.6140 C.ar      1 AT4508      0.0000 
     13 C5        105.8920  112.5010  112.0000 C.ar      1 AT4508      0.0000 
     14 C6        104.8950  112.0940  113.0000 C.ar      1 AT4508      0.0000 
     15 N6        105.2400  111.9890  114.2960 N.pl3     1 AT4508      0.0000 
     16 N7        107.1840  112.8390  112.0060 N.2       1 AT4508      0.0000 
     17 C8        107.5470  113.1230  110.7350 C.2       1 AT4508      0.0000 
     18 N9        106.5050  112.9820  109.9020 N.pl3     1 AT4508      0.0000 
     19 O2'       106.1960  115.2480  107.2200 O.3       1 AT4508      0.0000 
     20 PA        111.1730  111.8420  105.3910 P.3       1 AT4508      0.0000 
     21 O2A       110.7140  113.1260  104.7960 O.co2     1 AT4508      0.0000 
     22 O1A       112.5660  111.6870  105.8940 O.co2     1 AT4508      0.0000 
     23 O3A       110.9950  110.6890  104.3310 O.3       1 AT4508      0.0000 
     24 PB        111.4520  109.2310  104.7890 P.3       1 AT4508      0.0000 
     25 O1B       111.0570  108.2350  103.7790 O.co2     1 AT4508      0.0000 
     26 O2B       113.0460  109.2300  104.9680 O.co2     1 AT4508      0.0000 
     27 S3B       110.4870  108.6870  106.5280 S.3       1 AT4508      0.0000 
@<TRIPOS>BOND
     1    1    2 1    
     2    1   20 1    
     3    2    3 1    
     4    3    4 1    
     5    3    5 1    
     6    4    8 1    
     7    5    6 1    
     8    5    7 1    
     9    7    8 1    
    10    7   19 1    
    11    8   18 1    
    12    9   10 ar   
    13    9   14 ar   
    14   10   11 ar   
    15   11   12 ar   
    16   12   13 ar   
    17   12   18 1    
    18   13   14 ar   
    19   13   16 1    
    20   14   15 1    
    21   16   17 2    
    22   17   18 1    
    23   20   21 ar   
    24   20   22 ar   
    25   20   23 1    
    26   23   24 1    
    27   24   25 ar   
    28   24   26 ar   
    29   24   27 1    
@<TRIPOS>SUBSTRUCTURE
     1 AT4508      1 GROUP   
@<TRIPOS>SET

