#    Name: 6mm5_1_ANP
#    Modification time : Fri May 22 19:28:08 2020

@<TRIPOS>MOLECULE
6mm5_1_ANP
   31    33     1     0     1
SMALL
NO_CHARGES


@<TRIPOS>ATOM
      1 PG         -5.4310   -5.5650   17.3160 P.3       1 ANP402      0.0000 
      2 O1G        -3.9100   -5.6540   17.3050 O.co2     1 ANP402      0.0000 
      3 O2G        -5.9900   -6.4920   18.4280 O.co2     1 ANP402      0.0000 
      4 O3G        -5.9080   -4.1430   17.4210 O.co2     1 ANP402      0.0000 
      5 PB         -6.6390   -7.5550   15.3910 P.3       1 ANP402      0.0000 
      6 O1B        -6.3910   -7.8800   13.9460 O.co2     1 ANP402      0.0000 
      7 O2B        -6.3920   -8.6470   16.4100 O.co2     1 ANP402      0.0000 
      8 N3B        -5.9610   -6.1270   15.8450 N.3       1 ANP402      0.0000 
      9 PA         -9.3300   -7.3370   16.5220 P.3       1 ANP402      0.0000 
     10 O1A       -10.3590   -8.3650   16.2020 O.co2     1 ANP402      0.0000 
     11 O2A        -8.6050   -7.3580   17.8220 O.co2     1 ANP402      0.0000 
     12 O3A        -8.2500   -7.2740   15.3280 O.3       1 ANP402      0.0000 
     13 O5'       -10.0200   -5.8930   16.4320 O.3       1 ANP402      0.0000 
     14 C5'        -9.1700   -4.7350   16.3000 C.3       1 ANP402      0.0000 
     15 C4'        -9.8710   -3.5570   16.9170 C.3       1 ANP402      0.0000 
     16 O4'       -11.1420   -3.3690   16.2470 O.3       1 ANP402      0.0000 
     17 C3'       -10.2630   -3.7280   18.3800 C.3       1 ANP402      0.0000 
     18 O3'        -9.1790   -3.5160   19.2750 O.3       1 ANP402      0.0000 
     19 C2'       -11.3500   -2.6520   18.4890 C.3       1 ANP402      0.0000 
     20 O2'       -10.8020   -1.3730   18.6540 O.3       1 ANP402      0.0000 
     21 C1'       -12.0660   -2.8120   17.1590 C.3       1 ANP402      0.0000 
     22 N9        -13.1820   -3.7170   17.3520 N.pl3     1 ANP402      0.0000 
     23 C8        -13.1750   -5.0870   17.2350 C.2       1 ANP402      0.0000 
     24 N7        -14.3490   -5.6330   17.4900 N.2       1 ANP402      0.0000 
     25 C5        -15.1720   -4.5530   17.8110 C.ar      1 ANP402      0.0000 
     26 C6        -16.5370   -4.4620   18.1790 C.ar      1 ANP402      0.0000 
     27 N6        -17.3370   -5.5210   18.3150 N.pl3     1 ANP402      0.0000 
     28 N1        -17.0250   -3.2250   18.4770 N.ar      1 ANP402      0.0000 
     29 C2        -16.2230   -2.1650   18.3370 C.ar      1 ANP402      0.0000 
     30 N3        -14.9430   -2.1320   17.9680 N.ar      1 ANP402      0.0000 
     31 C4        -14.4570   -3.3730   17.7370 C.ar      1 ANP402      0.0000 
@<TRIPOS>BOND
     1    1    2 ar   
     2    1    3 ar   
     3    1    4 ar   
     4    1    8 1    
     5    5    6 ar   
     6    5    7 ar   
     7    5    8 1    
     8    5   12 1    
     9    9   10 ar   
    10    9   11 ar   
    11    9   12 1    
    12    9   13 1    
    13   13   14 1    
    14   14   15 1    
    15   15   16 1    
    16   15   17 1    
    17   16   21 1    
    18   17   18 1    
    19   17   19 1    
    20   19   20 1    
    21   19   21 1    
    22   21   22 1    
    23   22   23 1    
    24   22   31 1    
    25   23   24 2    
    26   24   25 1    
    27   25   26 ar   
    28   25   31 ar   
    29   26   27 1    
    30   26   28 ar   
    31   28   29 ar   
    32   29   30 ar   
    33   30   31 ar   
@<TRIPOS>SUBSTRUCTURE
     1 ANP402      1 GROUP   
@<TRIPOS>SET
ATOM$ORANGE STATIC     ATOMS   COLORGROUP SYSTEM 
20 14 14 15 15 17 17 19 19 21 21 23 23 25 25 26 26 29 \
29 31 31 

