#    Name: 6pwg_1_ANP
#    Modification time : Fri May 22 19:36:12 2020

@<TRIPOS>MOLECULE
6pwg_1_ANP
   44    46     1     0     1
SMALL
NO_CHARGES


@<TRIPOS>ATOM
      1 PG         24.4140   26.0660   -8.8310 P.3       1 ANP301      0.0000 
      2 O1G        23.4800   27.1390   -8.2580 O.co2     1 ANP301      0.0000 
      3 O2G        25.3560   25.5600   -7.6770 O.co2     1 ANP301      0.0000 
      4 O3G        25.2820   26.6690   -9.9880 O.co2     1 ANP301      0.0000 
      5 PB         24.0100   23.7700  -10.4880 P.3       1 ANP301      0.0000 
      6 O1B        22.9320   22.8020  -10.7720 O.co2     1 ANP301      0.0000 
      7 O2B        25.2520   23.0470   -9.8840 O.co2     1 ANP301      0.0000 
      8 N3B        23.3860   24.8290   -9.3360 N.3       1 ANP301      0.0000 
      9 PA         23.8040   25.4680  -12.7600 P.3       1 ANP301      0.0000 
     10 O1A        22.5140   24.9160  -13.2930 O.co2     1 ANP301      0.0000 
     11 O2A        23.7490   26.8120  -12.0270 O.co2     1 ANP301      0.0000 
     12 O3A        24.5230   24.4360  -11.8000 O.3       1 ANP301      0.0000 
     13 O5'        24.7470   25.5490  -14.0270 O.3       1 ANP301      0.0000 
     14 C5'        26.1750   25.7410  -13.9290 C.3       1 ANP301      0.0000 
     15 C4'        26.5770   26.9060  -14.7840 C.3       1 ANP301      0.0000 
     16 O4'        26.3430   26.5310  -16.1560 O.3       1 ANP301      0.0000 
     17 C3'        25.7840   28.1830  -14.5630 C.3       1 ANP301      0.0000 
     18 O3'        26.3930   29.0690  -13.6260 O.3       1 ANP301      0.0000 
     19 C2'        25.7820   28.8250  -15.9450 C.3       1 ANP301      0.0000 
     20 O2'        26.9640   29.5810  -16.1920 O.3       1 ANP301      0.0000 
     21 C1'        25.7670   27.6110  -16.8660 C.3       1 ANP301      0.0000 
     22 N9         24.4380   27.2100  -17.3030 N.pl3     1 ANP301      0.0000 
     23 C8         23.5550   26.3900  -16.6450 C.2       1 ANP301      0.0000 
     24 N7         22.4360   26.1810  -17.2960 N.2       1 ANP301      0.0000 
     25 C5         22.5890   26.9210  -18.4640 C.ar      1 ANP301      0.0000 
     26 C6         21.7570   27.1230  -19.5710 C.ar      1 ANP301      0.0000 
     27 N6         20.5430   26.5880  -19.7000 N.pl3     1 ANP301      0.0000 
     28 N1         22.2240   27.8980  -20.5700 N.ar      1 ANP301      0.0000 
     29 C2         23.4240   28.4690  -20.4480 C.ar      1 ANP301      0.0000 
     30 N3         24.3050   28.3510  -19.4520 N.ar      1 ANP301      0.0000 
     31 C4         23.8250   27.5460  -18.4820 C.ar      1 ANP301      0.0000 
     32 HNB1       23.1900   24.3330   -8.6020 H         1 ANP301      0.0000 
     33 H5'1       26.6310   24.9380  -14.2350 H         1 ANP301      0.0000 
     34 H5'2       26.4150   25.9170  -13.0020 H         1 ANP301      0.0000 
     35 H4'        27.5260   27.1260  -14.6800 H         1 ANP301      0.0000 
     36 H3'        24.9050   27.9180  -14.2830 H         1 ANP301      0.0000 
     37 HO3'       26.7560   28.5780  -12.9780 H         1 ANP301      0.0000 
     38 H2'        24.9730   29.3380  -16.0620 H         1 ANP301      0.0000 
     39 HO2'       26.7400   30.4010  -16.4520 H         1 ANP301      0.0000 
     40 H1'        26.3280   27.8250  -17.6280 H         1 ANP301      0.0000 
     41 H8         23.7410   26.0050  -15.7900 H         1 ANP301      0.0000 
     42 HN61       19.8690   27.0600  -20.1210 H         1 ANP301      0.0000 
     43 HN62       20.3700   25.7530  -19.3700 H         1 ANP301      0.0000 
     44 H2         23.6920   29.0470  -21.1810 H         1 ANP301      0.0000 
@<TRIPOS>BOND
     1    1    2 ar   
     2    1    3 ar   
     3    1    4 ar   
     4    1    8 1    
     5    5    6 ar   
     6    5    7 ar   
     7    5    8 1    
     8    5   12 1    
     9    9   10 ar   
    10    8   32 1    
    11    9   11 ar   
    12    9   12 1    
    13    9   13 1    
    14   13   14 1    
    15   14   15 1    
    16   14   33 1    
    17   14   34 1    
    18   15   16 1    
    19   15   17 1    
    20   15   35 1    
    21   16   21 1    
    22   17   18 1    
    23   17   19 1    
    24   17   36 1    
    25   19   20 1    
    26   18   37 1    
    27   19   21 1    
    28   19   38 1    
    29   21   22 1    
    30   20   39 1    
    31   21   40 1    
    32   22   23 1    
    33   22   31 1    
    34   23   24 2    
    35   23   41 1    
    36   24   25 1    
    37   25   26 ar   
    38   25   31 ar   
    39   26   27 1    
    40   26   28 ar   
    41   27   42 1    
    42   27   43 1    
    43   28   29 ar   
    44   29   30 ar   
    45   29   44 1    
    46   30   31 ar   
@<TRIPOS>SUBSTRUCTURE
     1 ANP301      1 GROUP   
@<TRIPOS>SET
ATOM$ORANGE STATIC     ATOMS   COLORGROUP SYSTEM 
20 14 14 15 15 17 17 19 19 21 21 23 23 25 25 26 26 29 \
29 31 31 

