#    Name: 6pwg_2_ANP
#    Modification time : Fri May 22 19:36:15 2020

@<TRIPOS>MOLECULE
6pwg_2_ANP
   44    46     1     0     1
SMALL
NO_CHARGES


@<TRIPOS>ATOM
      1 PG          6.3890   14.1210  -49.4750 P.3       1 ANP301      0.0000 
      2 O1G         5.6550   15.2910  -50.0680 O.co2     1 ANP301      0.0000 
      3 O2G         6.5740   13.0380  -50.6190 O.co2     1 ANP301      0.0000 
      4 O3G         5.4940   13.4920  -48.3370 O.co2     1 ANP301      0.0000 
      5 PB          8.7470   13.5930  -47.9380 P.3       1 ANP301      0.0000 
      6 O1B        10.1240   14.1290  -47.7740 O.co2     1 ANP301      0.0000 
      7 O2B         8.8040   12.1810  -48.5380 O.co2     1 ANP301      0.0000 
      8 N3B         7.8600   14.6540  -48.8890 N.3       1 ANP301      0.0000 
      9 PA          7.2420   14.5060  -45.7010 P.3       1 ANP301      0.0000 
     10 O1A         8.0940   15.5820  -45.2010 O.co2     1 ANP301      0.0000 
     11 O2A         6.0240   14.8890  -46.5460 O.co2     1 ANP301      0.0000 
     12 O3A         8.1310   13.4440  -46.4840 O.3       1 ANP301      0.0000 
     13 O5'         6.7170   13.6520  -44.4630 O.3       1 ANP301      0.0000 
     14 C5'         5.8720   12.5040  -44.6230 C.3       1 ANP301      0.0000 
     15 C4'         4.6850   12.6040  -43.7160 C.3       1 ANP301      0.0000 
     16 O4'         5.1500   12.6290  -42.3460 O.3       1 ANP301      0.0000 
     17 C3'         3.8340   13.8550  -43.8760 C.3       1 ANP301      0.0000 
     18 O3'         2.8270   13.6680  -44.8600 O.3       1 ANP301      0.0000 
     19 C2'         3.2370   14.0200  -42.4760 C.3       1 ANP301      0.0000 
     20 O2'         2.1010   13.1860  -42.2940 O.3       1 ANP301      0.0000 
     21 C1'         4.3940   13.5580  -41.5890 C.3       1 ANP301      0.0000 
     22 N9          5.2930   14.6410  -41.1780 N.pl3     1 ANP301      0.0000 
     23 C8          6.3780   15.1210  -41.8620 C.2       1 ANP301      0.0000 
     24 N7          7.0190   16.0810  -41.2370 N.2       1 ANP301      0.0000 
     25 C5          6.3030   16.2440  -40.0620 C.ar      1 ANP301      0.0000 
     26 C6          6.4540   17.1190  -38.9740 C.ar      1 ANP301      0.0000 
     27 N6          7.4270   18.0290  -38.8830 N.pl3     1 ANP301      0.0000 
     28 N1          5.5770   17.0060  -37.9550 N.ar      1 ANP301      0.0000 
     29 C2          4.6010   16.1020  -38.0400 C.ar      1 ANP301      0.0000 
     30 N3          4.3560   15.2300  -39.0180 N.ar      1 ANP301      0.0000 
     31 C4          5.2490   15.3500  -40.0060 C.ar      1 ANP301      0.0000 
     32 HNB1        7.6790   15.3750  -48.3670 H         1 ANP301      0.0000 
     33 H5'1        6.3790   11.7030  -44.4050 H         1 ANP301      0.0000 
     34 H5'2        5.5700   12.4570  -45.5470 H         1 ANP301      0.0000 
     35 H4'         4.1020   11.8240  -43.8190 H         1 ANP301      0.0000 
     36 H3'         4.3990   14.6000  -44.0920 H         1 ANP301      0.0000 
     37 HO3'        2.5620   14.4520  -45.1730 H         1 ANP301      0.0000 
     38 H2'         3.0480   14.9470  -42.2870 H         1 ANP301      0.0000 
     39 HO2'        1.3730   13.6910  -42.1990 H         1 ANP301      0.0000 
     40 H1'         4.0140   13.1140  -40.8150 H         1 ANP301      0.0000 
     41 H8          6.6440   14.7870  -42.7170 H         1 ANP301      0.0000 
     42 HN61        7.7530   18.4280  -39.6480 H         1 ANP301      0.0000 
     43 HN62        7.7720   18.2570  -38.0690 H         1 ANP301      0.0000 
     44 H2          3.9870   16.0750  -37.2890 H         1 ANP301      0.0000 
@<TRIPOS>BOND
     1    1    2 ar   
     2    1    3 ar   
     3    1    4 ar   
     4    1    8 1    
     5    5    6 ar   
     6    5    7 ar   
     7    5    8 1    
     8    5   12 1    
     9    9   10 ar   
    10    8   32 1    
    11    9   11 ar   
    12    9   12 1    
    13    9   13 1    
    14   13   14 1    
    15   14   15 1    
    16   14   33 1    
    17   14   34 1    
    18   15   16 1    
    19   15   17 1    
    20   15   35 1    
    21   16   21 1    
    22   17   18 1    
    23   17   19 1    
    24   17   36 1    
    25   19   20 1    
    26   18   37 1    
    27   19   21 1    
    28   19   38 1    
    29   21   22 1    
    30   20   39 1    
    31   21   40 1    
    32   22   23 1    
    33   22   31 1    
    34   23   24 2    
    35   23   41 1    
    36   24   25 1    
    37   25   26 ar   
    38   25   31 ar   
    39   26   27 1    
    40   26   28 ar   
    41   27   42 1    
    42   27   43 1    
    43   28   29 ar   
    44   29   30 ar   
    45   29   44 1    
    46   30   31 ar   
@<TRIPOS>SUBSTRUCTURE
     1 ANP301      1 GROUP   
@<TRIPOS>SET
ATOM$ORANGE STATIC     ATOMS   COLORGROUP SYSTEM 
20 14 14 15 15 17 17 19 19 21 21 23 23 25 25 26 26 29 \
29 31 31 

