#    Name: 6mjx_1_1SY
#    Modification time : Fri May 22 19:26:27 2020

@<TRIPOS>MOLECULE
6mjx_1_1SY
   45    51     1     0     0
SMALL
NO_CHARGES


@<TRIPOS>ATOM
      1 C2        149.5730   58.9200  132.8790 C.ar      1 1SY601      0.0000 
      2 N01       146.9080   61.2100  132.2380 N.pl3     1 1SY601      0.0000 
      3 C6        148.2530   60.8170  132.6400 C.ar      1 1SY601      0.0000 
      4 N1        148.3950   59.5040  132.5470 N.ar      1 1SY601      0.0000 
      5 N3        150.6120   59.6830  133.2940 N.ar      1 1SY601      0.0000 
      6 C4        150.4690   61.0180  133.3820 C.ar      1 1SY601      0.0000 
      7 C5        149.3060   61.5940  133.0610 C.ar      1 1SY601      0.0000 
      8 N7        149.4310   62.9180  133.2350 N.2       1 1SY601      0.0000 
      9 C8        150.6790   63.1590  133.6710 C.2       1 1SY601      0.0000 
     10 N9        151.3170   61.9860  133.7620 N.pl3     1 1SY601      0.0000 
     11 C1'       152.6670   61.8670  134.2000 C.3       1 1SY601      0.0000 
     12 C2'       153.5990   62.0480  133.0280 C.3       1 1SY601      0.0000 
     13 O2'       154.4830   60.9450  132.9490 O.3       1 1SY601      0.0000 
     14 C3'       154.3450   63.3080  133.2530 C.3       1 1SY601      0.0000 
     15 C4'       154.1050   63.6680  134.6470 C.3       1 1SY601      0.0000 
     16 C16       153.7670   65.1660  134.7770 C.3       1 1SY601      0.0000 
     17 O17       152.5860   65.4770  134.0180 O.3       1 1SY601      0.0000 
     18 P18       152.0620   67.0990  133.8690 P.3       1 1SY601      0.0000 
     19 O19       150.7710   67.4080  134.5990 O.co2     1 1SY601      0.0000 
     20 O20       152.1050   67.6760  132.3020 O.3       1 1SY601      0.0000 
     21 C21       153.0430   66.8380  131.5280 C.3       1 1SY601      0.0000 
     22 C22       154.3850   67.4310  131.4220 C.3       1 1SY601      0.0000 
     23 O23       154.3350   68.8560  131.4320 O.3       1 1SY601      0.0000 
     24 C24       154.9150   66.9570  130.0830 C.3       1 1SY601      0.0000 
     25 C25       155.8970   65.8950  130.2080 C.3       1 1SY601      0.0000 
     26 O26       155.8410   65.2650  131.5250 O.3       1 1SY601      0.0000 
     27 P27       156.1750   63.6030  131.4170 P.3       1 1SY601      0.0000 
     28 O28       155.7700   63.1020  132.9860 O.3       1 1SY601      0.0000 
     29 O29       155.1580   63.0140  130.4680 O.co2     1 1SY601      0.0000 
     30 O30       157.5330   63.1960  130.8910 O.co2     1 1SY601      0.0000 
     31 O31       153.7390   66.4380  129.3420 O.3       1 1SY601      0.0000 
     32 C32       152.5900   66.7260  130.1930 C.3       1 1SY601      0.0000 
     33 N33       151.6310   65.6200  130.0670 N.pl3     1 1SY601      0.0000 
     34 C34       152.1180   64.3690  130.1570 C.2       1 1SY601      0.0000 
     35 N35       151.0860   63.5110  129.9940 N.2       1 1SY601      0.0000 
     36 C36       150.3250   65.5440  129.8450 C.2       1 1SY601      0.0000 
     37 C37       149.9800   64.2280  129.8010 C.2       1 1SY601      0.0000 
     38 C38       148.5170   63.8310  129.5590 C.2       1 1SY601      0.0000 
     39 N39       147.5250   64.8460  129.3800 N.2       1 1SY601      0.0000 
     40 C40       147.9010   66.2300  129.4260 C.2       1 1SY601      0.0000 
     41 N41       146.9010   67.2740  129.2490 N.pl3     1 1SY601      0.0000 
     42 N42       149.2880   66.6070  129.6570 N.pl3     1 1SY601      0.0000 
     43 O43       148.2120   62.6840  129.5210 O.2       1 1SY601      0.0000 
     44 O44       153.1200   67.9200  134.5710 O.co2     1 1SY601      0.0000 
     45 O4'       152.9720   62.8890  135.1710 O.3       1 1SY601      0.0000 
@<TRIPOS>BOND
     1    1    4 ar   
     2    1    5 ar   
     3    2    3 1    
     4    3    4 ar   
     5    3    7 ar   
     6    5    6 ar   
     7    6    7 ar   
     8    6   10 1    
     9    7    8 1    
    10    8    9 2    
    11    9   10 1    
    12   10   11 1    
    13   11   12 1    
    14   11   45 1    
    15   12   13 1    
    16   12   14 1    
    17   14   15 1    
    18   14   28 1    
    19   15   16 1    
    20   15   45 1    
    21   16   17 1    
    22   17   18 1    
    23   18   19 ar   
    24   18   20 1    
    25   18   44 ar   
    26   20   21 1    
    27   21   22 1    
    28   21   32 1    
    29   22   23 1    
    30   22   24 1    
    31   24   25 1    
    32   24   31 1    
    33   25   26 1    
    34   26   27 1    
    35   27   28 1    
    36   27   29 ar   
    37   27   30 ar   
    38   31   32 1    
    39   32   33 1    
    40   33   34 1    
    41   33   36 1    
    42   34   35 2    
    43   35   37 1    
    44   36   37 2    
    45   36   42 1    
    46   37   38 1    
    47   38   39 1    
    48   38   43 2    
    49   39   40 2    
    50   40   41 1    
    51   40   42 1    
@<TRIPOS>SUBSTRUCTURE
     1 1SY601      1 GROUP   
@<TRIPOS>SET

