#    Name: 5yrv_3_5AD
#    Modification time : Fri May 22 19:17:48 2020

@<TRIPOS>MOLECULE
5yrv_3_5AD
   18    20     1     0     0
SMALL
NO_CHARGES


@<TRIPOS>ATOM
      1 N1       -145.9040  204.8580   12.7670 N.ar      1 5AD605      0.0000 
      2 C2       -145.9200  205.6640   11.6910 C.ar      1 5AD605      0.0000 
      3 N3       -144.8230  206.1390   11.0800 N.ar      1 5AD605      0.0000 
      4 C4       -143.6000  205.8220   11.5530 C.ar      1 5AD605      0.0000 
      5 N9       -142.3680  206.1270   11.1870 N.pl3     1 5AD605      0.0000 
      6 C8       -141.5060  205.5260   12.0420 C.2       1 5AD605      0.0000 
      7 N7       -142.1680  204.8100   12.9800 N.2       1 5AD605      0.0000 
      8 C5       -143.4870  204.9460   12.7240 C.ar      1 5AD605      0.0000 
      9 C6       -144.7430  204.4680   13.3370 C.ar      1 5AD605      0.0000 
     10 N6       -144.7340  203.6500   14.4100 N.pl3     1 5AD605      0.0000 
     11 C1'      -142.0080  206.9780   10.0290 C.3       1 5AD605      0.0000 
     12 C2'      -142.1550  208.4600   10.3010 C.3       1 5AD605      0.0000 
     13 C3'      -140.7780  208.8390   10.7980 C.3       1 5AD605      0.0000 
     14 C4'      -139.8540  207.8750   10.0710 C.3       1 5AD605      0.0000 
     15 C5'      -138.6840  207.4910   10.9670 C.3       1 5AD605      0.0000 
     16 O4'      -140.6320  206.7240    9.7340 O.3       1 5AD605      0.0000 
     17 O2'      -142.4090  209.0660    9.0270 O.3       1 5AD605      0.0000 
     18 O3'      -140.4140  210.1870   10.4940 O.3       1 5AD605      0.0000 
@<TRIPOS>BOND
     1    1    2 ar   
     2    1    9 ar   
     3    2    3 ar   
     4    3    4 ar   
     5    4    5 1    
     6    4    8 ar   
     7    5    6 1    
     8    5   11 1    
     9    6    7 2    
    10    7    8 1    
    11    8    9 ar   
    12    9   10 1    
    13   11   12 1    
    14   11   16 1    
    15   12   13 1    
    16   12   17 1    
    17   13   14 1    
    18   13   18 1    
    19   14   15 1    
    20   14   16 1    
@<TRIPOS>SUBSTRUCTURE
     1 5AD605      1 GROUP   
@<TRIPOS>SET

