#    Name: 5yrv_4_5AD
#    Modification time : Fri May 22 19:17:54 2020

@<TRIPOS>MOLECULE
5yrv_4_5AD
   18    20     1     0     0
SMALL
NO_CHARGES


@<TRIPOS>ATOM
      1 N1       -118.9590  164.6070   24.1400 N.ar      1 5AD604      0.0000 
      2 C2       -118.9710  163.7490   25.1780 C.ar      1 5AD604      0.0000 
      3 N3       -119.0700  164.1510   26.4560 N.ar      1 5AD604      0.0000 
      4 C4       -119.1390  165.4670   26.7470 C.ar      1 5AD604      0.0000 
      5 N9       -119.2310  166.1510   27.8750 N.pl3     1 5AD604      0.0000 
      6 C8       -119.2820  167.4720   27.6010 C.2       1 5AD604      0.0000 
      7 N7       -119.2200  167.6860   26.2670 N.2       1 5AD604      0.0000 
      8 C5       -119.1410  166.4700   25.6780 C.ar      1 5AD604      0.0000 
      9 C6       -119.0340  165.9420   24.3030 C.ar      1 5AD604      0.0000 
     10 N6       -119.0440  166.7720   23.2390 N.pl3     1 5AD604      0.0000 
     11 C1'      -119.3050  165.5340   29.2170 C.3       1 5AD604      0.0000 
     12 C2'      -117.9490  165.1300   29.7460 C.3       1 5AD604      0.0000 
     13 C3'      -117.5230  166.3510   30.5210 C.3       1 5AD604      0.0000 
     14 C4'      -118.8310  166.9140   31.0370 C.3       1 5AD604      0.0000 
     15 C5'      -118.7690  168.4310   31.1540 C.3       1 5AD604      0.0000 
     16 O4'      -119.8480  166.5220   30.0950 O.3       1 5AD604      0.0000 
     17 O2'      -118.2040  164.0200   30.6220 O.3       1 5AD604      0.0000 
     18 O3'      -116.6860  165.9820   31.6140 O.3       1 5AD604      0.0000 
@<TRIPOS>BOND
     1    1    2 ar   
     2    1    9 ar   
     3    2    3 ar   
     4    3    4 ar   
     5    4    5 1    
     6    4    8 ar   
     7    5    6 1    
     8    5   11 1    
     9    6    7 2    
    10    7    8 1    
    11    8    9 ar   
    12    9   10 1    
    13   11   12 1    
    14   11   16 1    
    15   12   13 1    
    16   12   17 1    
    17   13   14 1    
    18   13   18 1    
    19   14   15 1    
    20   14   16 1    
@<TRIPOS>SUBSTRUCTURE
     1 5AD604      1 GROUP   
@<TRIPOS>SET

