#    Name: 5yrv_1_5AD
#    Modification time : Fri May 22 19:17:36 2020

@<TRIPOS>MOLECULE
5yrv_1_5AD
   18    20     1     0     0
SMALL
NO_CHARGES


@<TRIPOS>ATOM
      1 N1       -102.1260  158.1510  -18.2050 N.ar      1 5AD605      0.0000 
      2 C2       -101.4340  157.0350  -17.8960 C.ar      1 5AD605      0.0000 
      3 N3       -101.0850  156.0950  -18.7860 N.ar      1 5AD605      0.0000 
      4 C4       -101.4440  156.2420  -20.0780 C.ar      1 5AD605      0.0000 
      5 N9       -101.2670  155.5190  -21.1760 N.pl3     1 5AD605      0.0000 
      6 C8       -101.8530  156.1550  -22.2270 C.2       1 5AD605      0.0000 
      7 N7       -102.4250  157.3120  -21.8180 N.2       1 5AD605      0.0000 
      8 C5       -102.1850  157.4310  -20.4920 C.ar      1 5AD605      0.0000 
      9 C6       -102.5410  158.4160  -19.4540 C.ar      1 5AD605      0.0000 
     10 N6       -103.2140  159.5400  -19.7680 N.pl3     1 5AD605      0.0000 
     11 C1'      -100.5100  154.2500  -21.2200 C.3       1 5AD605      0.0000 
     12 C2'      -101.2900  153.0440  -20.7800 C.3       1 5AD605      0.0000 
     13 C3'      -101.8800  152.5630  -22.0890 C.3       1 5AD605      0.0000 
     14 C4'      -100.8120  152.9210  -23.1080 C.3       1 5AD605      0.0000 
     15 C5'      -101.4670  153.2550  -24.4330 C.3       1 5AD605      0.0000 
     16 O4'      -100.1210  154.0610  -22.5810 O.3       1 5AD605      0.0000 
     17 O2'      -100.2930  152.1430  -20.2930 O.3       1 5AD605      0.0000 
     18 O3'      -102.0980  151.1600  -22.0600 O.3       1 5AD605      0.0000 
@<TRIPOS>BOND
     1    1    2 ar   
     2    1    9 ar   
     3    2    3 ar   
     4    3    4 ar   
     5    4    5 1    
     6    4    8 ar   
     7    5    6 1    
     8    5   11 1    
     9    6    7 2    
    10    7    8 1    
    11    8    9 ar   
    12    9   10 1    
    13   11   12 1    
    14   11   16 1    
    15   12   13 1    
    16   12   17 1    
    17   13   14 1    
    18   13   18 1    
    19   14   15 1    
    20   14   16 1    
@<TRIPOS>SUBSTRUCTURE
     1 5AD605      1 GROUP   
@<TRIPOS>SET

