#    Name: 5yrv_1_5AD_CAVITY_N1_6
#    Modification time : Fri May 22 19:17:37 2020

@<TRIPOS>MOLECULE
5yrv_1_5AD_CAVITY_N1_6
   80     0     5     0     0
SMALL
NO_CHARGES


@<TRIPOS>ATOM
      1 OG       -101.1800  150.0800  -25.0800 O.3       1 SER1        0.0000 
      2 OG       -101.4300  148.2700  -23.9900 O.3       1 SER1        0.0000 
      3 OG       -101.2800  153.7500  -25.2300 O.3       1 SER1        0.0000 
      4 OG       -102.3900  153.1300  -24.4200 O.3       1 SER1        0.0000 
      5 OG       -103.5000  152.5200  -23.6200 O.3       1 SER1        0.0000 
      6 OG       -101.7700  150.1400  -23.0500 O.3       1 SER1        0.0000 
      7 OG       -102.0100  148.3400  -21.9500 O.3       1 SER1        0.0000 
      8 OG       -100.7600  154.4200  -23.9900 O.3       1 SER1        0.0000 
      9 OG       -101.8600  153.8100  -23.1900 O.3       1 SER1        0.0000 
     10 OG       -102.9700  153.2000  -22.3800 O.3       1 SER1        0.0000 
     11 OG       -100.1400  151.4300  -22.6200 O.3       1 SER1        0.0000 
     12 OG       -101.2400  150.8100  -21.8100 O.3       1 SER1        0.0000 
     13 OG       -100.3800  149.6200  -21.5300 O.3       1 SER1        0.0000 
     14 OG       -102.2100  155.6800  -22.2400 O.3       1 SER1        0.0000 
     15 OG       -101.3400  154.4800  -21.9600 O.3       1 SER1        0.0000 
     16 OG       -101.5900  152.6800  -20.8600 O.3       1 SER1        0.0000 
     17 OG       -102.6900  152.0700  -20.0600 O.3       1 SER1        0.0000 
     18 OG       -103.8000  151.4600  -19.2600 O.3       1 SER1        0.0000 
     19 OG       -100.7200  151.4900  -20.5800 O.3       1 SER1        0.0000 
     20 OG       -101.8300  150.8800  -19.7700 O.3       1 SER1        0.0000 
     21 OG       -105.0100  154.5200  -18.5900 O.3       1 SER1        0.0000 
     22 OG       -101.9300  154.5500  -19.9200 O.3       1 SER1        0.0000 
     23 OG       -103.0400  153.9400  -19.1100 O.3       1 SER1        0.0000 
     24 OG       -104.1500  153.3300  -18.3100 O.3       1 SER1        0.0000 
     25 OG       -105.2500  152.7200  -17.5000 O.3       1 SER1        0.0000 
     26 OG       -102.1700  152.7500  -18.8300 O.3       1 SER1        0.0000 
     27 OG       -104.3900  151.5200  -17.2200 O.3       1 SER1        0.0000 
     28 OG       -101.3100  151.5500  -18.5400 O.3       1 SER1        0.0000 
     29 OG       -102.4200  150.9400  -17.7400 O.3       1 SER1        0.0000 
     30 OG       -100.4400  150.3600  -18.2500 O.3       1 SER1        0.0000 
     31 OG       -101.5500  149.7500  -17.4500 O.3       1 SER1        0.0000 
     32 OG       -102.2700  156.4200  -18.9700 O.3       1 SER1        0.0000 
     33 OG       -100.3000  155.8300  -19.4900 O.3       1 SER1        0.0000 
     34 OG       -102.5100  154.6100  -17.8800 O.3       1 SER1        0.0000 
     35 N        -101.4900  149.0100  -20.7200 N.am      2 ALA2        0.0000 
     36 N        -101.7300  147.2100  -19.6300 N.am      2 ALA2        0.0000 
     37 N        -106.4000  155.0400  -20.1100 N.am      2 ALA2        0.0000 
     38 N         -99.8600  150.3000  -20.2900 N.am      2 ALA2        0.0000 
     39 N        -100.9700  149.6900  -19.4900 N.am      2 ALA2        0.0000 
     40 N        -100.1000  148.4900  -19.2000 N.am      2 ALA2        0.0000 
     41 N        -101.2100  147.8800  -18.4000 N.am      2 ALA2        0.0000 
     42 N        -104.5200  158.1200  -20.7800 N.am      2 ALA2        0.0000 
     43 O        -102.5500  157.5400  -21.2900 O.2       2 ALA2        0.0000 
     44 N        -103.6600  156.9300  -20.4900 N.am      2 ALA2        0.0000 
     45 N        -104.7700  156.3200  -19.6900 N.am      2 ALA2        0.0000 
     46 N        -105.8700  155.7100  -18.8800 N.am      2 ALA2        0.0000 
     47 N        -102.0200  158.2200  -20.0600 N.am      2 ALA2        0.0000 
     48 N        -101.7500  157.0900  -17.7400 N.am      2 ALA2        0.0000 
     49 CZ       -103.1500  150.6600  -24.5600 C.ar      3 PHE5        0.0000 
     50 CZ       -100.4100  152.5500  -24.9400 C.ar      3 PHE5        0.0000 
     51 CZ       -101.5200  151.9400  -24.1400 C.ar      3 PHE5        0.0000 
     52 CZ       -103.3800  155.8000  -18.1700 C.ar      3 PHE5        0.0000 
     53 CA       -105.8100  154.9700  -22.1500 C.3       4 GLY6        0.0000 
     54 CA       -104.9500  153.7800  -21.8700 C.3       4 GLY6        0.0000 
     55 CA        -99.8900  153.2300  -23.7100 C.3       4 GLY6        0.0000 
     56 CA       -101.0000  152.6200  -22.9000 C.3       4 GLY6        0.0000 
     57 CA       -105.2900  155.6500  -20.9200 C.3       4 GLY6        0.0000 
     58 CA       -103.3200  155.0700  -21.4400 C.3       4 GLY6        0.0000 
     59 CA       -100.2300  155.1000  -22.7600 C.3       4 GLY6        0.0000 
     60 CA        -99.3700  153.9000  -22.4700 C.3       4 GLY6        0.0000 
     61 CA       -100.4800  153.2900  -21.6700 C.3       4 GLY6        0.0000 
     62 CA       -101.6800  156.3500  -21.0100 C.3       4 GLY6        0.0000 
     63 CA       -106.1200  153.9100  -17.7900 C.3       4 GLY6        0.0000 
     64 CA       -100.8200  155.1600  -20.7200 C.3       4 GLY6        0.0000 
     65 CA       -103.1300  157.6100  -19.2600 C.3       4 GLY6        0.0000 
     66 CA       -104.2400  157.0000  -18.4500 C.3       4 GLY6        0.0000 
     67 CA       -101.1600  157.0300  -19.7800 C.3       4 GLY6        0.0000 
     68 DU       -102.6300  151.3300  -23.3300 H         5 CUB7        0.0000 
     69 DU       -104.0800  152.5900  -21.5800 H         5 CUB7        0.0000 
     70 DU       -102.1100  152.0100  -22.1000 H         5 CUB7        0.0000 
     71 DU       -102.3500  150.2000  -21.0100 H         5 CUB7        0.0000 
     72 DU       -104.4200  154.4500  -20.6300 H         5 CUB7        0.0000 
     73 DU       -105.5300  153.8400  -19.8300 H         5 CUB7        0.0000 
     74 DU       -102.4500  153.8700  -21.1500 H         5 CUB7        0.0000 
     75 DU       -103.5600  153.2600  -20.3500 H         5 CUB7        0.0000 
     76 DU       -104.6700  152.6500  -19.5400 H         5 CUB7        0.0000 
     77 DU       -102.9400  150.2700  -18.9700 H         5 CUB7        0.0000 
     78 DU       -102.0700  149.0800  -18.6800 H         5 CUB7        0.0000 
     79 DU       -102.7900  155.7400  -20.2000 H         5 CUB7        0.0000 
     80 DU       -103.9000  155.1300  -19.4000 H         5 CUB7        0.0000 
@<TRIPOS>BOND
@<TRIPOS>SUBSTRUCTURE
     1 SER1        1 GROUP   
     2 ALA2       35 GROUP   
     3 PHE5       49 GROUP   
     4 GLY6       53 GROUP   
     5 CUB7       68 GROUP   
@<TRIPOS>SET

