#    Name: 5yrv_2_5AD
#    Modification time : Fri May 22 19:17:42 2020

@<TRIPOS>MOLECULE
5yrv_2_5AD
   18    20     1     0     0
SMALL
NO_CHARGES


@<TRIPOS>ATOM
      1 N1        -99.0930  191.4780  -54.7740 N.ar      1 5AD605      0.0000 
      2 C2        -99.7470  192.6300  -55.0330 C.ar      1 5AD605      0.0000 
      3 N3       -101.0770  192.7640  -54.9310 N.ar      1 5AD605      0.0000 
      4 C4       -101.8450  191.7050  -54.5630 C.ar      1 5AD605      0.0000 
      5 N9       -103.1440  191.5160  -54.3800 N.pl3     1 5AD605      0.0000 
      6 C8       -103.3610  190.2330  -54.0070 C.2       1 5AD605      0.0000 
      7 N7       -102.1880  189.5520  -53.9380 N.2       1 5AD605      0.0000 
      8 C5       -101.2110  190.4110  -54.2760 C.ar      1 5AD605      0.0000 
      9 C6        -99.7420  190.3510  -54.4090 C.ar      1 5AD605      0.0000 
     10 N6        -99.0770  189.2000  -54.1440 N.pl3     1 5AD605      0.0000 
     11 C1'      -104.1920  192.5490  -54.5200 C.3       1 5AD605      0.0000 
     12 C2'      -104.5960  192.8060  -55.9520 C.3       1 5AD605      0.0000 
     13 C3'      -105.7590  191.8780  -56.1370 C.3       1 5AD605      0.0000 
     14 C4'      -106.4020  191.8240  -54.7670 C.3       1 5AD605      0.0000 
     15 C5'      -107.0610  190.4660  -54.5820 C.3       1 5AD605      0.0000 
     16 O4'      -105.3430  192.0650  -53.8240 O.3       1 5AD605      0.0000 
     17 O2'      -104.9800  194.1850  -56.0260 O.3       1 5AD605      0.0000 
     18 O3'      -106.6710  192.3950  -57.0970 O.3       1 5AD605      0.0000 
@<TRIPOS>BOND
     1    1    2 ar   
     2    1    9 ar   
     3    2    3 ar   
     4    3    4 ar   
     5    4    5 1    
     6    4    8 ar   
     7    5    6 1    
     8    5   11 1    
     9    6    7 2    
    10    7    8 1    
    11    8    9 ar   
    12    9   10 1    
    13   11   12 1    
    14   11   16 1    
    15   12   13 1    
    16   12   17 1    
    17   13   14 1    
    18   13   18 1    
    19   14   15 1    
    20   14   16 1    
@<TRIPOS>SUBSTRUCTURE
     1 5AD605      1 GROUP   
@<TRIPOS>SET

