#    Name: 5yrv_4_5AD_CAVITY_N1_4
#    Modification time : Fri May 22 19:17:55 2020

@<TRIPOS>MOLECULE
5yrv_4_5AD_CAVITY_N1_4
   79     0     5     0     0
SMALL
NO_CHARGES


@<TRIPOS>ATOM
      1 OG       -118.9600  164.4600   25.6600 O.3       1 SER1        0.0000 
      2 OG       -118.4300  165.1400   26.9000 O.3       1 SER1        0.0000 
      3 OG       -116.4600  164.5600   26.3800 O.3       1 SER1        0.0000 
      4 OG       -118.7800  167.0100   27.8400 O.3       1 SER1        0.0000 
      5 OG       -117.9100  165.8100   28.1300 O.3       1 SER1        0.0000 
      6 OG       -119.0200  165.2000   28.9300 O.3       1 SER1        0.0000 
      7 OG       -115.9400  165.2300   27.6100 O.3       1 SER1        0.0000 
      8 OG       -117.0500  164.6200   28.4200 O.3       1 SER1        0.0000 
      9 OG       -115.0700  164.0400   27.9000 O.3       1 SER1        0.0000 
     10 OG       -118.2500  167.6800   29.0800 O.3       1 SER1        0.0000 
     11 OG       -119.3600  167.0700   29.8800 O.3       1 SER1        0.0000 
     12 OG       -116.2800  167.1000   28.5600 O.3       1 SER1        0.0000 
     13 OG       -117.3900  166.4900   29.3600 O.3       1 SER1        0.0000 
     14 OG       -118.5000  165.8800   30.1700 O.3       1 SER1        0.0000 
     15 OG       -116.5200  165.3000   29.6500 O.3       1 SER1        0.0000 
     16 OG       -117.6300  164.6900   30.4500 O.3       1 SER1        0.0000 
     17 OG       -115.6600  164.1000   29.9400 O.3       1 SER1        0.0000 
     18 OG       -116.7700  163.4900   30.7400 O.3       1 SER1        0.0000 
     19 OG       -114.8000  162.9100   30.2200 O.3       1 SER1        0.0000 
     20 OG       -115.9000  162.3000   31.0300 O.3       1 SER1        0.0000 
     21 OG       -119.7000  168.9400   30.8300 O.3       1 SER1        0.0000 
     22 OG       -117.7300  168.3600   30.3100 O.3       1 SER1        0.0000 
     23 OG       -118.8400  167.7400   31.1200 O.3       1 SER1        0.0000 
     24 OG       -116.8700  167.1600   30.6000 O.3       1 SER1        0.0000 
     25 OG       -117.3500  163.5600   32.7800 O.3       1 SER1        0.0000 
     26 OG       -116.1000  169.6400   30.7400 O.3       1 SER1        0.0000 
     27 OG       -117.7000  165.4200   33.7300 O.3       1 SER1        0.0000 
     28 N        -118.7100  166.2700   24.5700 N.am      2 ALA2        0.0000 
     29 N        -119.8200  165.6600   25.3800 N.am      2 ALA2        0.0000 
     30 O        -119.0500  168.1300   25.5200 O.2       2 ALA2        0.0000 
     31 N        -117.0800  167.5500   25.0000 N.am      2 ALA2        0.0000 
     32 N        -116.2200  166.3600   25.2900 N.am      2 ALA2        0.0000 
     33 N        -117.8800  162.8800   31.5400 N.am      2 ALA2        0.0000 
     34 N        -117.0100  161.6900   31.8300 N.am      2 ALA2        0.0000 
     35 N        -116.4900  162.3700   33.0600 N.am      2 ALA2        0.0000 
     36 N        -116.8300  164.2300   34.0100 N.am      2 ALA2        0.0000 
     37 N        -114.8600  163.6500   33.4900 N.am      2 ALA2        0.0000 
     38 N        -116.0600  166.7100   34.1500 N.am      2 ALA2        0.0000 
     39 N        -117.1700  166.1000   34.9600 N.am      2 ALA2        0.0000 
     40 N        -115.2000  165.5200   34.4400 N.am      2 ALA2        0.0000 
     41 O        -116.3100  164.9100   35.2400 O.2       2 ALA2        0.0000 
     42 CZ       -116.9800  163.8800   25.1500 C.ar      3 PHE5        0.0000 
     43 CZ       -115.3500  165.1700   25.5700 C.ar      3 PHE5        0.0000 
     44 CZ       -118.0700  170.2200   31.2600 C.ar      3 PHE5        0.0000 
     45 CZ       -117.2100  169.0300   31.5400 C.ar      3 PHE5        0.0000 
     46 CZ       -118.3200  168.4200   32.3500 C.ar      3 PHE5        0.0000 
     47 CZ       -117.4500  167.2300   32.6300 C.ar      3 PHE5        0.0000 
     48 CZ       -115.5800  170.3200   31.9700 C.ar      3 PHE5        0.0000 
     49 CZ       -116.6800  169.7100   32.7800 C.ar      3 PHE5        0.0000 
     50 CZ       -115.8200  168.5100   33.0600 C.ar      3 PHE5        0.0000 
     51 CZ       -116.9300  167.9000   33.8700 C.ar      3 PHE5        0.0000 
     52 CA       -116.7400  165.6900   24.0500 C.3       4 GLY6        0.0000 
     53 CA       -117.8500  165.0700   24.8600 C.3       4 GLY6        0.0000 
     54 CA       -115.8800  164.4900   24.3400 C.3       4 GLY6        0.0000 
     55 CA       -120.1600  167.5200   26.3200 C.3       4 GLY6        0.0000 
     56 CA       -118.1900  166.9400   25.8100 C.3       4 GLY6        0.0000 
     57 CA       -119.3000  166.3300   26.6100 C.3       4 GLY6        0.0000 
     58 CA       -119.6400  168.2000   27.5600 C.3       4 GLY6        0.0000 
     59 CA       -120.7500  167.5900   28.3600 C.3       4 GLY6        0.0000 
     60 CA       -117.6700  167.6200   27.0400 C.3       4 GLY6        0.0000 
     61 CA       -119.8900  166.3900   28.6500 C.3       4 GLY6        0.0000 
     62 CA       -115.6900  167.0400   26.5200 C.3       4 GLY6        0.0000 
     63 CA       -116.8000  166.4200   27.3300 C.3       4 GLY6        0.0000 
     64 CA       -120.2300  168.2600   29.6000 C.3       4 GLY6        0.0000 
     65 CA       -115.1700  167.7100   27.7500 C.3       4 GLY6        0.0000 
     66 CA       -118.7400  164.0700   31.2600 C.3       4 GLY6        0.0000 
     67 CA       -117.9700  166.5500   31.4000 C.3       4 GLY6        0.0000 
     68 CA       -118.2200  164.7500   32.4900 C.3       4 GLY6        0.0000 
     69 CA       -118.5600  166.6200   33.4400 C.3       4 GLY6        0.0000 
     70 CA       -116.4400  171.5100   31.6900 C.3       4 GLY6        0.0000 
     71 DU       -117.3300  165.7500   26.0900 H         5 CUB7        0.0000 
     72 DU       -115.4200  165.9100   28.8400 H         5 CUB7        0.0000 
     73 DU       -117.1100  165.3600   31.6900 H         5 CUB7        0.0000 
     74 DU       -116.2500  164.1700   31.9700 H         5 CUB7        0.0000 
     75 DU       -115.3800  162.9800   32.2600 H         5 CUB7        0.0000 
     76 DU       -116.3400  167.8400   31.8300 H         5 CUB7        0.0000 
     77 DU       -116.5900  166.0400   32.9200 H         5 CUB7        0.0000 
     78 DU       -115.7200  164.8400   33.2100 H         5 CUB7        0.0000 
     79 DU       -114.9600  167.3200   33.3500 H         5 CUB7        0.0000 
@<TRIPOS>BOND
@<TRIPOS>SUBSTRUCTURE
     1 SER1        1 GROUP   
     2 ALA2       28 GROUP   
     3 PHE5       42 GROUP   
     4 GLY6       52 GROUP   
     5 CUB7       71 GROUP   
@<TRIPOS>SET

