#    Name: 5yrv_3_5AD_CAVITY_N1_8
#    Modification time : Fri May 22 19:17:49 2020

@<TRIPOS>MOLECULE
5yrv_3_5AD_CAVITY_N1_8
   88     0     6     0     0
SMALL
NO_CHARGES


@<TRIPOS>ATOM
      1 OG       -143.9500  210.3700    9.3000 O.3       1 SER1        0.0000 
      2 OG       -140.8700  210.4000    7.9800 O.3       1 SER1        0.0000 
      3 OG       -142.2200  207.9800    9.8800 O.3       1 SER1        0.0000 
      4 OG       -144.4400  206.7600   11.4900 O.3       1 SER1        0.0000 
      5 OG       -144.2900  212.2300   10.2500 O.3       1 SER1        0.0000 
      6 OG       -143.4200  211.0400   10.5400 O.3       1 SER1        0.0000 
      7 OG       -142.5600  209.8500   10.8200 O.3       1 SER1        0.0000 
      8 OG       -143.6700  209.2400   11.6300 O.3       1 SER1        0.0000 
      9 OG       -144.7800  208.6300   12.4300 O.3       1 SER1        0.0000 
     10 OG       -141.7000  208.6600   11.1100 O.3       1 SER1        0.0000 
     11 OG       -142.8000  208.0500   11.9100 O.3       1 SER1        0.0000 
     12 OG       -143.9100  207.4400   12.7200 O.3       1 SER1        0.0000 
     13 OG       -139.7200  208.0800   10.5900 O.3       1 SER1        0.0000 
     14 OG       -140.8300  207.4700   11.4000 O.3       1 SER1        0.0000 
     15 OG       -141.9400  206.8500   12.2000 O.3       1 SER1        0.0000 
     16 OG       -138.8600  206.8800   10.8800 O.3       1 SER1        0.0000 
     17 OG       -141.0800  205.6600   12.4900 O.3       1 SER1        0.0000 
     18 OG       -137.9900  205.6900   11.1600 O.3       1 SER1        0.0000 
     19 OG       -145.1200  210.5000   13.3800 O.3       1 SER1        0.0000 
     20 OG       -144.2500  209.3000   13.6700 O.3       1 SER1        0.0000 
     21 OG       -137.8500  211.1700    9.9300 O.3       1 SER1        0.0000 
     22 OG       -139.2000  208.7500   11.8200 O.3       1 SER1        0.0000 
     23 OG       -140.3100  208.1400   12.6300 O.3       1 SER1        0.0000 
     24 OG       -139.7900  208.8200   13.8600 O.3       1 SER1        0.0000 
     25 N        -141.7300  211.5900    7.7000 N.am      2 ALA2        0.0000 
     26 N        -142.8400  210.9800    8.5000 N.am      2 ALA2        0.0000 
     27 N        -141.9700  209.7900    8.7900 N.am      2 ALA2        0.0000 
     28 N        -144.6800  204.9600   12.5800 N.am      2 ALA2        0.0000 
     29 N        -143.8200  203.7700   12.8600 N.am      2 ALA2        0.0000 
     30 N        -142.0700  213.4600    8.6400 N.am      2 ALA2        0.0000 
     31 N        -140.1000  212.8700    8.1200 N.am      2 ALA2        0.0000 
     32 N        -141.2100  212.2600    8.9300 N.am      2 ALA2        0.0000 
     33 N        -144.1600  205.6300   13.8100 N.am      2 ALA2        0.0000 
     34 O        -142.1800  205.0500   13.2900 O.2       2 ALA2        0.0000 
     35 N        -143.2900  204.4400   14.1000 N.am      2 ALA2        0.0000 
     36 N        -144.5000  207.5000   14.7600 N.am      2 ALA2        0.0000 
     37 N        -143.6300  206.3100   15.0400 N.am      2 ALA2        0.0000 
     38 N        -143.9800  208.1800   15.9900 N.am      2 ALA2        0.0000 
     39 NZ       -143.7000  212.1700    8.2100 N.4       3 LYS4        0.0000 
     40 NZ       -137.4100  205.6300    9.1300 N.4       3 LYS4        0.0000 
     41 CZ       -145.5400  206.1500   12.2900 C.ar      4 PHE5        0.0000 
     42 CZ       -138.6100  208.6900    9.7900 C.ar      4 PHE5        0.0000 
     43 CZ       -137.7500  207.5000   10.0700 C.ar      4 PHE5        0.0000 
     44 CZ       -136.8800  206.3000   10.3600 C.ar      4 PHE5        0.0000 
     45 CZ       -145.3600  208.6900   14.4700 C.ar      4 PHE5        0.0000 
     46 CZ       -138.0900  209.3600   11.0200 C.ar      4 PHE5        0.0000 
     47 CA       -141.8800  206.1200    8.9300 C.3       5 GLY6        0.0000 
     48 CA       -139.9000  205.5300    8.4100 C.3       5 GLY6        0.0000 
     49 CA       -141.1100  208.5900    9.0700 C.3       5 GLY6        0.0000 
     50 CA       -140.2500  207.4000    9.3600 C.3       5 GLY6        0.0000 
     51 CA       -141.3500  206.7900   10.1600 C.3       5 GLY6        0.0000 
     52 CA       -142.4600  206.1800   10.9700 C.3       5 GLY6        0.0000 
     53 CA       -143.5700  205.5700   11.7700 C.3       5 GLY6        0.0000 
     54 CA       -145.7900  204.3500   13.3800 C.3       5 GLY6        0.0000 
     55 CA       -138.2700  206.8200    8.8400 C.3       5 GLY6        0.0000 
     56 CA       -139.3800  206.2100    9.6400 C.3       5 GLY6        0.0000 
     57 CA       -140.4900  205.6000   10.4500 C.3       5 GLY6        0.0000 
     58 CA       -141.6000  204.9900   11.2500 C.3       5 GLY6        0.0000 
     59 CA       -142.7100  204.3800   12.0600 C.3       5 GLY6        0.0000 
     60 CA       -138.5200  205.0200    9.9300 C.3       5 GLY6        0.0000 
     61 CA       -144.0400  214.0400    9.1600 C.3       5 GLY6        0.0000 
     62 CA       -138.3700  210.4900    8.7000 C.3       5 GLY6        0.0000 
     63 CA       -139.4800  209.8800    9.5000 C.3       5 GLY6        0.0000 
     64 CA       -145.0200  206.8200   13.5200 C.3       5 GLY6        0.0000 
     65 CA       -143.0500  206.2400   13.0100 C.3       5 GLY6        0.0000 
     66 CA       -145.2700  205.0200   14.6100 C.3       5 GLY6        0.0000 
     67 CA       -141.4200  207.5300   13.4300 C.3       5 GLY6        0.0000 
     68 CA       -142.5300  206.9200   14.2400 C.3       5 GLY6        0.0000 
     69 CA       -144.8400  209.3700   15.7000 C.3       5 GLY6        0.0000 
     70 CA       -145.9500  208.7600   16.5100 C.3       5 GLY6        0.0000 
     71 CA       -142.0000  207.5900   15.4700 C.3       5 GLY6        0.0000 
     72 CA       -145.1800  211.2300   16.6500 C.3       5 GLY6        0.0000 
     73 CA       -144.3200  210.0400   16.9400 C.3       5 GLY6        0.0000 
     74 DU       -143.1800  212.8400    9.4500 H         6 CUB7        0.0000 
     75 DU       -142.3200  211.6500    9.7300 H         6 CUB7        0.0000 
     76 DU       -140.3400  211.0700    9.2100 H         6 CUB7        0.0000 
     77 DU       -141.4500  210.4600   10.0200 H         6 CUB7        0.0000 
     78 DU       -140.5900  209.2700   10.3100 H         6 CUB7        0.0000 
     79 DU       -142.0400  210.5200   12.0600 H         6 CUB7        0.0000 
     80 DU       -143.1500  209.9100   12.8600 H         6 CUB7        0.0000 
     81 DU       -138.9600  210.5500   10.7300 H         6 CUB7        0.0000 
     82 DU       -140.0600  209.9400   11.5400 H         6 CUB7        0.0000 
     83 DU       -141.1700  209.3300   12.3400 H         6 CUB7        0.0000 
     84 DU       -142.2800  208.7200   13.1500 H         6 CUB7        0.0000 
     85 DU       -143.3900  208.1100   13.9500 H         6 CUB7        0.0000 
     86 DU       -143.7300  209.9800   14.9000 H         6 CUB7        0.0000 
     87 DU       -141.7600  209.4000   14.3800 H         6 CUB7        0.0000 
     88 DU       -142.8700  208.7900   15.1900 H         6 CUB7        0.0000 
@<TRIPOS>BOND
@<TRIPOS>SUBSTRUCTURE
     1 SER1        1 GROUP   
     2 ALA2       25 GROUP   
     3 LYS4       39 GROUP   
     4 PHE5       41 GROUP   
     5 GLY6       47 GROUP   
     6 CUB7       74 GROUP   
@<TRIPOS>SET

