#    Name: 5yrv_2_5AD_CAVITY_N1_6
#    Modification time : Fri May 22 19:17:43 2020

@<TRIPOS>MOLECULE
5yrv_2_5AD_CAVITY_N1_6
   83     0     5     0     0
SMALL
NO_CHARGES


@<TRIPOS>ATOM
      1 OG       -110.2300  192.0400  -58.8200 O.3       1 SER1        0.0000 
      2 OG       -110.4800  190.2400  -57.7300 O.3       1 SER1        0.0000 
      3 OG       -110.8200  192.1100  -56.7800 O.3       1 SER1        0.0000 
      4 OG       -101.5700  192.2000  -60.7500 O.3       1 SER1        0.0000 
      5 OG       -107.1200  189.1400  -56.7300 O.3       1 SER1        0.0000 
      6 OG       -105.1400  188.5600  -57.2500 O.3       1 SER1        0.0000 
      7 OG       -107.3600  187.3400  -55.6400 O.3       1 SER1        0.0000 
      8 OG       -108.0800  194.0000  -57.1600 O.3       1 SER1        0.0000 
      9 OG       -103.0200  193.4500  -59.0000 O.3       1 SER1        0.0000 
     10 OG       -104.1300  192.8400  -58.1900 O.3       1 SER1        0.0000 
     11 OG       -102.1600  192.2600  -58.7100 O.3       1 SER1        0.0000 
     12 OG       -105.4800  190.4300  -56.3000 O.3       1 SER1        0.0000 
     13 OG       -106.5900  189.8200  -55.4900 O.3       1 SER1        0.0000 
     14 OG       -101.2900  191.0700  -58.4300 O.3       1 SER1        0.0000 
     15 OG       -104.7200  192.9100  -56.1600 O.3       1 SER1        0.0000 
     16 OG       -102.7400  192.3300  -56.6700 O.3       1 SER1        0.0000 
     17 OG       -103.8500  191.7100  -55.8700 O.3       1 SER1        0.0000 
     18 OG       -104.9600  191.1000  -55.0600 O.3       1 SER1        0.0000 
     19 OG       -106.0700  190.4900  -54.2600 O.3       1 SER1        0.0000 
     20 OG       -107.1800  189.8800  -53.4600 O.3       1 SER1        0.0000 
     21 OG       -102.9900  190.5200  -55.5800 O.3       1 SER1        0.0000 
     22 OG       -103.3300  192.3900  -54.6400 O.3       1 SER1        0.0000 
     23 OG       -101.3600  191.8100  -55.1500 O.3       1 SER1        0.0000 
     24 N        -111.0000  189.5600  -58.9600 N.am      2 ALA2        0.0000 
     25 N        -110.1300  188.3700  -58.6700 N.am      2 ALA2        0.0000 
     26 N        -109.7100  192.7200  -57.5800 N.am      2 ALA2        0.0000 
     27 N        -100.9500  189.2000  -59.3700 N.am      2 ALA2        0.0000 
     28 N        -102.0600  188.5900  -58.5700 N.am      2 ALA2        0.0000 
     29 N        -100.0900  188.0100  -59.0900 N.am      2 ALA2        0.0000 
     30 N        -100.4300  189.8800  -58.1400 N.am      2 ALA2        0.0000 
     31 N        -101.5400  189.2700  -57.3400 N.am      2 ALA2        0.0000 
     32 N        -101.0100  189.9400  -56.1000 N.am      2 ALA2        0.0000 
     33 O        -101.2600  188.1400  -55.0100 O.2       2 ALA2        0.0000 
     34 O        -105.5500  191.1700  -53.0300 O.2       2 ALA2        0.0000 
     35 O        -106.6600  190.5600  -52.2200 O.2       2 ALA2        0.0000 
     36 N        -100.4900  190.6200  -54.8700 N.am      2 ALA2        0.0000 
     37 N         -99.6300  189.4200  -54.5800 N.am      2 ALA2        0.0000 
     38 CZ       -109.6100  189.0500  -57.4400 C.ar      3 PHE5        0.0000 
     39 CZ       -110.7200  188.4400  -56.6400 C.ar      3 PHE5        0.0000 
     40 CZ       -108.7500  187.8600  -57.1600 C.ar      3 PHE5        0.0000 
     41 CZ       -109.9500  190.9200  -56.4900 C.ar      3 PHE5        0.0000 
     42 CZ       -107.9800  190.3300  -57.0100 C.ar      3 PHE5        0.0000 
     43 CZ       -109.0900  189.7200  -56.2100 C.ar      3 PHE5        0.0000 
     44 CZ       -108.2200  188.5300  -55.9200 C.ar      3 PHE5        0.0000 
     45 CZ       -108.3200  192.2000  -56.0700 C.ar      3 PHE5        0.0000 
     46 CZ       -107.4600  191.0100  -55.7800 C.ar      3 PHE5        0.0000 
     47 CZ       -107.7000  189.2100  -54.6900 C.ar      3 PHE5        0.0000 
     48 CZ       -108.0400  191.0700  -53.7400 C.ar      3 PHE5        0.0000 
     49 CZ       -108.2900  189.2700  -52.6500 C.ar      3 PHE5        0.0000 
     50 CZ       -100.7700  191.7400  -57.1900 C.ar      3 PHE5        0.0000 
     51 CZ       -100.2500  192.4200  -55.9600 C.ar      3 PHE5        0.0000 
     52 CA       -111.5800  189.6300  -56.9200 C.3       4 GLY6        0.0000 
     53 CA       -100.7100  191.0000  -60.4600 C.3       4 GLY6        0.0000 
     54 CA       -101.8200  190.3900  -59.6600 C.3       4 GLY6        0.0000 
     55 CA       -103.1700  187.9800  -57.7600 C.3       4 GLY6        0.0000 
     56 CA       -109.1900  193.3900  -56.3500 C.3       4 GLY6        0.0000 
     57 CA       -103.5100  189.8500  -56.8200 C.3       4 GLY6        0.0000 
     58 CA        -99.3200  190.4900  -58.9400 C.3       4 GLY6        0.0000 
     59 CA       -102.6500  188.6600  -56.5300 C.3       4 GLY6        0.0000 
     60 CA       -106.6900  193.4900  -55.6400 C.3       4 GLY6        0.0000 
     61 CA       -107.8000  192.8800  -54.8300 C.3       4 GLY6        0.0000 
     62 CA       -105.8200  192.3000  -55.3500 C.3       4 GLY6        0.0000 
     63 CA       -106.9300  191.6800  -54.5500 C.3       4 GLY6        0.0000 
     64 CA        -99.9100  190.5500  -56.9100 C.3       4 GLY6        0.0000 
     65 CA       -102.1200  189.3300  -55.3000 C.3       4 GLY6        0.0000 
     66 CA       -105.3000  192.9700  -54.1200 C.3       4 GLY6        0.0000 
     67 CA       -107.5200  191.7500  -52.5100 C.3       4 GLY6        0.0000 
     68 CA       -104.4400  191.7800  -53.8300 C.3       4 GLY6        0.0000 
     69 CA       -102.4600  191.2000  -54.3500 C.3       4 GLY6        0.0000 
     70 CA       -103.5700  190.5900  -53.5500 C.3       4 GLY6        0.0000 
     71 CA        -99.3800  191.2300  -55.6700 C.3       4 GLY6        0.0000 
     72 CA       -101.6000  190.0100  -54.0600 C.3       4 GLY6        0.0000 
     73 DU       -109.3700  190.8500  -58.5300 H         5 CUB7        0.0000 
     74 DU       -108.6000  193.3300  -58.3900 H         5 CUB7        0.0000 
     75 DU       -108.8400  191.5300  -57.3000 H         5 CUB7        0.0000 
     76 DU       -102.9200  189.7800  -58.8500 H         5 CUB7        0.0000 
     77 DU       -107.2100  192.8100  -56.8700 H         5 CUB7        0.0000 
     78 DU       -105.2400  192.2300  -57.3900 H         5 CUB7        0.0000 
     79 DU       -106.3500  191.6200  -56.5800 H         5 CUB7        0.0000 
     80 DU       -103.2700  191.6500  -57.9100 H         5 CUB7        0.0000 
     81 DU       -104.3700  191.0400  -57.1000 H         5 CUB7        0.0000 
     82 DU       -102.4000  190.4600  -57.6200 H         5 CUB7        0.0000 
     83 DU       -101.8800  191.1300  -56.3900 H         5 CUB7        0.0000 
@<TRIPOS>BOND
@<TRIPOS>SUBSTRUCTURE
     1 SER1        1 GROUP   
     2 ALA2       24 GROUP   
     3 PHE5       38 GROUP   
     4 GLY6       52 GROUP   
     5 CUB7       73 GROUP   
@<TRIPOS>SET

