#    Name: 6h7j_2_5FW_CAVITY_N1_4
#    Modification time : Fri May 22 19:26:30 2020

@<TRIPOS>MOLECULE
6h7j_2_5FW_CAVITY_N1_4
   54     0     5     0     0
SMALL
NO_CHARGES


@<TRIPOS>ATOM
      1 OG         25.2800  -23.7300  -48.4800 O.3       1 SER1        0.0000 
      2 O          21.1200  -31.3200  -52.9100 O.2       2 ALA2        0.0000 
      3 N          22.3700  -28.1200  -50.4200 N.am      2 ALA2        0.0000 
      4 N          24.0400  -26.9300  -50.9700 N.am      2 ALA2        0.0000 
      5 N          24.4200  -26.1400  -52.1800 N.am      2 ALA2        0.0000 
      6 N          24.6600  -25.3300  -49.7200 N.am      2 ALA2        0.0000 
      7 N          25.3300  -26.5500  -50.3100 N.am      2 ALA2        0.0000 
      8 N          25.0500  -24.5400  -50.9300 N.am      2 ALA2        0.0000 
      9 N          25.4300  -23.7400  -52.1500 N.am      2 ALA2        0.0000 
     10 N          25.6700  -22.9400  -49.6900 N.am      2 ALA2        0.0000 
     11 N          26.3300  -24.1500  -50.2700 N.am      2 ALA2        0.0000 
     12 N          28.5700  -26.9800  -49.5600 N.am      2 ALA2        0.0000 
     13 N          28.2900  -24.9700  -50.1900 N.am      2 ALA2        0.0000 
     14 O          28.9500  -26.1900  -50.7700 O.2       2 ALA2        0.0000 
     15 O          28.6700  -24.1800  -51.4000 O.2       2 ALA2        0.0000 
     16 NZ         20.0300  -28.0900  -49.2900 N.4       3 LYS4        0.0000 
     17 NZ         20.6900  -29.3000  -49.8700 N.4       3 LYS4        0.0000 
     18 NZ         23.6500  -27.7300  -49.7600 N.4       3 LYS4        0.0000 
     19 NZ         24.9400  -27.3400  -49.0900 N.4       3 LYS4        0.0000 
     20 CZ         18.7800  -31.2900  -51.7800 C.ar      4 PHE5        0.0000 
     21 CZ         19.4000  -29.6900  -50.5300 C.ar      4 PHE5        0.0000 
     22 CZ         19.7900  -28.8900  -51.7500 C.ar      4 PHE5        0.0000 
     23 CZ         20.4500  -30.1000  -52.3300 C.ar      4 PHE5        0.0000 
     24 CZ         20.4100  -27.2900  -50.5000 C.ar      4 PHE5        0.0000 
     25 CZ         21.0800  -28.5000  -51.0800 C.ar      4 PHE5        0.0000 
     26 CZ         21.7400  -29.7200  -51.6700 C.ar      4 PHE5        0.0000 
     27 CZ         22.4100  -30.9300  -52.2500 C.ar      4 PHE5        0.0000 
     28 CZ         22.1300  -28.9200  -52.8800 C.ar      4 PHE5        0.0000 
     29 CZ         23.0300  -29.3300  -51.0000 C.ar      4 PHE5        0.0000 
     30 CZ         22.7500  -27.3200  -51.6300 C.ar      4 PHE5        0.0000 
     31 CZ         23.4200  -28.5300  -52.2200 C.ar      4 PHE5        0.0000 
     32 CZ         24.3200  -28.9400  -50.3400 C.ar      4 PHE5        0.0000 
     33 CZ         25.6100  -28.5500  -49.6800 C.ar      4 PHE5        0.0000 
     34 CZ         26.1000  -24.9600  -52.7300 C.ar      4 PHE5        0.0000 
     35 CZ         26.2300  -26.9500  -48.4300 C.ar      4 PHE5        0.0000 
     36 CZ         25.9500  -24.9500  -49.0600 C.ar      4 PHE5        0.0000 
     37 CZ         26.6100  -26.1600  -49.6400 C.ar      4 PHE5        0.0000 
     38 CZ         27.9000  -25.7700  -48.9800 C.ar      4 PHE5        0.0000 
     39 CA         19.0200  -30.4800  -49.3200 C.3       5 GLY6        0.0000 
     40 CA         18.7400  -28.4800  -49.9500 C.3       5 GLY6        0.0000 
     41 CA         20.0700  -30.9000  -51.1200 C.3       5 GLY6        0.0000 
     42 CA         20.7300  -32.1100  -51.7000 C.3       5 GLY6        0.0000 
     43 CA         21.3600  -30.5100  -50.4500 C.3       5 GLY6        0.0000 
     44 CA         25.7100  -25.7500  -51.5200 C.3       5 GLY6        0.0000 
     45 CA         24.7700  -22.5300  -51.5600 C.3       5 GLY6        0.0000 
     46 CA         26.9000  -28.1600  -49.0100 C.3       5 GLY6        0.0000 
     47 CA         27.2800  -27.3700  -50.2200 C.3       5 GLY6        0.0000 
     48 CA         27.0000  -25.3600  -50.8500 C.3       5 GLY6        0.0000 
     49 CA         26.0500  -22.1400  -50.9000 C.3       5 GLY6        0.0000 
     50 CA         26.7200  -23.3600  -51.4800 C.3       5 GLY6        0.0000 
     51 CA         27.3800  -24.5700  -52.0700 C.3       5 GLY6        0.0000 
     52 CA         26.9600  -22.5500  -49.0200 C.3       5 GLY6        0.0000 
     53 CA         27.6200  -23.7600  -49.6100 C.3       5 GLY6        0.0000 
     54 CA         28.0100  -22.9700  -50.8200 C.3       5 GLY6        0.0000 
@<TRIPOS>BOND
@<TRIPOS>SUBSTRUCTURE
     1 SER1        1 GROUP   
     2 ALA2        2 GROUP   
     3 LYS4       16 GROUP   
     4 PHE5       20 GROUP   
     5 GLY6       39 GROUP   
@<TRIPOS>SET

