#    Name: 6h7j_2_5FW
#    Modification time : Fri May 22 19:26:29 2020

@<TRIPOS>MOLECULE
6h7j_2_5FW
   15    15     1     0     0
SMALL
NO_CHARGES


@<TRIPOS>ATOM
      1 CAI        25.4910  -25.5250  -49.3980 C.3       1 5FW402      0.0000 
      2 CAG        24.9830  -26.9630  -49.5740 C.3       1 5FW402      0.0000 
      3 CAJ        25.5150  -27.8670  -48.4490 C.3       1 5FW402      0.0000 
      4 NAD        23.5040  -26.9380  -49.6530 N.4       1 5FW402      0.0000 
      5 CAF        22.9410  -28.2400  -50.0740 C.3       1 5FW402      0.0000 
      6 CAE        21.4730  -28.0850  -50.4890 C.3       1 5FW402      0.0000 
      7 OAA        20.7440  -27.5650  -49.3810 O.3       1 5FW402      0.0000 
      8 CAH        20.9080  -29.4370  -50.9450 C.ar      1 5FW402      0.0000 
      9 CAK        21.2290  -29.9170  -52.2160 C.ar      1 5FW402      0.0000 
     10 CAL        20.0730  -30.1940  -50.1180 C.ar      1 5FW402      0.0000 
     11 CAN        19.5710  -31.4170  -50.5570 C.ar      1 5FW402      0.0000 
     12 CAO        19.9060  -31.8910  -51.8230 C.ar      1 5FW402      0.0000 
     13 OAC        19.4150  -33.0780  -52.2420 O.3       1 5FW402      0.0000 
     14 CAM        20.7410  -31.1470  -52.6560 C.ar      1 5FW402      0.0000 
     15 OAB        21.0660  -31.6110  -53.8940 O.3       1 5FW402      0.0000 
@<TRIPOS>BOND
     1    1    2 1    
     2    2    3 1    
     3    2    4 1    
     4    4    5 1    
     5    5    6 1    
     6    6    7 1    
     7    6    8 1    
     8    8    9 ar   
     9    8   10 ar   
    10    9   14 ar   
    11   10   11 ar   
    12   11   12 ar   
    13   12   13 1    
    14   12   14 ar   
    15   14   15 1    
@<TRIPOS>SUBSTRUCTURE
     1 5FW402      1 GROUP   
@<TRIPOS>SET

