#    Name: 6c4t_1_NA7
#    Modification time : Fri May 22 19:36:00 2020

@<TRIPOS>MOLECULE
6c4t_1_NA7
   39    42     1     0     0
SMALL
NO_CHARGES


@<TRIPOS>ATOM
      1 PA         62.3870   10.5540    5.8800 P.3       1 NA7501      0.0000 
      2 O1A        63.3460   11.6690    5.8720 O.co2     1 NA7501      0.0000 
      3 O2A        61.8260   10.4140    4.4250 O.co2     1 NA7501      0.0000 
      4 O5B        61.2570   10.9550    7.0340 O.3       1 NA7501      0.0000 
      5 C5B        59.9580   10.3640    7.1020 C.3       1 NA7501      0.0000 
      6 C4B        58.8410   11.3940    6.8420 C.3       1 NA7501      0.0000 
      7 O4B        58.7380   12.3420    8.0700 O.3       1 NA7501      0.0000 
      8 C3B        59.0980   12.1280    5.8310 C.3       1 NA7501      0.0000 
      9 O3B        57.9960   12.0980    4.8930 O.3       1 NA7501      0.0000 
     10 C2B        59.2920   13.6550    6.4120 C.3       1 NA7501      0.0000 
     11 O2B        58.9590   14.6080    5.3380 O.3       1 NA7501      0.0000 
     12 C1B        58.4990   13.7290    7.4250 C.3       1 NA7501      0.0000 
     13 N9A        58.9040   14.8300    8.3930 N.pl3     1 NA7501      0.0000 
     14 C8A        60.0220   15.2390    9.0290 C.2       1 NA7501      0.0000 
     15 N7A        59.6620   16.3260    9.7550 N.2       1 NA7501      0.0000 
     16 C5A        58.3300   16.5850    9.5730 C.ar      1 NA7501      0.0000 
     17 C6A        57.4970   17.5860   10.0980 C.ar      1 NA7501      0.0000 
     18 N6A        57.6190   18.7360   11.0110 N.pl3     1 NA7501      0.0000 
     19 N1A        56.1830   17.6090    9.7470 N.ar      1 NA7501      0.0000 
     20 C2A        55.6870   16.6580    8.8860 C.ar      1 NA7501      0.0000 
     21 N3A        56.5090   15.6930    8.3820 N.ar      1 NA7501      0.0000 
     22 C4A        57.8420   15.6550    8.7330 C.ar      1 NA7501      0.0000 
     23 O3         63.2020    9.1480    6.3060 O.3       1 NA7501      0.0000 
     24 PN         62.5900    7.7360    6.8140 P.3       1 NA7501      0.0000 
     25 O1N        61.4360    7.3560    5.9780 O.co2     1 NA7501      0.0000 
     26 O2N        63.6730    6.6530    6.6830 O.co2     1 NA7501      0.0000 
     27 O5D        62.1630    7.9710    8.4250 O.3       1 NA7501      0.0000 
     28 C5D        62.0640    6.8540    9.3770 C.3       1 NA7501      0.0000 
     29 C4D        62.8020    7.0980   10.7060 C.3       1 NA7501      0.0000 
     30 O4D        64.1600    6.2410   10.8590 O.3       1 NA7501      0.0000 
     31 C3D        63.2090    8.3430   10.6780 C.3       1 NA7501      0.0000 
     32 O3D        62.0360    9.2020   11.0780 O.3       1 NA7501      0.0000 
     33 C2D        64.4540    8.4120   11.6090 C.3       1 NA7501      0.0000 
     34 O2D        64.2500    9.0380   12.8100 O.3       1 NA7501      0.0000 
     35 C1D        64.8490    6.9160   11.7680 C.3       1 NA7501      0.0000 
     36 P2B        59.9590   14.8580    3.9680 P.3       1 NA7501      0.0000 
     37 O1X        60.0950   13.5980    3.1030 O.co2     1 NA7501      0.0000 
     38 O2X        59.2610   15.9170    3.1950 O.co2     1 NA7501      0.0000 
     39 O3X        61.3490   15.2970    4.4170 O.co2     1 NA7501      0.0000 
@<TRIPOS>BOND
     1    1    2 ar   
     2    1    3 ar   
     3    1    4 1    
     4    1   23 1    
     5    4    5 1    
     6    5    6 1    
     7    6    7 1    
     8    6    8 1    
     9    7   12 1    
    10    8    9 1    
    11    8   10 1    
    12   10   11 1    
    13   10   12 1    
    14   11   36 1    
    15   12   13 1    
    16   13   14 1    
    17   13   22 1    
    18   14   15 2    
    19   15   16 1    
    20   16   17 ar   
    21   16   22 ar   
    22   17   18 1    
    23   17   19 ar   
    24   19   20 ar   
    25   20   21 ar   
    26   21   22 ar   
    27   23   24 1    
    28   24   25 ar   
    29   24   26 ar   
    30   24   27 1    
    31   27   28 1    
    32   28   29 1    
    33   29   30 1    
    34   29   31 1    
    35   30   35 1    
    36   31   32 1    
    37   31   33 1    
    38   33   34 1    
    39   33   35 1    
    40   36   37 ar   
    41   36   38 ar   
    42   36   39 ar   
@<TRIPOS>SUBSTRUCTURE
     1 NA7501      1 GROUP   
@<TRIPOS>SET

