#    Name: 6dzg_3_ADP_CAVITY_N1_4
#    Modification time : Fri May 22 19:24:17 2020

@<TRIPOS>MOLECULE
6dzg_3_ADP_CAVITY_N1_4
  102     0     7     0     0
SMALL
NO_CHARGES


@<TRIPOS>ATOM
      1 OG         43.4700    9.6200   57.2700 O.3       1 SER1        0.0000 
      2 OG         43.0800    8.3800   58.0100 O.3       1 SER1        0.0000 
      3 OG         42.6900    7.1400   58.7500 O.3       1 SER1        0.0000 
      4 OG         43.6100    8.9700   59.2900 O.3       1 SER1        0.0000 
      5 O          42.7100    6.6600   51.9000 O.2       2 ALA2        0.0000 
      6 O          42.3200    5.4100   52.6400 O.2       2 ALA2        0.0000 
      7 O          42.8500    6.0100   53.9100 O.2       2 ALA2        0.0000 
      8 O          44.5900    6.6600   52.8900 O.2       2 ALA2        0.0000 
      9 O          44.2000    5.4100   53.6300 O.2       2 ALA2        0.0000 
     10 O          42.9000   12.7000   56.0700 O.2       2 ALA2        0.0000 
     11 O          44.2500   12.1100   55.7900 O.2       2 ALA2        0.0000 
     12 O          43.4300   13.3000   57.3400 O.2       2 ALA2        0.0000 
     13 O          44.3900   11.4600   57.8000 O.2       2 ALA2        0.0000 
     14 O          45.7400   10.8700   57.5200 O.2       2 ALA2        0.0000 
     15 O          43.5700   12.6500   59.3600 O.2       2 ALA2        0.0000 
     16 O          44.9200   12.0500   59.0700 O.2       2 ALA2        0.0000 
     17 N          44.5300   10.8100   59.8200 N.am      2 ALA2        0.0000 
     18 N          44.1400    9.5700   60.5600 N.am      2 ALA2        0.0000 
     19 O          46.2700   11.4600   58.7900 O.2       2 ALA2        0.0000 
     20 N          45.4900    8.9700   60.2800 N.am      2 ALA2        0.0000 
     21 N          47.6200   10.8700   58.5100 N.am      2 ALA2        0.0000 
     22 N          45.4500   12.6500   60.3500 N.am      2 ALA2        0.0000 
     23 O          46.7900   12.0600   60.0600 O.2       2 ALA2        0.0000 
     24 N          47.3600    8.9800   61.2600 N.am      2 ALA2        0.0000 
     25 OD1        43.7700    7.8400   54.4400 O.co2     3 ASP3        0.0000 
     26 OD1        43.3800    6.6000   55.1800 O.co2     3 ASP3        0.0000 
     27 OD1        42.9900    5.3600   55.9300 O.co2     3 ASP3        0.0000 
     28 OD1        42.5900    4.1100   56.6700 O.co2     3 ASP3        0.0000 
     29 OD1        45.1100    7.2500   54.1600 O.co2     3 ASP3        0.0000 
     30 OD1        44.7200    6.0100   54.9000 O.co2     3 ASP3        0.0000 
     31 OD1        44.6800    9.6800   54.9700 O.co2     3 ASP3        0.0000 
     32 OD1        44.2900    8.4400   55.7200 O.co2     3 ASP3        0.0000 
     33 OD1        43.9000    7.1900   56.4600 O.co2     3 ASP3        0.0000 
     34 OD1        43.5100    5.9500   57.2000 O.co2     3 ASP3        0.0000 
     35 OD1        45.2100   10.2700   56.2500 O.co2     3 ASP3        0.0000 
     36 OD1        44.8200    9.0300   56.9900 O.co2     3 ASP3        0.0000 
     37 OD1        44.4300    7.7900   57.7300 O.co2     3 ASP3        0.0000 
     38 OD1        44.0400    6.5400   58.4700 O.co2     3 ASP3        0.0000 
     39 OD1        46.1700    8.4400   56.7100 O.co2     3 ASP3        0.0000 
     40 OD1        45.7800    7.2000   57.4500 O.co2     3 ASP3        0.0000 
     41 OD1        44.5700    7.1400   59.7400 O.co2     3 ASP3        0.0000 
     42 OD1        47.0900   10.2800   57.2400 O.co2     3 ASP3        0.0000 
     43 OD1        46.7000    9.0300   57.9800 O.co2     3 ASP3        0.0000 
     44 OD1        46.3100    7.7900   58.7200 O.co2     3 ASP3        0.0000 
     45 OD1        45.9200    6.5400   59.4600 O.co2     3 ASP3        0.0000 
     46 OD1        48.0500    8.4400   57.6900 O.co2     3 ASP3        0.0000 
     47 OD1        47.6600    7.2000   58.4400 O.co2     3 ASP3        0.0000 
     48 OD1        46.4400    7.1400   60.7300 O.co2     3 ASP3        0.0000 
     49 OD1        48.1800    7.7900   59.7100 O.co2     3 ASP3        0.0000 
     50 OD1        46.9700    7.7300   62.0100 O.co2     3 ASP3        0.0000 
     51 NZ         45.1000    7.7300   61.0200 N.4       4 LYS4        0.0000 
     52 NZ         48.5700    9.0300   58.9700 N.4       4 LYS4        0.0000 
     53 CZ         40.4400    5.4100   51.6500 C.ar      5 PHE5        0.0000 
     54 CZ         39.6200    6.6000   53.2100 C.ar      5 PHE5        0.0000 
     55 CZ         48.1400   11.4600   59.7800 C.ar      5 PHE5        0.0000 
     56 CZ         47.7500   10.2200   60.5200 C.ar      5 PHE5        0.0000 
     57 CA         40.9700    6.0100   52.9200 C.3       6 GLY6        0.0000 
     58 CA         39.1900    9.0300   54.0200 C.3       6 GLY6        0.0000 
     59 CA         40.5400    8.4400   53.7400 C.3       6 GLY6        0.0000 
     60 CA         41.5000    6.6000   54.1900 C.3       6 GLY6        0.0000 
     61 CA         41.1100    5.3600   54.9400 C.3       6 GLY6        0.0000 
     62 CA         42.4600    4.7600   54.6500 C.3       6 GLY6        0.0000 
     63 CA         39.7200    9.6200   55.2900 C.3       6 GLY6        0.0000 
     64 CA         41.0700    9.0300   55.0100 C.3       6 GLY6        0.0000 
     65 CA         42.0300    7.1900   55.4700 C.3       6 GLY6        0.0000 
     66 CA         41.6400    5.9500   56.2100 C.3       6 GLY6        0.0000 
     67 CA         41.2500    4.7000   56.9500 C.3       6 GLY6        0.0000 
     68 CA         44.1600    9.0900   53.7000 C.3       6 GLY6        0.0000 
     69 CA         40.2500   10.2100   56.5600 C.3       6 GLY6        0.0000 
     70 CA         41.6000    9.6200   56.2800 C.3       6 GLY6        0.0000 
     71 CA         41.2100    8.3800   57.0200 C.3       6 GLY6        0.0000 
     72 CA         43.7300   11.5200   54.5100 C.3       6 GLY6        0.0000 
     73 CA         43.3400   10.2700   55.2600 C.3       6 GLY6        0.0000 
     74 CA         42.5500    7.7900   56.7400 C.3       6 GLY6        0.0000 
     75 CA         42.1600    6.5400   57.4800 C.3       6 GLY6        0.0000 
     76 CA         41.7700    5.3000   58.2200 C.3       6 GLY6        0.0000 
     77 CA         41.1700   12.0500   57.0900 C.3       6 GLY6        0.0000 
     78 CA         42.5100   11.4600   56.8100 C.3       6 GLY6        0.0000 
     79 CA         42.1200   10.2200   57.5500 C.3       6 GLY6        0.0000 
     80 CA         41.6900   12.6500   58.3700 C.3       6 GLY6        0.0000 
     81 CA         43.0400   12.0500   58.0800 C.3       6 GLY6        0.0000 
     82 CA         44.0000   10.2200   58.5400 C.3       6 GLY6        0.0000 
     83 CA         43.1800   11.4000   60.1000 C.3       6 GLY6        0.0000 
     84 CA         46.4000   10.8100   60.8100 C.3       6 GLY6        0.0000 
     85 DU         40.0100    7.8400   52.4600 H         7 CUB7        0.0000 
     86 DU         41.3600    7.2500   52.1800 H         7 CUB7        0.0000 
     87 DU         39.5800   10.2700   53.2800 H         7 CUB7        0.0000 
     88 DU         40.9300    9.6800   52.9900 H         7 CUB7        0.0000 
     89 DU         41.8900    7.8400   53.4500 H         7 CUB7        0.0000 
     90 DU         43.2400    7.2500   53.1700 H         7 CUB7        0.0000 
     91 DU         40.1100   10.8600   54.5500 H         7 CUB7        0.0000 
     92 DU         42.4200    8.4400   54.7300 H         7 CUB7        0.0000 
     93 DU         40.6400   11.4600   55.8200 H         7 CUB7        0.0000 
     94 DU         42.3800   12.1100   54.8000 H         7 CUB7        0.0000 
     95 DU         41.9900   10.8700   55.5400 H         7 CUB7        0.0000 
     96 DU         42.9400    9.0300   56.0000 H         7 CUB7        0.0000 
     97 DU         43.8600   10.8700   56.5300 H         7 CUB7        0.0000 
     98 DU         45.3500    9.6200   58.2600 H         7 CUB7        0.0000 
     99 DU         44.9600    8.3800   59.0000 H         7 CUB7        0.0000 
    100 DU         45.8800   10.2200   59.5300 H         7 CUB7        0.0000 
    101 DU         47.2200    9.6300   59.2500 H         7 CUB7        0.0000 
    102 DU         46.8300    8.3800   59.9900 H         7 CUB7        0.0000 
@<TRIPOS>BOND
@<TRIPOS>SUBSTRUCTURE
     1 SER1        1 GROUP   
     2 ALA2        5 GROUP   
     3 ASP3       25 GROUP   
     4 LYS4       51 GROUP   
     5 PHE5       53 GROUP   
     6 GLY6       57 GROUP   
     7 CUB7       85 GROUP   
@<TRIPOS>SET

