#    Name: 6dzg_2_ADP
#    Modification time : Fri May 22 19:24:07 2020

@<TRIPOS>MOLECULE
6dzg_2_ADP
   27    29     1     0     1
SMALL
NO_CHARGES


@<TRIPOS>ATOM
      1 PB         63.4550    8.6090   15.9360 P.3       1 ADP401      0.0000 
      2 O1B        63.5870    8.3870   14.4370 O.co2     1 ADP401      0.0000 
      3 O2B        63.1540    7.3390   16.5820 O.co2     1 ADP401      0.0000 
      4 O3B        62.3510    9.5630   16.1860 O.co2     1 ADP401      0.0000 
      5 PA         66.2820    8.4330   16.5830 P.3       1 ADP401      0.0000 
      6 O1A        66.5200    7.6760   15.3060 O.co2     1 ADP401      0.0000 
      7 O2A        67.4080    9.4600   16.8380 O.co2     1 ADP401      0.0000 
      8 O3A        64.8210    9.2230   16.5170 O.3       1 ADP401      0.0000 
      9 O5'        66.3070    7.3350   17.8590 O.3       1 ADP401      0.0000 
     10 C5'        65.7660    6.0110   17.7160 C.3       1 ADP401      0.0000 
     11 C4'        65.4420    5.4950   19.1440 C.3       1 ADP401      0.0000 
     12 O4'        66.6680    5.3600   19.9060 O.3       1 ADP401      0.0000 
     13 C3'        64.6550    6.5800   19.9010 C.3       1 ADP401      0.0000 
     14 O3'        63.6250    6.0060   20.7110 O.3       1 ADP401      0.0000 
     15 C2'        65.7890    7.1870   20.7770 C.3       1 ADP401      0.0000 
     16 O2'        65.2350    7.8680   21.9720 O.3       1 ADP401      0.0000 
     17 C1'        66.5780    6.1800   21.0640 C.3       1 ADP401      0.0000 
     18 N9         67.8780    6.7050   21.4100 N.pl3     1 ADP401      0.0000 
     19 C8         68.6150    7.5480   20.6760 C.2       1 ADP401      0.0000 
     20 N7         69.7530    7.8380   21.3370 N.2       1 ADP401      0.0000 
     21 C5         69.7450    7.1750   22.5110 C.ar      1 ADP401      0.0000 
     22 C6         70.6260    7.0940   23.5680 C.ar      1 ADP401      0.0000 
     23 N6         71.8950    7.8340   23.5590 N.pl3     1 ADP401      0.0000 
     24 N1         70.3210    6.3350   24.6200 N.ar      1 ADP401      0.0000 
     25 C2         69.1660    5.6400   24.6600 C.ar      1 ADP401      0.0000 
     26 N3         68.2820    5.6940   23.6380 N.ar      1 ADP401      0.0000 
     27 C4         68.5470    6.4550   22.5600 C.ar      1 ADP401      0.0000 
@<TRIPOS>BOND
     1    1    2 ar   
     2    1    3 ar   
     3    1    4 ar   
     4    1    8 1    
     5    5    6 ar   
     6    5    7 ar   
     7    5    8 1    
     8    5    9 1    
     9    9   10 1    
    10   10   11 1    
    11   11   12 1    
    12   11   13 1    
    13   12   17 1    
    14   13   14 1    
    15   13   15 1    
    16   15   16 1    
    17   15   17 1    
    18   17   18 1    
    19   18   19 1    
    20   18   27 1    
    21   19   20 2    
    22   20   21 1    
    23   21   22 ar   
    24   21   27 ar   
    25   22   23 1    
    26   22   24 ar   
    27   24   25 ar   
    28   25   26 ar   
    29   26   27 ar   
@<TRIPOS>SUBSTRUCTURE
     1 ADP401      1 GROUP   
@<TRIPOS>SET
ATOM$ORANGE STATIC     ATOMS   COLORGROUP SYSTEM 
20 10 10 11 11 13 13 15 15 17 17 19 19 21 21 22 22 25 \
25 27 27 

