#    Name: 6dzg_1_ADP
#    Modification time : Fri May 22 19:23:58 2020

@<TRIPOS>MOLECULE
6dzg_1_ADP
   27    29     1     0     1
SMALL
NO_CHARGES


@<TRIPOS>ATOM
      1 PB         37.0940   19.2890   21.8590 P.3       1 ADP401      0.0000 
      2 O1B        35.9190   19.1690   20.9020 O.co2     1 ADP401      0.0000 
      3 O2B        37.7600   20.5690   21.6400 O.co2     1 ADP401      0.0000 
      4 O3B        38.0520   18.1870   21.5830 O.co2     1 ADP401      0.0000 
      5 PA         35.0170   19.3140   23.9140 P.3       1 ADP401      0.0000 
      6 O1A        34.1340   19.8540   22.8280 O.co2     1 ADP401      0.0000 
      7 O2A        34.5260   17.9420   24.4080 O.co2     1 ADP401      0.0000 
      8 O3A        36.5880   19.1920   23.3830 O.3       1 ADP401      0.0000 
      9 O5'        34.9460   20.4000   25.2000 O.3       1 ADP401      0.0000 
     10 C5'        35.3810   21.7350   24.9070 C.3       1 ADP401      0.0000 
     11 C4'        36.2280   22.2350   26.1030 C.3       1 ADP401      0.0000 
     12 O4'        35.4020   22.3460   27.2890 O.3       1 ADP401      0.0000 
     13 C3'        37.2910   21.1820   26.4710 C.3       1 ADP401      0.0000 
     14 O3'        38.5300   21.8480   26.7330 O.3       1 ADP401      0.0000 
     15 C2'        36.6830   20.6160   27.7840 C.3       1 ADP401      0.0000 
     16 O2'        37.7550   20.0780   28.6650 O.3       1 ADP401      0.0000 
     17 C1'        36.0340   21.6210   28.3310 C.3       1 ADP401      0.0000 
     18 N9         35.0560   21.1210   29.2820 N.pl3     1 ADP401      0.0000 
     19 C8         34.0840   20.2320   29.0330 C.2       1 ADP401      0.0000 
     20 N7         33.3900   19.9850   30.1610 N.2       1 ADP401      0.0000 
     21 C5         33.9230   20.7260   31.1390 C.ar      1 ADP401      0.0000 
     22 C6         33.6260   20.8630   32.4650 C.ar      1 ADP401      0.0000 
     23 N6         32.5160   20.1000   33.0270 N.pl3     1 ADP401      0.0000 
     24 N1         34.3550   21.6810   33.2280 N.ar      1 ADP401      0.0000 
     25 C2         35.3780   22.3860   32.6980 C.ar      1 ADP401      0.0000 
     26 N3         35.6900   22.2760   31.3850 N.ar      1 ADP401      0.0000 
     27 C4         34.9850   21.4490   30.5900 C.ar      1 ADP401      0.0000 
@<TRIPOS>BOND
     1    1    2 ar   
     2    1    3 ar   
     3    1    4 ar   
     4    1    8 1    
     5    5    6 ar   
     6    5    7 ar   
     7    5    8 1    
     8    5    9 1    
     9    9   10 1    
    10   10   11 1    
    11   11   12 1    
    12   11   13 1    
    13   12   17 1    
    14   13   14 1    
    15   13   15 1    
    16   15   16 1    
    17   15   17 1    
    18   17   18 1    
    19   18   19 1    
    20   18   27 1    
    21   19   20 2    
    22   20   21 1    
    23   21   22 ar   
    24   21   27 ar   
    25   22   23 1    
    26   22   24 ar   
    27   24   25 ar   
    28   25   26 ar   
    29   26   27 ar   
@<TRIPOS>SUBSTRUCTURE
     1 ADP401      1 GROUP   
@<TRIPOS>SET
ATOM$ORANGE STATIC     ATOMS   COLORGROUP SYSTEM 
20 10 10 11 11 13 13 15 15 17 17 19 19 21 21 22 22 25 \
25 27 27 

