#    Name: 6dzg_3_ADP
#    Modification time : Fri May 22 19:24:15 2020

@<TRIPOS>MOLECULE
6dzg_3_ADP
   27    29     1     0     1
SMALL
NO_CHARGES


@<TRIPOS>ATOM
      1 PB         44.9860    9.6250   57.4460 P.3       1 ADP401      0.0000 
      2 O1B        45.3350    8.4260   56.6980 O.co2     1 ADP401      0.0000 
      3 O2B        45.8660   10.7440   57.0420 O.co2     1 ADP401      0.0000 
      4 O3B        45.1800    9.3540   58.9310 O.co2     1 ADP401      0.0000 
      5 PA         42.2370    8.9680   56.8410 P.3       1 ADP401      0.0000 
      6 O1A        40.9710    9.7350   56.3930 O.co2     1 ADP401      0.0000 
      7 O2A        41.9510    8.1350   58.0580 O.co2     1 ADP401      0.0000 
      8 O3A        43.4600   10.0400   57.1730 O.3       1 ADP401      0.0000 
      9 O5'        42.7190    7.9710   55.5770 O.3       1 ADP401      0.0000 
     10 C5'        42.9780    6.5730   55.7730 C.3       1 ADP401      0.0000 
     11 C4'        43.2870    5.9850   54.3710 C.3       1 ADP401      0.0000 
     12 O4'        42.0540    5.7800   53.6340 O.3       1 ADP401      0.0000 
     13 C3'        44.0370    7.0640   53.5740 C.3       1 ADP401      0.0000 
     14 O3'        45.0980    6.4930   52.8090 O.3       1 ADP401      0.0000 
     15 C2'        42.9050    7.5900   52.6480 C.3       1 ADP401      0.0000 
     16 O2'        43.4930    8.1470   51.4050 O.3       1 ADP401      0.0000 
     17 C1'        42.0940    6.5690   52.4500 C.3       1 ADP401      0.0000 
     18 N9         40.7740    7.0630   52.0900 N.pl3     1 ADP401      0.0000 
     19 C8         40.0140    7.9120   52.7910 C.2       1 ADP401      0.0000 
     20 N7         38.8750    8.1570   52.1140 N.2       1 ADP401      0.0000 
     21 C5         38.9130    7.4640   50.9610 C.ar      1 ADP401      0.0000 
     22 C6         38.0440    7.3310   49.9020 C.ar      1 ADP401      0.0000 
     23 N6         36.7640    8.0490   49.8970 N.pl3     1 ADP401      0.0000 
     24 N1         38.3740    6.5460   48.8690 N.ar      1 ADP401      0.0000 
     25 C2         39.5460    5.8750   48.8530 C.ar      1 ADP401      0.0000 
     26 N3         40.4150    5.9830   49.8870 N.ar      1 ADP401      0.0000 
     27 C4         40.1230    6.7680   50.9440 C.ar      1 ADP401      0.0000 
@<TRIPOS>BOND
     1    1    2 ar   
     2    1    3 ar   
     3    1    4 ar   
     4    1    8 1    
     5    5    6 ar   
     6    5    7 ar   
     7    5    8 1    
     8    5    9 1    
     9    9   10 1    
    10   10   11 1    
    11   11   12 1    
    12   11   13 1    
    13   12   17 1    
    14   13   14 1    
    15   13   15 1    
    16   15   16 1    
    17   15   17 1    
    18   17   18 1    
    19   18   19 1    
    20   18   27 1    
    21   19   20 2    
    22   20   21 1    
    23   21   22 ar   
    24   21   27 ar   
    25   22   23 1    
    26   22   24 ar   
    27   24   25 ar   
    28   25   26 ar   
    29   26   27 ar   
@<TRIPOS>SUBSTRUCTURE
     1 ADP401      1 GROUP   
@<TRIPOS>SET
ATOM$ORANGE STATIC     ATOMS   COLORGROUP SYSTEM 
20 10 10 11 11 13 13 15 15 17 17 19 19 21 21 22 22 25 \
25 27 27 

