#    Name: 6dzg_4_AMP
#    Modification time : Fri May 22 19:24:24 2020

@<TRIPOS>MOLECULE
6dzg_4_AMP
   23    25     1     0     1
SMALL
NO_CHARGES


@<TRIPOS>ATOM
      1 P          73.4600   19.7520   49.2140 P.3       1 AMP401      0.0000 
      2 O1P        73.9730   18.4000   48.7910 O.co2     1 AMP401      0.0000 
      3 O2P        72.1110   19.8390   49.8910 O.co2     1 AMP401      0.0000 
      4 O3P        74.4450   20.4200   50.1390 O.co2     1 AMP401      0.0000 
      5 O5'        73.4310   20.6000   47.8620 O.3       1 AMP401      0.0000 
      6 C5'        73.2950   22.0170   47.8890 C.3       1 AMP401      0.0000 
      7 C4'        72.3430   22.4840   46.8210 C.3       1 AMP401      0.0000 
      8 O4'        73.0780   22.6230   45.5720 O.3       1 AMP401      0.0000 
      9 C3'        71.1970   21.5100   46.5360 C.3       1 AMP401      0.0000 
     10 O3'        70.0230   22.2430   46.1860 O.3       1 AMP401      0.0000 
     11 C2'        71.7060   20.7460   45.3160 C.3       1 AMP401      0.0000 
     12 O2'        70.7010   20.1690   44.5110 O.3       1 AMP401      0.0000 
     13 C1'        72.4640   21.8390   44.5700 C.3       1 AMP401      0.0000 
     14 N9         73.4690   21.3100   43.6350 N.pl3     1 AMP401      0.0000 
     15 C8         74.4170   20.4110   43.9170 C.2       1 AMP401      0.0000 
     16 N7         75.0990   20.1430   42.7920 N.2       1 AMP401      0.0000 
     17 C5         74.5660   20.8660   41.7980 C.ar      1 AMP401      0.0000 
     18 C6         74.8670   20.9710   40.4510 C.ar      1 AMP401      0.0000 
     19 N6         75.9590   20.2120   39.8680 N.pl3     1 AMP401      0.0000 
     20 N1         74.1600   21.7720   39.6800 N.ar      1 AMP401      0.0000 
     21 C2         73.1440   22.4940   40.2040 C.ar      1 AMP401      0.0000 
     22 N3         72.8500   22.3980   41.5230 N.ar      1 AMP401      0.0000 
     23 C4         73.5540   21.5730   42.3180 C.ar      1 AMP401      0.0000 
@<TRIPOS>BOND
     1    1    2 ar   
     2    1    3 ar   
     3    1    4 ar   
     4    1    5 1    
     5    5    6 1    
     6    6    7 1    
     7    7    8 1    
     8    7    9 1    
     9    8   13 1    
    10    9   10 1    
    11    9   11 1    
    12   11   12 1    
    13   11   13 1    
    14   13   14 1    
    15   14   15 1    
    16   14   23 1    
    17   15   16 2    
    18   16   17 1    
    19   17   18 ar   
    20   17   23 ar   
    21   18   19 1    
    22   18   20 ar   
    23   20   21 ar   
    24   21   22 ar   
    25   22   23 ar   
@<TRIPOS>SUBSTRUCTURE
     1 AMP401      1 GROUP   
@<TRIPOS>SET
ATOM$ORANGE STATIC     ATOMS   COLORGROUP SYSTEM 
20 6 6 7 7 9 9 11 11 13 13 15 15 17 17 18 18 21 \
21 23 23 

