#    Name: 5wkr_1_NAR
#    Modification time : Fri May 22 19:13:58 2020

@<TRIPOS>MOLECULE
5wkr_1_NAR
   32    34     1     0     0
SMALL
NO_CHARGES


@<TRIPOS>ATOM
      1 C1          5.8110  -28.5390   21.5640 C.ar      1 NAR301      0.0000 
      2 C2          6.5980  -29.2320   22.5220 C.ar      1 NAR301      0.0000 
      3 C3          7.5000  -30.2190   22.0920 C.ar      1 NAR301      0.0000 
      4 C4          7.6360  -30.5210   20.7370 C.ar      1 NAR301      0.0000 
      5 C5          6.8690  -29.8410   19.8060 C.ar      1 NAR301      0.0000 
      6 C6          5.9560  -28.8510   20.1900 C.ar      1 NAR301      0.0000 
      7 C7          7.0020  -30.1270   18.3400 C.2       1 NAR301      0.0000 
      8 C8          7.0360  -28.9880   17.4750 C.3       1 NAR301      0.0000 
      9 C9          5.9260  -27.9870   17.7840 C.3       1 NAR301      0.0000 
     10 O1          5.2280  -28.2270   19.0310 O.3       1 NAR301      0.0000 
     11 O2          7.0870  -31.2620   17.9110 O.2       1 NAR301      0.0000 
     12 C10         4.9650  -27.8500   16.5760 C.ar      1 NAR301      0.0000 
     13 C11         4.8760  -28.7750   15.5340 C.ar      1 NAR301      0.0000 
     14 C12         4.0020  -28.5850   14.4630 C.ar      1 NAR301      0.0000 
     15 C13         3.2020  -27.4550   14.4190 C.ar      1 NAR301      0.0000 
     16 C14         3.2840  -26.5240   15.4400 C.ar      1 NAR301      0.0000 
     17 C15         4.1640  -26.7220   16.4990 C.ar      1 NAR301      0.0000 
     18 O3          2.3120  -27.2450   13.3560 O.3       1 NAR301      0.0000 
     19 O4          6.5330  -29.0200   23.9200 O.3       1 NAR301      0.0000 
     20 O5          8.5400  -31.4970   20.2870 O.co2     1 NAR301      0.0000 
     21 H11         5.1760  -27.8540   21.8510 H         1 NAR301      0.0000 
     22 H31         8.0370  -30.7000   22.7490 H         1 NAR301      0.0000 
     23 H81         7.0860  -29.1270   16.5070 H         1 NAR301      0.0000 
     24 H82         7.9140  -28.5820   17.6320 H         1 NAR301      0.0000 
     25 H9          6.3640  -27.1190   17.8830 H         1 NAR301      0.0000 
     26 H111        5.4360  -29.5750   15.5570 H         1 NAR301      0.0000 
     27 H121        3.9490  -29.2510   13.7500 H         1 NAR301      0.0000 
     28 H141        2.7250  -25.7240   15.4150 H         1 NAR301      0.0000 
     29 H151        4.2090  -26.0570   17.2120 H         1 NAR301      0.0000 
     30 HO3         1.9520  -28.0190   13.1140 H         1 NAR301      0.0000 
     31 H41         6.9630  -28.2690   24.1270 H         1 NAR301      0.0000 
     32 H51         9.2250  -31.1020   19.8800 H         1 NAR301      0.0000 
@<TRIPOS>BOND
     1    1    2 ar   
     2    1    6 ar   
     3    1   21 1    
     4    2    3 ar   
     5    2   19 1    
     6    3    4 ar   
     7    3   22 1    
     8    4    5 ar   
     9    4   20 ar   
    10   20   32 1    
    11    5    6 ar   
    12    5    7 1    
    13    6   10 1    
    14    7    8 1    
    15    7   11 2    
    16    8    9 1    
    17    8   23 1    
    18    8   24 1    
    19    9   10 1    
    20    9   12 1    
    21    9   25 1    
    22   12   13 ar   
    23   12   17 ar   
    24   13   14 ar   
    25   13   26 1    
    26   14   15 ar   
    27   14   27 1    
    28   15   16 ar   
    29   15   18 1    
    30   18   30 1    
    31   16   17 ar   
    32   16   28 1    
    33   17   29 1    
    34   19   31 1    
@<TRIPOS>SUBSTRUCTURE
     1 NAR301      1 GROUP   
@<TRIPOS>SET

