#    Name: 6rto_1_FAD
#    Modification time : Fri May 22 19:25:36 2020

@<TRIPOS>MOLECULE
6rto_1_FAD
   84    89     1     0     1
SMALL
NO_CHARGES


@<TRIPOS>ATOM
      1 PA        164.3730    6.1320   14.9670 P.3       1 FAD601      0.0000 
      2 O1A       163.9340    5.4190   16.1620 O.co2     1 FAD601      0.0000 
      3 O2A       163.6060    5.8010   13.6170 O.co2     1 FAD601      0.0000 
      4 O5B       165.9390    5.9510   14.7570 O.3       1 FAD601      0.0000 
      5 C5B       166.8890    6.2760   15.8010 C.3       1 FAD601      0.0000 
      6 C4B       168.1460    5.4630   15.5290 C.3       1 FAD601      0.0000 
      7 O4B       169.3030    5.9510   16.2630 O.3       1 FAD601      0.0000 
      8 C3B       168.0470    3.9700   15.8630 C.3       1 FAD601      0.0000 
      9 O3B       168.5810    3.2660   14.7440 O.3       1 FAD601      0.0000 
     10 C2B       168.8650    3.8640   17.1640 C.3       1 FAD601      0.0000 
     11 O2B       169.3470    2.5420   17.4080 O.3       1 FAD601      0.0000 
     12 C1B       169.9700    4.8610   16.8540 C.3       1 FAD601      0.0000 
     13 N9A       170.7160    5.3480   17.9890 N.pl3     1 FAD601      0.0000 
     14 C8A       170.2540    5.5740   19.2560 C.2       1 FAD601      0.0000 
     15 N7A       171.1660    6.0400   20.0760 N.2       1 FAD601      0.0000 
     16 C5A       172.3100    6.1250   19.2830 C.ar      1 FAD601      0.0000 
     17 C6A       173.6370    6.5350   19.5480 C.ar      1 FAD601      0.0000 
     18 N6A       174.0530    6.9880   20.7300 N.pl3     1 FAD601      0.0000 
     19 N1A       174.5360    6.4730   18.5320 N.ar      1 FAD601      0.0000 
     20 C2A       174.1210    6.0490   17.3350 C.ar      1 FAD601      0.0000 
     21 N3A       172.9080    5.6310   16.9710 N.ar      1 FAD601      0.0000 
     22 C4A       172.0470    5.6840   18.0000 C.ar      1 FAD601      0.0000 
     23 N1        155.0890    6.0920   12.6920 N.2       1 FAD601      0.0000 
     24 C2        154.3180    6.3190   11.5880 C.2       1 FAD601      0.0000 
     25 O2        154.3310    7.3830   10.9710 O.2       1 FAD601      0.0000 
     26 N3        153.4900    5.2970   11.1000 N.am      1 FAD601      0.0000 
     27 C4        153.3640    4.0180   11.6380 C.2       1 FAD601      0.0000 
     28 O4        152.6210    3.1880   11.1170 O.2       1 FAD601      0.0000 
     29 C4X       154.1750    3.7840   12.7970 C.2       1 FAD601      0.0000 
     30 N5        154.1160    2.6020   13.3510 N.2       1 FAD601      0.0000 
     31 C5X       154.9100    2.3780   14.4840 C.ar      1 FAD601      0.0000 
     32 C6        154.8350    1.1360   15.1050 C.ar      1 FAD601      0.0000 
     33 C7        155.5960    0.8440   16.2240 C.ar      1 FAD601      0.0000 
     34 C7M       155.5060   -0.5360   16.8290 C.3       1 FAD601      0.0000 
     35 C8        156.4440    1.8270   16.7600 C.ar      1 FAD601      0.0000 
     36 C8M       157.3020    1.5430   17.9540 C.3       1 FAD601      0.0000 
     37 C9        156.5300    3.0750   16.1450 C.ar      1 FAD601      0.0000 
     38 C9A       155.7750    3.3580   15.0080 C.ar      1 FAD601      0.0000 
     39 N10       155.7640    4.6350   14.4020 N.pl3     1 FAD601      0.0000 
     40 C10       155.0050    4.8740   13.2680 C.2       1 FAD601      0.0000 
     41 C1'       156.6860    5.6820   14.8420 C.3       1 FAD601      0.0000 
     42 C2'       157.9860    5.7090   13.9860 C.3       1 FAD601      0.0000 
     43 O2'       158.6440    4.4330   13.9110 O.3       1 FAD601      0.0000 
     44 C3'       158.9720    6.7320   14.5610 C.3       1 FAD601      0.0000 
     45 O3'       158.2470    7.9610   14.6170 O.3       1 FAD601      0.0000 
     46 C4'       160.3110    6.9000   13.8190 C.3       1 FAD601      0.0000 
     47 O4'       161.0030    5.6550   13.6730 O.3       1 FAD601      0.0000 
     48 C5'       161.1790    7.8320   14.6460 C.3       1 FAD601      0.0000 
     49 O5'       162.2690    8.3410   13.8510 O.3       1 FAD601      0.0000 
     50 P         163.5370    8.9840   14.5400 P.3       1 FAD601      0.0000 
     51 O1P       164.3630    9.5920   13.3980 O.co2     1 FAD601      0.0000 
     52 O2P       163.0820    9.9160   15.5920 O.co2     1 FAD601      0.0000 
     53 O3P       164.3020    7.7040   15.2330 O.3       1 FAD601      0.0000 
     54 H51A      166.5350    6.0510   16.6410 H         1 FAD601      0.0000 
     55 H52A      167.0890    7.1940   15.7810 H         1 FAD601      0.0000 
     56 H4B       168.3530    5.5700   14.6200 H         1 FAD601      0.0000 
     57 H3B       167.1800    3.6740   16.0690 H         1 FAD601      0.0000 
     58 HO3A      168.0820    2.6410   14.5210 H         1 FAD601      0.0000 
     59 H2B       168.3760    4.1450   17.9140 H         1 FAD601      0.0000 
     60 HO2A      169.2340    2.3500   18.2120 H         1 FAD601      0.0000 
     61 H1B       170.5810    4.4700   16.2570 H         1 FAD601      0.0000 
     62 H8A       169.3710    5.4260   19.5050 H         1 FAD601      0.0000 
     63 H61A      174.2890    7.8180   20.8080 H         1 FAD601      0.0000 
     64 H62A      174.1130    6.4500   21.4060 H         1 FAD601      0.0000 
     65 H2A       174.7630    6.0320   16.6700 H         1 FAD601      0.0000 
     66 HN3       153.0260    5.4720   10.3880 H         1 FAD601      0.0000 
     67 H6        154.2270    0.5970   14.6550 H         1 FAD601      0.0000 
     68 HM71      155.1820   -1.1390   16.1870 H         1 FAD601      0.0000 
     69 HM72      154.9220   -0.5180   17.5650 H         1 FAD601      0.0000 
     70 HM73      156.3590   -0.8090   17.1130 H         1 FAD601      0.0000 
     71 HM81      158.1890    1.4100   17.6780 H         1 FAD601      0.0000 
     72 HM82      156.9900    0.7700   18.3870 H         1 FAD601      0.0000 
     73 HM83      157.2630    2.2700   18.5470 H         1 FAD601      0.0000 
     74 H9        156.8690    3.6230   16.8130 H         1 FAD601      0.0000 
     75 H1'1      156.9160    5.5270   15.7390 H         1 FAD601      0.0000 
     76 H1'2      156.2580    6.5140   14.7690 H         1 FAD601      0.0000 
     77 H2'       157.7280    5.9560   13.1180 H         1 FAD601      0.0000 
     78 HO2'      158.1640    3.8850   13.5080 H         1 FAD601      0.0000 
     79 H3'       159.2340    6.4710   15.4250 H         1 FAD601      0.0000 
     80 HO3'      157.9500    8.0850   15.3840 H         1 FAD601      0.0000 
     81 H4'       160.1440    7.2100   12.9490 H         1 FAD601      0.0000 
     82 HO4'      161.5260    5.7190   13.0290 H         1 FAD601      0.0000 
     83 H5'1      160.6570    8.5500   14.9530 H         1 FAD601      0.0000 
     84 H5'2      161.5260    7.3610   15.3810 H         1 FAD601      0.0000 
@<TRIPOS>BOND
     1    1    2 ar   
     2    1    3 ar   
     3    1    4 1    
     4    1   53 1    
     5    4    5 1    
     6    5    6 1    
     7    6    7 1    
     8    5   54 1    
     9    5   55 1    
    10    6    8 1    
    11    7   12 1    
    12    6   56 1    
    13    8    9 1    
    14    8   10 1    
    15   10   11 1    
    16    8   57 1    
    17    9   58 1    
    18   10   12 1    
    19   12   13 1    
    20   10   59 1    
    21   11   60 1    
    22   13   14 1    
    23   12   61 1    
    24   13   22 1    
    25   14   15 2    
    26   15   16 1    
    27   14   62 1    
    28   16   17 ar   
    29   16   22 ar   
    30   17   18 1    
    31   17   19 ar   
    32   19   20 ar   
    33   18   63 1    
    34   18   64 1    
    35   20   21 ar   
    36   21   22 ar   
    37   20   65 1    
    38   23   24 1    
    39   23   40 2    
    40   24   25 2    
    41   24   26 am   
    42   26   27 am   
    43   27   28 2    
    44   26   66 1    
    45   27   29 1    
    46   29   30 2    
    47   29   40 1    
    48   30   31 1    
    49   31   32 ar   
    50   31   38 ar   
    51   32   33 ar   
    52   33   34 1    
    53   32   67 1    
    54   33   35 ar   
    55   35   36 1    
    56   34   68 1    
    57   34   69 1    
    58   34   70 1    
    59   35   37 ar   
    60   37   74 1    
    61   37   38 ar   
    62   36   71 1    
    63   36   72 1    
    64   36   73 1    
    65   38   39 1    
    66   39   40 1    
    67   39   41 1    
    68   41   42 1    
    69   42   43 1    
    70   41   75 1    
    71   41   76 1    
    72   42   44 1    
    73   44   45 1    
    74   42   77 1    
    75   43   78 1    
    76   44   46 1    
    77   46   47 1    
    78   44   79 1    
    79   45   80 1    
    80   46   48 1    
    81   48   49 1    
    82   46   81 1    
    83   47   82 1    
    84   49   50 1    
    85   48   83 1    
    86   48   84 1    
    87   50   51 ar   
    88   50   52 ar   
    89   50   53 1    
@<TRIPOS>SUBSTRUCTURE
     1 FAD601      1 GROUP   
@<TRIPOS>SET
ATOM$ORANGE STATIC     ATOMS   COLORGROUP SYSTEM 
54 5 5 6 6 8 8 10 10 12 12 14 14 16 16 17 17 20 \
20 22 22 24 24 27 27 29 29 31 31 32 32 33 33 34 34 35 \
35 36 36 37 37 38 38 40 40 41 41 42 42 44 44 46 46 48 \
48 

