#    Name: 5zcu_2_PYV
#    Modification time : Fri May 22 19:25:36 2020

@<TRIPOS>MOLECULE
5zcu_2_PYV
   22    24     1     0     0
SMALL
NO_CHARGES


@<TRIPOS>ATOM
      1 S         -28.3930   24.9780   94.7450 S.o2      1 PYV301      0.0000 
      2 BR        -23.4400   26.2710   90.7610 Br        1 PYV301      0.0000 
      3 C1        -24.8500   26.0950   92.0810 C.ar      1 PYV301      0.0000 
      4 N1        -29.6140   26.1690   94.6460 N.pl3     1 PYV301      0.0000 
      5 O1        -28.0560   24.6610   96.1340 O.2       1 PYV301      0.0000 
      6 C2        -25.0940   26.9550   93.1660 C.ar      1 PYV301      0.0000 
      7 N2        -30.1950   29.0230   93.2220 N.ar      1 PYV301      0.0000 
      8 O2        -28.8620   23.6820   94.2480 O.2       1 PYV301      0.0000 
      9 C3        -26.1360   26.6940   94.0190 C.ar      1 PYV301      0.0000 
     10 C4        -26.9530   25.5720   93.8120 C.ar      1 PYV301      0.0000 
     11 C5        -26.7220   24.7230   92.7400 C.ar      1 PYV301      0.0000 
     12 C6        -25.6630   24.9860   91.8740 C.ar      1 PYV301      0.0000 
     13 C7        -26.3910   27.5480   95.1060 C.ar      1 PYV301      0.0000 
     14 C8        -25.5810   28.6550   95.3140 C.ar      1 PYV301      0.0000 
     15 C9        -24.5230   28.9240   94.4530 C.ar      1 PYV301      0.0000 
     16 C10       -24.2740   28.0800   93.3790 C.ar      1 PYV301      0.0000 
     17 C11       -30.1510   26.5270   93.3440 C.3       1 PYV301      0.0000 
     18 C12       -29.5960   27.8670   92.8630 C.ar      1 PYV301      0.0000 
     19 C13       -29.6960   30.2000   92.7860 C.ar      1 PYV301      0.0000 
     20 C14       -28.5800   30.2270   91.9670 C.ar      1 PYV301      0.0000 
     21 C15       -27.9820   29.0700   91.6010 C.ar      1 PYV301      0.0000 
     22 C16       -28.4830   27.8900   92.0380 C.ar      1 PYV301      0.0000 
@<TRIPOS>BOND
     1    1    4 1    
     2    1    5 2    
     3    1    8 2    
     4    1   10 1    
     5    2    3 1    
     6    3    6 ar   
     7    3   12 ar   
     8    4   17 1    
     9    6    9 ar   
    10    6   16 ar   
    11    7   18 ar   
    12    7   19 ar   
    13    9   10 ar   
    14    9   13 ar   
    15   10   11 ar   
    16   11   12 ar   
    17   13   14 ar   
    18   14   15 ar   
    19   15   16 ar   
    20   17   18 1    
    21   18   22 ar   
    22   19   20 ar   
    23   20   21 ar   
    24   21   22 ar   
@<TRIPOS>SUBSTRUCTURE
     1 PYV301      1 GROUP   
@<TRIPOS>SET

