#    Name: 6ak2_2_SER_HIS_TRP_ASP_ILE_TBG_004
#    Modification time : Fri May 22 19:32:21 2020

@<TRIPOS>MOLECULE
6ak2_2_SER_HIS_TRP_ASP_ILE_TBG_004
  113   116     7     0     0
SMALL
NO_CHARGES


@<TRIPOS>ATOM
      1 N          30.2640   32.7570   12.4520 N.am      1 SER1        0.0000 
      2 CA         31.6690   32.8530   12.0600 C.3       1 SER1        0.0000 
      3 C          32.1110   31.6440   11.2360 C.2       1 SER1        0.0000 
      4 O          32.9510   31.7670   10.3440 O.2       1 SER1        0.0000 
      5 CB         32.5630   32.9900   13.3010 C.3       1 SER1        0.0000 
      6 OG         32.2990   31.9560   14.2350 O.3       1 SER1        0.0000 
      7 H1         30.1100   32.1680   13.0590 H         1 SER1        0.0000 
      8 H2         29.6260   32.3570   11.8560 H         1 SER1        0.0000 
      9 HA         31.7910   33.6460   11.5150 H         1 SER1        0.0000 
     10 HB2        33.4920   32.9390   13.0280 H         1 SER1        0.0000 
     11 HB3        32.3880   33.8470   13.7210 H         1 SER1        0.0000 
     12 HG         32.7940   32.0440   14.9080 H         1 SER1        0.0000 
     13 N          31.5310   30.4780   11.5170 N.am      2 HIS2        0.0000 
     14 CA         32.0770   29.2230   10.9920 C.3       2 HIS2        0.0000 
     15 C          31.5340   28.8940    9.6040 C.2       2 HIS2        0.0000 
     16 O          32.2700   28.9960    8.6170 O.2       2 HIS2        0.0000 
     17 CB         31.8530   28.0880   11.9900 C.3       2 HIS2        0.0000 
     18 CG         33.1290   27.5160   12.5210 C.2       2 HIS2        0.0000 
     19 ND1        33.8100   26.4990   11.8840 N.pl3     2 HIS2        0.0000 
     20 CD2        33.8670   27.8430   13.6070 C.2       2 HIS2        0.0000 
     21 CE1        34.9030   26.2100   12.5660 C.2       2 HIS2        0.0000 
     22 NE2        34.9620   27.0110   13.6160 N.2       2 HIS2        0.0000 
     23 N          30.2670   28.4910    9.4940 N.am      3 TRP3        0.0000 
     24 CA         29.7470   28.1130    8.1680 C.3       3 TRP3        0.0000 
     25 C          28.2450   27.8620    8.0640 C.2       3 TRP3        0.0000 
     26 O          27.5320   27.7260    9.0720 O.2       3 TRP3        0.0000 
     27 CB         30.4700   26.8480    7.6550 C.3       3 TRP3        0.0000 
     28 CG         30.6360   25.7250    8.6500 C.2       3 TRP3        0.0000 
     29 CD1        31.7680   25.4140    9.3440 C.2       3 TRP3        0.0000 
     30 CD2        29.6470   24.7570    9.0460 C.ar      3 TRP3        0.0000 
     31 NE1        31.5480   24.3160   10.1420 N.pl3     3 TRP3        0.0000 
     32 CE2        30.2570   23.8930    9.9760 C.ar      3 TRP3        0.0000 
     33 CE3        28.3110   24.5370    8.7000 C.ar      3 TRP3        0.0000 
     34 CZ2        29.5720   22.8280   10.5790 C.ar      3 TRP3        0.0000 
     35 CZ3        27.6350   23.4710    9.2910 C.ar      3 TRP3        0.0000 
     36 CH2        28.2660   22.6400   10.2290 C.ar      3 TRP3        0.0000 
     37 H          29.7040   28.4270   10.1410 H         3 TRP3        0.0000 
     38 HA         29.9570   28.8310    7.5510 H         3 TRP3        0.0000 
     39 HB2        29.9700   26.4950    6.9020 H         3 TRP3        0.0000 
     40 HB3        31.3580   27.1040    7.3590 H         3 TRP3        0.0000 
     41 HD1        32.5740   25.8740    9.2800 H         3 TRP3        0.0000 
     42 HE3        27.8850   25.0860    8.0820 H         3 TRP3        0.0000 
     43 HZ2        29.9910   22.2730   11.1960 H         3 TRP3        0.0000 
     44 HZ3        26.7440   23.3180    9.0720 H         3 TRP3        0.0000 
     45 HH2        27.7900   21.9360   10.6070 H         3 TRP3        0.0000 
     46 N          23.8420   23.4560    3.1130 N.am      4 ASP6        0.0000 
     47 CA         22.5870   22.7990    2.7420 C.3       4 ASP6        0.0000 
     48 C          22.8030   21.3010    2.4850 C.2       4 ASP6        0.0000 
     49 O          23.5830   20.9270    1.6060 O.2       4 ASP6        0.0000 
     50 CB         21.9840   23.4600    1.4870 C.3       4 ASP6        0.0000 
     51 CG         21.5710   24.9070    1.7160 C.2       4 ASP6        0.0000 
     52 OD1        21.3370   25.6200    0.7140 O.co2     4 ASP6        0.0000 
     53 OD2        21.4820   25.3380    2.8870 O.co2     4 ASP6        0.0000 
     54 H          24.3350   23.6730    2.4430 H         4 ASP6        0.0000 
     55 HA         21.9510   22.8920    3.4680 H         4 ASP6        0.0000 
     56 HB2        22.6440   23.4470    0.7760 H         4 ASP6        0.0000 
     57 HB3        21.1960   22.9640    1.2170 H         4 ASP6        0.0000 
     58 N          22.1030   20.4550    3.2420 N.am      5 ILE7        0.0000 
     59 CA         22.2160   18.9970    3.1300 C.3       5 ILE7        0.0000 
     60 C          20.9160   18.3540    2.6240 C.2       5 ILE7        0.0000 
     61 O          20.9350   17.2830    1.9990 O.2       5 ILE7        0.0000 
     62 CB         22.5960   18.3720    4.4870 C.3       5 ILE7        0.0000 
     63 CG1        23.7990   19.0880    5.0940 C.3       5 ILE7        0.0000 
     64 CG2        22.8870   16.8760    4.3350 C.3       5 ILE7        0.0000 
     65 CD1        25.0480   19.0100    4.2410 C.3       5 ILE7        0.0000 
     66 OXT        19.8060   18.8570    2.8520 O.3       5 ILE7        0.0000 
     67 H          21.5410   20.7080    3.8430 H         5 ILE7        0.0000 
     68 HA         22.9190   18.7850    2.4960 H         5 ILE7        0.0000 
     69 HB         21.8440   18.4750    5.0910 H         5 ILE7        0.0000 
     70 HG12       23.5790   20.0250    5.2130 H         5 ILE7        0.0000 
     71 HG13       24.0010   18.6860    5.9540 H         5 ILE7        0.0000 
     72 HG21       23.1230   16.5110    5.2020 H         5 ILE7        0.0000 
     73 HG22       22.0950   16.4340    3.9930 H         5 ILE7        0.0000 
     74 HG23       23.6250   16.7600    3.7150 H         5 ILE7        0.0000 
     75 HD11       25.7660   19.4840    4.6880 H         5 ILE7        0.0000 
     76 HD12       25.2910   18.0780    4.1210 H         5 ILE7        0.0000 
     77 HD13       24.8670   19.4180    3.3800 H         5 ILE7        0.0000 
     78 N          27.7810   27.8080    6.8150 N.am      6 TBG4        0.0000 
     79 CA         26.4170   27.4120    6.4730 C.3       6 TBG4        0.0000 
     80 CB         25.4480   28.5780    6.0670 C.3       6 TBG4        0.0000 
     81 CG1        25.9790   29.3480    4.8620 C.3       6 TBG4        0.0000 
     82 CG2        25.3220   29.5330    7.2460 C.3       6 TBG4        0.0000 
     83 CG3        24.0500   28.0350    5.7500 C.3       6 TBG4        0.0000 
     84 C          26.4810   26.3330    5.3910 C.2       6 TBG4        0.0000 
     85 O          27.2400   26.3950    4.4160 O.2       6 TBG4        0.0000 
     86 H          28.3170   28.0310    5.9970 H         6 TBG4        0.0000 
     87 HA         25.9780   26.9290    7.4010 H         6 TBG4        0.0000 
     88 HG11       25.2100   30.0690    4.4900 H         6 TBG4        0.0000 
     89 HG12       26.2320   28.6380    4.0380 H         6 TBG4        0.0000 
     90 HG13       26.9040   29.9150    5.1270 H         6 TBG4        0.0000 
     91 HG21       24.9620   30.5330    6.9030 H         6 TBG4        0.0000 
     92 HG22       24.5930   29.1270    7.9880 H         6 TBG4        0.0000 
     93 HG23       26.3070   29.6610    7.7580 H         6 TBG4        0.0000 
     94 HG31       23.5870   27.5620    6.6490 H         6 TBG4        0.0000 
     95 HG32       24.1190   27.2600    4.9490 H         6 TBG4        0.0000 
     96 HG33       23.3830   28.8570    5.3930 H         6 TBG4        0.0000 
     97 C          24.1630   23.6820    4.3840 C.2       7 0045        0.0000 
     98 N          25.6460   25.3050    5.5570 N.am      7 0045        0.0000 
     99 O          23.3470   23.4860    5.2840 O.2       7 0045        0.0000 
    100 CA         25.5910   24.2020    4.5990 C.3       7 0045        0.0000 
    101 CB         26.4390   22.9940    4.9400 C.ar      7 0045        0.0000 
    102 CE         27.9610   20.7160    5.5420 C.ar      7 0045        0.0000 
    103 CD1        27.3230   21.4260    6.5680 C.ar      7 0045        0.0000 
    104 CD2        27.8340   21.1390    4.2240 C.ar      7 0045        0.0000 
    105 CG1        26.5530   22.5530    6.2630 C.ar      7 0045        0.0000 
    106 CG2        27.0670   22.2670    3.9160 C.ar      7 0045        0.0000 
    107 HN         24.8600   25.2790    6.1770 H         7 0045        0.0000 
    108 HA         25.9460   24.6220    3.6070 H         7 0045        0.0000 
    109 HE         28.5660   19.8280    5.7800 H         7 0045        0.0000 
    110 HD1        27.4210   21.0950    7.6130 H         7 0045        0.0000 
    111 HD2        28.3370   20.5840    3.4180 H         7 0045        0.0000 
    112 HG1        26.0560   23.1080    7.0730 H         7 0045        0.0000 
    113 HG2        26.9670   22.6050    2.8700 H         7 0045        0.0000 
@<TRIPOS>BOND
     1    1    2 1    
     2    2    3 1    
     3    1    7 1    
     4    1    8 1    
     5    2    5 1    
     6    2    9 1    
     7    3    4 2    
     8    3   13 am   
     9    5    6 1    
    10    5   10 1    
    11    5   11 1    
    12    6   12 1    
    13   13   14 1    
    14   14   15 1    
    15   14   17 1    
    16   15   16 2    
    17   15   23 am   
    18   17   18 1    
    19   18   19 1    
    20   18   20 2    
    21   19   21 1    
    22   20   22 1    
    23   21   22 2    
    24   23   24 1    
    25   24   25 1    
    26   23   37 1    
    27   24   27 1    
    28   24   38 1    
    29   25   26 2    
    30   25   78 du   
    31   27   28 1    
    32   27   39 1    
    33   27   40 1    
    34   28   29 2    
    35   28   30 1    
    36   29   31 1    
    37   30   32 ar   
    38   29   41 1    
    39   30   33 ar   
    40   31   32 1    
    41   32   34 ar   
    42   33   35 ar   
    43   34   36 ar   
    44   33   42 1    
    45   35   36 ar   
    46   34   43 1    
    47   46   47 1    
    48   35   44 1    
    49   36   45 1    
    50   47   48 1    
    51   46   54 1    
    52   46   97 am   
    53   47   50 1    
    54   47   55 1    
    55   48   49 2    
    56   48   58 am   
    57   50   51 1    
    58   50   56 1    
    59   50   57 1    
    60   51   52 ar   
    61   51   53 ar   
    62   58   59 1    
    63   59   60 1    
    64   58   67 1    
    65   59   62 1    
    66   59   68 1    
    67   60   61 2    
    68   60   66 1    
    69   62   63 1    
    70   62   64 1    
    71   62   69 1    
    72   63   65 1    
    73   63   70 1    
    74   63   71 1    
    75   64   72 1    
    76   64   73 1    
    77   64   74 1    
    78   65   75 1    
    79   65   76 1    
    80   65   77 1    
    81   78   79 1    
    82   78   86 1    
    83   79   80 1    
    84   79   84 1    
    85   79   87 1    
    86   80   81 1    
    87   80   82 1    
    88   80   83 1    
    89   81   88 1    
    90   81   89 1    
    91   81   90 1    
    92   82   91 1    
    93   82   92 1    
    94   82   93 1    
    95   83   94 1    
    96   83   95 1    
    97   83   96 1    
    98   84   85 2    
    99   84   98 du   
   100   97   99 2    
   101   97  100 1    
   102   98  100 1    
   103   98  107 1    
   104  100  101 1    
   105  100  108 1    
   106  101  105 ar   
   107  101  106 ar   
   108  102  103 ar   
   109  102  104 ar   
   110  102  109 1    
   111  103  105 ar   
   112  103  110 1    
   113  104  106 ar   
   114  104  111 1    
   115  105  112 1    
   116  106  113 1    
@<TRIPOS>SUBSTRUCTURE
     1 SER1        1 RESIDUE 
     2 HIS2       13 RESIDUE 
     3 TRP3       23 RESIDUE 
     4 ASP6       46 RESIDUE 
     5 ILE7       58 RESIDUE 
     6 TBG4       78 RESIDUE 
     7 0045       97 RESIDUE 
@<TRIPOS>SET

