#    Name: 6iwh_1_GLY_GLY_GLY_ILE_MYR_CAVITY_N1_4
#    Modification time : Fri May 22 19:31:17 2020

@<TRIPOS>MOLECULE
6iwh_1_GLY_GLY_GLY_ILE_MYR_CAVITY_N1_4
   69     0     7     0     0
SMALL
NO_CHARGES


@<TRIPOS>ATOM
      1 OG          1.0500   29.1200   31.8100 O.3       1 SER1        0.0000 
      2 OG          1.7300   27.9300   32.4200 O.3       1 SER1        0.0000 
      3 OG          0.9300   31.1900   32.2900 O.3       1 SER1        0.0000 
      4 OG          1.6100   30.0000   32.9000 O.3       1 SER1        0.0000 
      5 OG          2.2800   28.8000   33.5100 O.3       1 SER1        0.0000 
      6 OG          2.7000   32.3200   32.5500 O.3       1 SER1        0.0000 
      7 OG          2.1600   30.8700   33.9900 O.3       1 SER1        0.0000 
      8 OG          1.6100   29.4100   35.4300 O.3       1 SER1        0.0000 
      9 O          10.0300   33.3300   30.0900 O.2       2 ALA2        0.0000 
     10 OD1         3.3800   31.1300   33.1600 O.co2     3 ASP3        0.0000 
     11 OD1         2.8300   29.6700   34.6000 O.co2     3 ASP3        0.0000 
     12 NZ          8.1300   34.8400   27.7800 N.4       4 LYS4        0.0000 
     13 NZ          8.8000   33.6500   28.3900 N.4       4 LYS4        0.0000 
     14 CZ          3.3600   32.3100   28.0900 C.ar      5 PHE5        0.0000 
     15 CZ          4.7100   29.9200   29.3100 C.ar      5 PHE5        0.0000 
     16 CZ          3.4900   29.6600   30.1500 C.ar      5 PHE5        0.0000 
     17 CZ          2.9500   28.2000   31.5900 C.ar      5 PHE5        0.0000 
     18 CZ          7.5700   33.9700   26.6900 C.ar      5 PHE5        0.0000 
     19 CZ          6.3500   33.7100   27.5200 C.ar      5 PHE5        0.0000 
     20 CZ          5.1300   33.4400   28.3500 C.ar      5 PHE5        0.0000 
     21 CZ          2.6900   32.9100   30.0100 C.ar      5 PHE5        0.0000 
     22 CZ          8.2500   32.7800   27.3000 C.ar      5 PHE5        0.0000 
     23 CZ          7.0300   32.5200   28.1300 C.ar      5 PHE5        0.0000 
     24 CZ          5.8100   32.2500   28.9600 C.ar      5 PHE5        0.0000 
     25 CZ          2.1500   31.4500   31.4600 C.ar      5 PHE5        0.0000 
     26 CZ          8.9200   31.5900   27.9100 C.ar      5 PHE5        0.0000 
     27 CZ          7.7000   31.3200   28.7400 C.ar      5 PHE5        0.0000 
     28 CZ          6.4900   31.0600   29.5700 C.ar      5 PHE5        0.0000 
     29 CZ          5.2700   30.7900   30.4000 C.ar      5 PHE5        0.0000 
     30 CZ          4.0500   30.5300   31.2300 C.ar      5 PHE5        0.0000 
     31 CZ          4.7200   29.3300   31.8400 C.ar      5 PHE5        0.0000 
     32 CZ          3.5000   29.0700   32.6800 C.ar      5 PHE5        0.0000 
     33 CZ          2.0300   33.5200   31.9300 C.ar      5 PHE5        0.0000 
     34 CZ          7.0400   31.9300   30.6600 C.ar      5 PHE5        0.0000 
     35 CZ         10.1500   31.2700   29.6100 C.ar      5 PHE5        0.0000 
     36 CZ          8.9300   31.0000   30.4400 C.ar      5 PHE5        0.0000 
     37 CZ          7.7100   30.7400   31.2700 C.ar      5 PHE5        0.0000 
     38 CA          4.0400   31.1100   28.7000 C.3       6 GLY6        0.0000 
     39 CA          2.8200   30.8500   29.5400 C.3       6 GLY6        0.0000 
     40 CA          2.2700   29.3900   30.9800 C.3       6 GLY6        0.0000 
     41 CA          9.6000   30.4000   28.5200 C.3       6 GLY6        0.0000 
     42 CA          2.9600   27.6100   34.1200 C.3       6 GLY6        0.0000 
     43 CA          6.9100   34.5800   28.6100 C.3       6 GLY6        0.0000 
     44 CA          5.8200   31.6600   31.4900 C.3       6 GLY6        0.0000 
     45 CA          4.6000   31.4000   32.3200 C.3       6 GLY6        0.0000 
     46 CA          4.0500   29.9400   33.7700 C.3       6 GLY6        0.0000 
     47 CA          6.2400   35.1800   30.5300 C.3       6 GLY6        0.0000 
     48 CA          9.3600   34.5200   29.4800 C.3       6 GLY6        0.0000 
     49 CA          8.1400   34.2600   30.3100 C.3       6 GLY6        0.0000 
     50 CA          6.9200   33.9900   31.1400 C.3       6 GLY6        0.0000 
     51 CA          8.8100   33.0600   30.9200 C.3       6 GLY6        0.0000 
     52 CA          7.5900   32.8000   31.7500 C.3       6 GLY6        0.0000 
     53 CA          9.4900   31.8700   31.5300 C.3       6 GLY6        0.0000 
     54 CA          7.4700   34.8600   32.2300 C.3       6 GLY6        0.0000 
     55 DU          3.9100   33.1800   29.1800 H         7 CUB7        0.0000 
     56 DU          4.5900   31.9800   29.7900 H         7 CUB7        0.0000 
     57 DU          3.3700   31.7200   30.6200 H         7 CUB7        0.0000 
     58 DU          2.8300   30.2600   32.0700 H         7 CUB7        0.0000 
     59 DU          5.6900   34.3100   29.4400 H         7 CUB7        0.0000 
     60 DU          4.4700   34.0500   30.2700 H         7 CUB7        0.0000 
     61 DU          3.2500   33.7800   31.1000 H         7 CUB7        0.0000 
     62 DU          7.5800   33.3900   29.2200 H         7 CUB7        0.0000 
     63 DU          6.3600   33.1200   30.0500 H         7 CUB7        0.0000 
     64 DU          5.1400   32.8500   30.8800 H         7 CUB7        0.0000 
     65 DU          3.9200   32.5900   31.7100 H         7 CUB7        0.0000 
     66 DU          9.4800   32.4600   29.0000 H         7 CUB7        0.0000 
     67 DU          8.2600   32.1900   29.8300 H         7 CUB7        0.0000 
     68 DU          5.0200   34.9200   31.3600 H         7 CUB7        0.0000 
     69 DU          5.7000   33.7300   31.9700 H         7 CUB7        0.0000 
@<TRIPOS>BOND
@<TRIPOS>SUBSTRUCTURE
     1 SER1        1 GROUP   
     2 ALA2        9 GROUP   
     3 ASP3       10 GROUP   
     4 LYS4       12 GROUP   
     5 PHE5       14 GROUP   
     6 GLY6       38 GROUP   
     7 CUB7       55 GROUP   
@<TRIPOS>SET

