#    Name: 6iwh_1_GLY_GLY_GLY_ILE_MYR
#    Modification time : Fri May 22 19:31:15 2020

@<TRIPOS>MOLECULE
6iwh_1_GLY_GLY_GLY_ILE_MYR
   36    35     5     0     0
SMALL
NO_CHARGES


@<TRIPOS>ATOM
      1 N           1.6390   30.5410   36.4010 N.am      1 GLY2        0.0000 
      2 CA          0.9390   30.9850   37.5890 C.3       1 GLY2        0.0000 
      3 C           1.7950   31.6730   38.6430 C.2       1 GLY2        0.0000 
      4 O           2.9570   31.7230   38.4600 O.2       1 GLY2        0.0000 
      5 N           1.2010   32.2000   39.7260 N.am      2 GLY3        0.0000 
      6 CA          1.9790   32.9170   40.7120 C.3       2 GLY3        0.0000 
      7 C           2.1430   32.0950   41.9730 C.2       2 GLY3        0.0000 
      8 O           2.2530   32.6440   43.0700 O.2       2 GLY3        0.0000 
      9 N           2.1560   30.7720   41.8250 N.am      3 GLY4        0.0000 
     10 CA          2.3990   29.9060   42.9580 C.3       3 GLY4        0.0000 
     11 C           1.3850   28.7920   43.0370 C.2       3 GLY4        0.0000 
     12 O           0.1850   29.0430   43.1480 O.2       3 GLY4        0.0000 
     13 N           1.8560   27.5550   42.9550 N.am      4 ILE5        0.0000 
     14 CA          0.9700   26.4020   42.9720 C.3       4 ILE5        0.0000 
     15 C           0.5660   26.1420   44.4290 C.2       4 ILE5        0.0000 
     16 O          -0.4760   25.5490   44.7330 O.2       4 ILE5        0.0000 
     17 CB          1.6580   25.1890   42.2630 C.3       4 ILE5        0.0000 
     18 CG1         1.3490   25.2290   40.7580 C.3       4 ILE5        0.0000 
     19 CG2         1.2700   23.8610   42.8780 C.3       4 ILE5        0.0000 
     20 CD1         2.0060   24.1220   39.9460 C.3       4 ILE5        0.0000 
     21 OXT         1.2570   26.5950   45.3530 O.3       4 ILE5        0.0000 
     22 C1          1.9260   29.3060   36.0760 C.2       5 MYR1        0.0000 
     23 O1          1.6940   28.4420   36.8750 O.co2     5 MYR1        0.0000 
     24 C2          2.3440   28.7470   34.7450 C.3       5 MYR1        0.0000 
     25 C3          2.7960   29.7870   33.7390 C.3       5 MYR1        0.0000 
     26 C4          2.9080   29.2430   32.3230 C.3       5 MYR1        0.0000 
     27 C5          3.3370   30.3100   31.3250 C.3       5 MYR1        0.0000 
     28 C6          4.7370   30.8180   31.5940 C.3       5 MYR1        0.0000 
     29 C7          5.4220   31.4790   30.4050 C.3       5 MYR1        0.0000 
     30 C8          6.8880   31.7220   30.6990 C.3       5 MYR1        0.0000 
     31 C9          7.7010   32.2290   29.5460 C.3       5 MYR1        0.0000 
     32 C10         9.0910   32.7030   29.8980 C.3       5 MYR1        0.0000 
     33 C11         9.8940   33.0720   28.6830 C.3       5 MYR1        0.0000 
     34 C12        10.1420   31.8780   27.8180 C.3       5 MYR1        0.0000 
     35 C13        11.5740   31.5730   27.6220 C.3       5 MYR1        0.0000 
     36 C14        11.7470   30.6620   26.4650 C.3       5 MYR1        0.0000 
@<TRIPOS>BOND
     1   22   23 ar   
     2   22   24 1    
     3   24   25 1    
     4   25   26 1    
     5   26   27 1    
     6   27   28 1    
     7   28   29 1    
     8   29   30 1    
     9   30   31 1    
    10   31   32 1    
    11   32   33 1    
    12   33   34 1    
    13   34   35 1    
    14   35   36 1    
    15    1    2 1    
    16    1   22 du   
    17    2    3 1    
    18    3    4 2    
    19    3    5 am   
    20    5    6 1    
    21    6    7 1    
    22    7    8 2    
    23    7    9 am   
    24    9   10 1    
    25   10   11 1    
    26   11   12 2    
    27   11   13 am   
    28   13   14 1    
    29   14   15 1    
    30   14   17 1    
    31   15   16 2    
    32   15   21 1    
    33   17   18 1    
    34   17   19 1    
    35   18   20 1    
@<TRIPOS>SUBSTRUCTURE
     1 GLY2        1 RESIDUE 
     2 GLY3        5 RESIDUE 
     3 GLY4        9 RESIDUE 
     4 ILE5       13 RESIDUE 
     5 MYR1       22 GROUP   
@<TRIPOS>SET

