#    Name: 6mbo_1_SAH_CAVITY_N1_4
#    Modification time : Fri May 22 19:24:20 2020

@<TRIPOS>MOLECULE
6mbo_1_SAH_CAVITY_N1_4
   77     0     6     0     0
SMALL
NO_CHARGES


@<TRIPOS>ATOM
      1 OG         -7.9600  -28.6700   30.4400 O.3       1 SER1        0.0000 
      2 OG         -3.5600  -30.1700   26.6500 O.3       1 SER1        0.0000 
      3 OG         -8.5400  -27.7500   29.4000 O.3       1 SER1        0.0000 
      4 OG         -6.0200  -27.9200   30.0200 O.3       1 SER1        0.0000 
      5 OG         -3.8200  -28.6700   28.1200 O.3       1 SER1        0.0000 
      6 OG         -5.5000  -27.3800   28.0300 O.3       1 SER1        0.0000 
      7 OG         -4.4000  -27.7600   27.0900 O.3       1 SER1        0.0000 
      8 OG         -6.0800  -26.4600   27.0000 O.3       1 SER1        0.0000 
      9 OG         -2.4000  -28.4600   29.6900 O.3       1 SER1        0.0000 
     10 O          -1.8700  -35.0100   25.7800 O.2       2 ALA2        0.0000 
     11 N          -1.3500  -34.4700   23.8000 N.am      2 ALA2        0.0000 
     12 N          -3.0300  -33.1800   23.7100 N.am      2 ALA2        0.0000 
     13 N          -0.4600  -34.8000   27.3500 N.am      2 ALA2        0.0000 
     14 N          -4.3400  -32.7500   29.1500 N.am      2 ALA2        0.0000 
     15 N          -4.9200  -31.8400   28.1100 N.am      2 ALA2        0.0000 
     16 N          -3.8200  -32.2200   27.1600 N.am      2 ALA2        0.0000 
     17 N          -8.8000  -29.8000   29.9100 N.am      2 ALA2        0.0000 
     18 N          -7.7000  -30.1700   28.9700 N.am      2 ALA2        0.0000 
     19 N          -4.4000  -31.3000   26.1300 N.am      2 ALA2        0.0000 
     20 O          -3.3000  -31.6800   25.1800 O.2       2 ALA2        0.0000 
     21 N          -9.3800  -28.8800   28.8800 N.am      2 ALA2        0.0000 
     22 N          -8.2800  -29.2600   27.9300 N.am      2 ALA2        0.0000 
     23 N          -5.7600  -29.4200   28.5500 N.am      2 ALA2        0.0000 
     24 N          -4.6600  -29.8000   27.6000 N.am      2 ALA2        0.0000 
     25 N          -7.4400  -28.1300   28.4500 N.am      2 ALA2        0.0000 
     26 N          -6.3400  -28.5100   27.5100 N.am      2 ALA2        0.0000 
     27 N          -4.6700  -26.2500   28.5600 N.am      2 ALA2        0.0000 
     28 N          -3.5700  -26.6300   27.6100 N.am      2 ALA2        0.0000 
     29 OD1        -2.0800  -34.9600   30.2800 O.co2     3 ASP3        0.0000 
     30 OD1        -0.9800  -35.3400   29.3300 O.co2     3 ASP3        0.0000 
     31 CZ         -1.5600  -34.4200   28.2900 C.ar      4 PHE5        0.0000 
     32 CZ         -1.0400  -33.8800   26.3100 C.ar      4 PHE5        0.0000 
     33 CZ         -1.6200  -32.9700   25.2700 C.ar      4 PHE5        0.0000 
     34 CZ         -0.5200  -33.3500   24.3200 C.ar      4 PHE5        0.0000 
     35 CZ         -1.2400  -33.8300   30.8000 C.ar      4 PHE5        0.0000 
     36 CZ         -1.8200  -32.9200   29.7700 C.ar      4 PHE5        0.0000 
     37 CZ         -2.4000  -32.0000   28.7300 C.ar      4 PHE5        0.0000 
     38 CZ         -1.3000  -32.3800   27.7800 C.ar      4 PHE5        0.0000 
     39 CZ         -0.2000  -32.7600   26.8300 C.ar      4 PHE5        0.0000 
     40 CZ         -1.8800  -31.4700   26.7400 C.ar      4 PHE5        0.0000 
     41 CZ         -0.7800  -31.8400   25.8000 C.ar      4 PHE5        0.0000 
     42 CZ         -2.4600  -30.5500   25.7100 C.ar      4 PHE5        0.0000 
     43 CZ         -2.6600  -30.5000   30.2000 C.ar      4 PHE5        0.0000 
     44 CZ         -1.5600  -30.8800   29.2500 C.ar      4 PHE5        0.0000 
     45 CZ         -2.1400  -29.9600   28.2200 C.ar      4 PHE5        0.0000 
     46 CZ         -1.0400  -30.3400   27.2700 C.ar      4 PHE5        0.0000 
     47 CZ         -2.7200  -29.0500   27.1800 C.ar      4 PHE5        0.0000 
     48 CZ         -1.6200  -29.4200   26.2300 C.ar      4 PHE5        0.0000 
     49 CZ         -6.6000  -27.0000   28.9800 C.ar      4 PHE5        0.0000 
     50 CZ         -1.3000  -28.8300   28.7400 C.ar      4 PHE5        0.0000 
     51 CZ         -5.1900  -26.7900   30.5400 C.ar      4 PHE5        0.0000 
     52 CA         -3.5000  -35.1700   28.7100 C.3       5 GLY6        0.0000 
     53 CA         -2.3900  -35.5500   27.7700 C.3       5 GLY6        0.0000 
     54 CA         -2.9700  -34.6400   26.7300 C.3       5 GLY6        0.0000 
     55 CA         -4.6600  -33.3400   26.6400 C.3       5 GLY6        0.0000 
     56 CA         -2.4500  -34.1000   24.7400 C.3       5 GLY6        0.0000 
     57 CA         -4.1300  -32.8100   24.6500 C.3       5 GLY6        0.0000 
     58 CA         -3.2400  -33.1300   28.2000 C.3       5 GLY6        0.0000 
     59 CA          0.0600  -34.2600   25.3600 C.3       5 GLY6        0.0000 
     60 CA         -2.7200  -32.5900   26.2200 C.3       5 GLY6        0.0000 
     61 CA         -2.2000  -32.0500   24.2300 C.3       5 GLY6        0.0000 
     62 CA         -1.3600  -30.9300   24.7600 C.3       5 GLY6        0.0000 
     63 CA         -3.5100  -28.0800   30.6300 C.3       5 GLY6        0.0000 
     64 CA         -4.0900  -27.1700   29.6000 C.3       5 GLY6        0.0000 
     65 CA         -2.9900  -27.5400   28.6500 C.3       5 GLY6        0.0000 
     66 DU         -2.6600  -34.0500   29.2400 H         6 CUB7        0.0000 
     67 DU         -2.1400  -33.5100   27.2600 H         6 CUB7        0.0000 
     68 DU         -2.9200  -32.5400   30.7100 H         6 CUB7        0.0000 
     69 DU         -3.5000  -31.6300   29.6700 H         6 CUB7        0.0000 
     70 DU         -5.1800  -30.3400   29.5800 H         6 CUB7        0.0000 
     71 DU         -4.0800  -30.7100   28.6400 H         6 CUB7        0.0000 
     72 DU         -2.9800  -31.0900   27.6900 H         6 CUB7        0.0000 
     73 DU         -6.8600  -29.0400   29.4900 H         6 CUB7        0.0000 
     74 DU         -3.7600  -30.1200   31.1500 H         6 CUB7        0.0000 
     75 DU         -4.3400  -29.2100   30.1100 H         6 CUB7        0.0000 
     76 DU         -3.2400  -29.5800   29.1600 H         6 CUB7        0.0000 
     77 DU         -4.9200  -28.2900   29.0700 H         6 CUB7        0.0000 
@<TRIPOS>BOND
@<TRIPOS>SUBSTRUCTURE
     1 SER1        1 GROUP   
     2 ALA2       10 GROUP   
     3 ASP3       29 GROUP   
     4 PHE5       31 GROUP   
     5 GLY6       52 GROUP   
     6 CUB7       66 GROUP   
@<TRIPOS>SET

