#    Name: 6mbo_1_SAH
#    Modification time : Fri May 22 19:24:19 2020

@<TRIPOS>MOLECULE
6mbo_1_SAH
   26    28     1     0     0
SMALL
NO_CHARGES


@<TRIPOS>ATOM
      1 N          -7.9880  -30.9240   28.6900 N.4       1 SAH1307     0.0000 
      2 CA         -8.0000  -29.5690   29.2250 C.3       1 SAH1307     0.0000 
      3 CB         -8.3340  -28.5810   28.1130 C.3       1 SAH1307     0.0000 
      4 CG         -7.1290  -28.0770   27.3280 C.3       1 SAH1307     0.0000 
      5 SD         -6.1460  -26.9060   28.2990 S.3       1 SAH1307     0.0000 
      6 C          -8.9790  -29.4470   30.3950 C.2       1 SAH1307     0.0000 
      7 O          -9.5360  -30.4500   30.8490 O.co2     1 SAH1307     0.0000 
      8 OXT        -9.2280  -28.3570   30.9160 O.co2     1 SAH1307     0.0000 
      9 C5'        -4.6460  -27.7810   27.7920 C.3       1 SAH1307     0.0000 
     10 C4'        -4.2510  -28.7930   28.8620 C.3       1 SAH1307     0.0000 
     11 O4'        -4.8650  -30.0400   28.6070 O.3       1 SAH1307     0.0000 
     12 C3'        -2.7550  -29.0700   28.8970 C.3       1 SAH1307     0.0000 
     13 O3'        -2.0790  -28.2930   29.8540 O.3       1 SAH1307     0.0000 
     14 C2'        -2.6600  -30.5270   29.2760 C.3       1 SAH1307     0.0000 
     15 O2'        -2.7160  -30.6600   30.6800 O.3       1 SAH1307     0.0000 
     16 C1'        -3.9280  -31.0990   28.6810 C.3       1 SAH1307     0.0000 
     17 N9         -3.6190  -31.5740   27.3160 N.pl3     1 SAH1307     0.0000 
     18 C8         -4.0560  -31.0000   26.1370 C.2       1 SAH1307     0.0000 
     19 N7         -3.5490  -31.6980   25.0880 N.2       1 SAH1307     0.0000 
     20 C5         -2.7880  -32.6860   25.5890 C.ar      1 SAH1307     0.0000 
     21 C6         -2.0480  -33.6750   24.9630 C.ar      1 SAH1307     0.0000 
     22 N6         -2.0110  -33.7490   23.6410 N.pl3     1 SAH1307     0.0000 
     23 N1         -1.3490  -34.5860   25.7160 N.ar      1 SAH1307     0.0000 
     24 C2         -1.3890  -34.5010   27.0870 C.ar      1 SAH1307     0.0000 
     25 N3         -2.1250  -33.5180   27.7050 N.ar      1 SAH1307     0.0000 
     26 C4         -2.8220  -32.6220   26.9720 C.ar      1 SAH1307     0.0000 
@<TRIPOS>BOND
     1    1    2 1    
     2    2    3 1    
     3    2    6 1    
     4    3    4 1    
     5    4    5 1    
     6    5    9 1    
     7    6    7 ar   
     8    6    8 ar   
     9    9   10 1    
    10   10   11 1    
    11   10   12 1    
    12   11   16 1    
    13   12   13 1    
    14   12   14 1    
    15   14   15 1    
    16   14   16 1    
    17   16   17 1    
    18   17   18 1    
    19   17   26 1    
    20   18   19 2    
    21   19   20 1    
    22   20   21 ar   
    23   20   26 ar   
    24   21   22 1    
    25   21   23 ar   
    26   23   24 ar   
    27   24   25 ar   
    28   25   26 ar   
@<TRIPOS>SUBSTRUCTURE
     1 SAH1307     1 GROUP   
@<TRIPOS>SET

