#    Name: 6dxp_4_FMN_CAVITY_N1_6
#    Modification time : Fri May 22 19:35:13 2020

@<TRIPOS>MOLECULE
6dxp_4_FMN_CAVITY_N1_6
  116     0     7     0     0
SMALL
NO_CHARGES


@<TRIPOS>ATOM
      1 OG        -56.0500   -1.5200    5.6200 O.3       1 SER1        0.0000 
      2 OG        -57.8400   -0.9000    6.5800 O.3       1 SER1        0.0000 
      3 OG        -56.9800   -0.3400    5.4800 O.3       1 SER1        0.0000 
      4 OG        -55.2500   -0.7600    6.6400 O.3       1 SER1        0.0000 
      5 O         -56.6800   -4.4000    1.6200 O.2       2 ALA2        0.0000 
      6 O         -58.4700   -3.7800    2.5700 O.2       2 ALA2        0.0000 
      7 N         -60.2600   -3.1600    3.5300 N.am      2 ALA2        0.0000 
      8 O         -59.3900   -2.6100    2.4300 O.2       2 ALA2        0.0000 
      9 O         -56.7400   -4.2000    3.7300 O.2       2 ALA2        0.0000 
     10 O         -55.8700   -3.6500    2.6300 O.2       2 ALA2        0.0000 
     11 O         -55.0100   -3.0900    1.5400 O.2       2 ALA2        0.0000 
     12 N         -54.1400   -2.5400    0.4500 N.am      2 ALA2        0.0000 
     13 O         -57.6600   -3.0300    3.5900 O.2       2 ALA2        0.0000 
     14 O         -58.5900   -1.8500    3.4500 O.2       2 ALA2        0.0000 
     15 O         -51.4300   -5.8500    2.9700 O.2       2 ALA2        0.0000 
     16 O         -52.3500   -4.6800    2.8300 O.2       2 ALA2        0.0000 
     17 O         -55.0100   -4.6200    4.8800 O.2       2 ALA2        0.0000 
     18 O         -54.1400   -4.0600    3.7900 O.2       2 ALA2        0.0000 
     19 O         -55.0700   -2.8900    3.6500 O.2       2 ALA2        0.0000 
     20 O         -54.2000   -2.3400    2.5600 O.2       2 ALA2        0.0000 
     21 O         -56.8600   -2.2700    4.6100 O.2       2 ALA2        0.0000 
     22 O         -55.9900   -1.7200    3.5100 O.2       2 ALA2        0.0000 
     23 O         -57.7800   -1.1000    4.4700 O.2       2 ALA2        0.0000 
     24 O         -50.6200   -5.1000    3.9900 O.2       2 ALA2        0.0000 
     25 O         -49.7600   -4.5500    2.9000 O.2       2 ALA2        0.0000 
     26 N         -48.8900   -3.9900    1.8000 N.am      2 ALA2        0.0000 
     27 N         -48.0300   -3.4400    0.7100 N.am      2 ALA2        0.0000 
     28 O         -51.5500   -3.9300    3.8500 O.2       2 ALA2        0.0000 
     29 O         -54.2000   -3.8600    5.9000 O.2       2 ALA2        0.0000 
     30 O         -53.3400   -3.3100    4.8100 O.2       2 ALA2        0.0000 
     31 N         -48.0300   -4.9600    4.0500 N.am      2 ALA2        0.0000 
     32 O         -49.8200   -4.3400    5.0100 O.2       2 ALA2        0.0000 
     33 O         -48.9500   -3.7900    3.9100 O.2       2 ALA2        0.0000 
     34 N         -48.0900   -3.2400    2.8200 N.am      2 ALA2        0.0000 
     35 O         -51.6100   -3.7300    5.9600 O.2       2 ALA2        0.0000 
     36 N         -50.7400   -3.1700    4.8700 N.am      2 ALA2        0.0000 
     37 N         -49.8800   -2.6200    3.7700 N.am      2 ALA2        0.0000 
     38 O         -53.4000   -3.1100    6.9200 O.2       2 ALA2        0.0000 
     39 N         -52.5300   -2.5500    5.8200 N.am      2 ALA2        0.0000 
     40 N         -51.6700   -2.0000    4.7300 N.am      2 ALA2        0.0000 
     41 O         -55.1900   -2.4900    7.8700 O.2       2 ALA2        0.0000 
     42 O         -54.3200   -1.9300    6.7800 O.2       2 ALA2        0.0000 
     43 N         -53.4600   -1.3800    5.6800 N.am      2 ALA2        0.0000 
     44 N         -48.0900   -4.7600    6.1600 N.am      2 ALA2        0.0000 
     45 O         -47.2300   -4.2100    5.0700 O.2       2 ALA2        0.0000 
     46 N         -49.0200   -3.5900    6.0200 N.am      2 ALA2        0.0000 
     47 O         -48.1500   -3.0400    4.9300 O.2       2 ALA2        0.0000 
     48 N         -50.8100   -2.9700    6.9800 N.am      2 ALA2        0.0000 
     49 N         -53.5200   -1.1800    7.8000 N.am      2 ALA2        0.0000 
     50 N         -47.2900   -4.0100    7.1800 N.am      2 ALA2        0.0000 
     51 O         -46.4200   -3.4500    6.0900 O.2       2 ALA2        0.0000 
     52 N         -48.2100   -2.8400    7.0400 N.am      2 ALA2        0.0000 
     53 N         -50.0000   -2.2200    8.0000 N.am      2 ALA2        0.0000 
     54 N         -47.3500   -3.8100    9.2900 N.am      2 ALA2        0.0000 
     55 OD1       -58.4700   -5.3000    5.9200 O.co2     3 ASP3        0.0000 
     56 OD1       -58.5300   -3.5800    4.6800 O.co2     3 ASP3        0.0000 
     57 OD1       -59.4500   -2.4100    4.5500 O.co2     3 ASP3        0.0000 
     58 OD1       -57.6600   -4.5500    6.9300 O.co2     3 ASP3        0.0000 
     59 OD1       -58.5900   -3.3800    6.7900 O.co2     3 ASP3        0.0000 
     60 OD1       -57.7200   -2.8200    5.7000 O.co2     3 ASP3        0.0000 
     61 NZ        -55.7500   -7.1000    5.1000 N.4       4 LYS4        0.0000 
     62 NZ        -58.4000   -7.0300    7.1500 N.4       4 LYS4        0.0000 
     63 NZ        -54.9500   -6.3400    6.1200 N.4       4 LYS4        0.0000 
     64 NZ        -56.7400   -5.7200    7.0700 N.4       4 LYS4        0.0000 
     65 NZ        -55.8700   -5.1700    5.9800 N.4       4 LYS4        0.0000 
     66 CZ        -53.9600   -6.1900    0.8000 C.ar      5 PHE5        0.0000 
     67 CZ        -54.8900   -5.0200    0.6600 C.ar      5 PHE5        0.0000 
     68 CZ        -52.2300   -6.6100    1.9600 C.ar      5 PHE5        0.0000 
     69 CZ        -53.1600   -5.4400    1.8200 C.ar      5 PHE5        0.0000 
     70 CZ        -54.0800   -4.2600    1.6800 C.ar      5 PHE5        0.0000 
     71 CZ        -53.2200   -3.7100    0.5900 C.ar      5 PHE5        0.0000 
     72 CZ        -52.3500   -3.1600   -0.5100 C.ar      5 PHE5        0.0000 
     73 CZ        -50.5600   -5.3000    1.8800 C.ar      5 PHE5        0.0000 
     74 CZ        -51.4900   -4.1300    1.7400 C.ar      5 PHE5        0.0000 
     75 CZ        -50.6200   -3.5800    0.6500 C.ar      5 PHE5        0.0000 
     76 CZ        -49.7600   -3.0200   -0.4500 C.ar      5 PHE5        0.0000 
     77 CZ        -52.4100   -2.9600    1.6000 C.ar      5 PHE5        0.0000 
     78 CZ        -51.5500   -2.4000    0.5100 C.ar      5 PHE5        0.0000 
     79 CZ        -53.3400   -1.7800    1.4600 C.ar      5 PHE5        0.0000 
     80 CZ        -52.4700   -1.2300    0.3700 C.ar      5 PHE5        0.0000 
     81 CZ        -50.6800   -3.3700    2.7600 C.ar      5 PHE5        0.0000 
     82 CZ        -49.8200   -2.8200    1.6600 C.ar      5 PHE5        0.0000 
     83 CZ        -52.4700   -2.7500    3.7100 C.ar      5 PHE5        0.0000 
     84 CZ        -51.6100   -2.2000    2.6200 C.ar      5 PHE5        0.0000 
     85 CZ        -50.7400   -1.6500    1.5200 C.ar      5 PHE5        0.0000 
     86 CZ        -49.8800   -1.1000    0.4300 C.ar      5 PHE5        0.0000 
     87 CZ        -54.2600   -2.1400    4.6700 C.ar      5 PHE5        0.0000 
     88 CZ        -53.4000   -1.5800    3.5700 C.ar      5 PHE5        0.0000 
     89 CZ        -55.1900   -0.9600    4.5300 C.ar      5 PHE5        0.0000 
     90 CA        -57.6000   -6.2700    8.1700 C.3       6 GLY6        0.0000 
     91 CA        -50.6800   -1.8500   -0.5900 C.3       6 GLY6        0.0000 
     92 CA        -58.5300   -5.1000    8.0300 C.3       6 GLY6        0.0000 
     93 CA        -58.6500   -1.6500    5.5600 C.3       6 GLY6        0.0000 
     94 CA        -48.9600   -2.2700    0.5700 C.3       6 GLY6        0.0000 
     95 CA        -55.9300   -4.9700    8.0900 C.3       6 GLY6        0.0000 
     96 CA        -55.0700   -4.4100    6.9900 C.3       6 GLY6        0.0000 
     97 CA        -56.8600   -3.7900    7.9500 C.3       6 GLY6        0.0000 
     98 CA        -55.9900   -3.2400    6.8600 C.3       6 GLY6        0.0000 
     99 CA        -56.9200   -2.0700    6.7200 C.3       6 GLY6        0.0000 
    100 CA        -56.1100    0.2100    4.3900 C.3       6 GLY6        0.0000 
    101 CA        -49.0200   -2.0700    2.6800 C.3       6 GLY6        0.0000 
    102 CA        -56.1100   -1.3100    7.7300 C.3       6 GLY6        0.0000 
    103 CA        -54.3900   -0.2100    5.5500 C.3       6 GLY6        0.0000 
    104 CA        -49.8800   -4.1400    7.1200 C.3       6 GLY6        0.0000 
    105 CA        -49.9400   -3.9400    9.2300 C.3       6 GLY6        0.0000 
    106 CA        -49.0800   -3.3900    8.1300 C.3       6 GLY6        0.0000 
    107 CA        -48.2700   -2.6300    9.1500 C.3       6 GLY6        0.0000 
    108 CA        -47.4100   -2.0800    8.0600 C.3       6 GLY6        0.0000 
    109 DU        -56.6800   -5.9200    4.9600 H         7 CUB7        0.0000 
    110 DU        -55.8100   -5.3700    3.8700 H         7 CUB7        0.0000 
    111 DU        -54.9500   -4.8200    2.7700 H         7 CUB7        0.0000 
    112 DU        -57.6000   -4.7500    4.8200 H         7 CUB7        0.0000 
    113 DU        -53.2800   -3.5100    2.7000 H         7 CUB7        0.0000 
    114 DU        -56.8000   -4.0000    5.8400 H         7 CUB7        0.0000 
    115 DU        -55.9300   -3.4400    4.7500 H         7 CUB7        0.0000 
    116 DU        -55.1300   -2.6900    5.7600 H         7 CUB7        0.0000 
@<TRIPOS>BOND
@<TRIPOS>SUBSTRUCTURE
     1 SER1        1 GROUP   
     2 ALA2        5 GROUP   
     3 ASP3       55 GROUP   
     4 LYS4       61 GROUP   
     5 PHE5       66 GROUP   
     6 GLY6       90 GROUP   
     7 CUB7      109 GROUP   
@<TRIPOS>SET

