#    Name: 6dxp_2_FMN
#    Modification time : Fri May 22 19:35:03 2020

@<TRIPOS>MOLECULE
6dxp_2_FMN
   31    33     1     0     1
SMALL
NO_CHARGES


@<TRIPOS>ATOM
      1 N1        -24.1020   18.6810   26.2620 N.2       1 FMN301      0.0000 
      2 C2        -24.3480   17.7900   25.2570 C.2       1 FMN301      0.0000 
      3 O2        -24.3500   18.1890   24.0880 O.2       1 FMN301      0.0000 
      4 N3        -24.5890   16.4790   25.4370 N.am      1 FMN301      0.0000 
      5 C4        -24.6080   15.9400   26.6520 C.2       1 FMN301      0.0000 
      6 O4        -24.8280   14.7150   26.7900 O.2       1 FMN301      0.0000 
      7 C4A       -24.3390   16.8290   27.8050 C.2       1 FMN301      0.0000 
      8 N5        -24.3440   16.3430   29.0500 N.2       1 FMN301      0.0000 
      9 C5A       -24.1070   17.1480   30.1050 C.ar      1 FMN301      0.0000 
     10 C6        -24.1270   16.5740   31.3660 C.ar      1 FMN301      0.0000 
     11 C7        -23.9090   17.3260   32.5050 C.ar      1 FMN301      0.0000 
     12 C7M       -23.9710   16.5750   33.8120 C.3       1 FMN301      0.0000 
     13 C8        -23.6280   18.7900   32.3670 C.ar      1 FMN301      0.0000 
     14 C8M       -23.3820   19.6730   33.5630 C.3       1 FMN301      0.0000 
     15 C9        -23.6060   19.3760   31.1050 C.ar      1 FMN301      0.0000 
     16 C9A       -23.8360   18.6090   29.9450 C.ar      1 FMN301      0.0000 
     17 N10       -23.8200   19.1270   28.6150 N.pl3     1 FMN301      0.0000 
     18 C10       -24.0710   18.2570   27.5380 C.2       1 FMN301      0.0000 
     19 C1'       -23.5930   20.5590   28.3760 C.3       1 FMN301      0.0000 
     20 C2'       -24.8820   21.3190   28.7270 C.3       1 FMN301      0.0000 
     21 O2'       -25.9930   20.8990   27.9240 O.3       1 FMN301      0.0000 
     22 C3'       -24.6670   22.8060   28.5250 C.3       1 FMN301      0.0000 
     23 O3'       -23.4300   23.2560   29.1100 O.3       1 FMN301      0.0000 
     24 C4'       -25.8520   23.5600   29.1020 C.3       1 FMN301      0.0000 
     25 O4'       -25.9210   24.7870   28.3990 O.3       1 FMN301      0.0000 
     26 C5'       -25.7330   23.9140   30.5640 C.3       1 FMN301      0.0000 
     27 O5'       -26.9960   24.4610   30.9040 O.3       1 FMN301      0.0000 
     28 P         -27.2520   24.9040   32.4150 P.3       1 FMN301      0.0000 
     29 O1P       -26.1580   25.9420   32.5870 O.co2     1 FMN301      0.0000 
     30 O2P       -28.6770   25.4000   32.5580 O.co2     1 FMN301      0.0000 
     31 O3P       -27.0090   23.6230   33.1670 O.co2     1 FMN301      0.0000 
@<TRIPOS>BOND
     1    1    2 1    
     2    1   18 2    
     3    2    3 2    
     4    2    4 am   
     5    4    5 am   
     6    5    6 2    
     7    5    7 1    
     8    7    8 2    
     9    7   18 1    
    10    8    9 1    
    11    9   10 ar   
    12    9   16 ar   
    13   10   11 ar   
    14   11   12 1    
    15   11   13 ar   
    16   13   14 1    
    17   13   15 ar   
    18   15   16 ar   
    19   16   17 1    
    20   17   18 1    
    21   17   19 1    
    22   19   20 1    
    23   20   21 1    
    24   20   22 1    
    25   22   23 1    
    26   22   24 1    
    27   24   25 1    
    28   24   26 1    
    29   26   27 1    
    30   27   28 1    
    31   28   29 ar   
    32   28   30 ar   
    33   28   31 ar   
@<TRIPOS>SUBSTRUCTURE
     1 FMN301      1 GROUP   
@<TRIPOS>SET
ATOM$ORANGE STATIC     ATOMS   COLORGROUP SYSTEM 
34 2 2 5 5 7 7 9 9 10 10 11 11 12 12 13 13 14 \
14 15 15 16 16 18 18 19 19 20 20 22 22 24 24 26 26 

