#    Name: 6dxp_3_FMN_CAVITY_N1_6
#    Modification time : Fri May 22 19:35:08 2020

@<TRIPOS>MOLECULE
6dxp_3_FMN_CAVITY_N1_6
  133     0     7     0     0
SMALL
NO_CHARGES


@<TRIPOS>ATOM
      1 OG        -36.3400   21.2800    1.8800 O.3       1 SER1        0.0000 
      2 OG        -27.3300   14.9400    1.6800 O.3       1 SER1        0.0000 
      3 OG        -29.1200   15.5500    2.6300 O.3       1 SER1        0.0000 
      4 OG        -36.4000   21.4800    3.9900 O.3       1 SER1        0.0000 
      5 OG        -26.5200   15.6900    2.6900 O.3       1 SER1        0.0000 
      6 OG        -28.3100   16.3100    3.6500 O.3       1 SER1        0.0000 
      7 O         -36.9600   16.8700    1.2200 O.2       2 ALA2        0.0000 
      8 O         -37.8800   18.0500    1.0800 O.2       2 ALA2        0.0000 
      9 N         -38.8100   19.2200    0.9400 N.am      2 ALA2        0.0000 
     10 O         -31.7100   16.9400   -0.7700 O.2       2 ALA2        0.0000 
     11 O         -32.6400   18.1200   -0.9100 O.2       2 ALA2        0.0000 
     12 N         -31.7700   18.6700   -2.0000 N.am      2 ALA2        0.0000 
     13 O         -36.1500   17.6300    2.2300 O.2       2 ALA2        0.0000 
     14 N         -37.0800   18.8000    2.0900 N.am      2 ALA2        0.0000 
     15 N         -38.0100   19.9700    1.9600 N.am      2 ALA2        0.0000 
     16 O         -29.0600   15.3500    0.5200 O.2       2 ALA2        0.0000 
     17 O         -29.9800   16.5300    0.3800 O.2       2 ALA2        0.0000 
     18 O         -30.9100   17.7000    0.2400 O.2       2 ALA2        0.0000 
     19 N         -34.4300   17.2100    3.3900 N.am      2 ALA2        0.0000 
     20 N         -30.9700   19.4200   -0.9900 N.am      2 ALA2        0.0000 
     21 O         -36.2200   17.8300    4.3400 O.2       2 ALA2        0.0000 
     22 O         -35.3500   18.3800    3.2500 O.2       2 ALA2        0.0000 
     23 O         -34.4900   18.9400    2.1600 O.2       2 ALA2        0.0000 
     24 N         -38.0000   18.4500    5.3000 N.am      2 ALA2        0.0000 
     25 N         -37.1400   19.0000    4.2000 N.am      2 ALA2        0.0000 
     26 N         -36.2800   19.5600    3.1100 N.am      2 ALA2        0.0000 
     27 O         -35.4100   20.1100    2.0200 O.2       2 ALA2        0.0000 
     28 N         -38.0700   20.1800    4.0700 N.am      2 ALA2        0.0000 
     29 N         -37.2000   20.7300    2.9700 N.am      2 ALA2        0.0000 
     30 O         -26.4600   15.4900    0.5800 O.2       2 ALA2        0.0000 
     31 O         -25.6000   16.0400   -0.5100 O.2       2 ALA2        0.0000 
     32 N         -29.9800   15.0000    3.7300 N.am      2 ALA2        0.0000 
     33 O         -28.2500   16.1100    1.5400 O.2       2 ALA2        0.0000 
     34 O         -27.3900   16.6600    0.4400 O.2       2 ALA2        0.0000 
     35 O         -26.5200   17.2100   -0.6500 O.2       2 ALA2        0.0000 
     36 N         -31.7700   15.6200    4.6800 N.am      2 ALA2        0.0000 
     37 N         -30.9100   16.1700    3.5900 N.am      2 ALA2        0.0000 
     38 O         -29.1800   17.2800    1.4000 O.2       2 ALA2        0.0000 
     39 O         -28.3100   17.8300    0.3100 O.2       2 ALA2        0.0000 
     40 O         -27.4500   18.3900   -0.7900 O.2       2 ALA2        0.0000 
     41 N         -32.7000   16.7900    4.5400 N.am      2 ALA2        0.0000 
     42 O         -31.8300   17.3500    3.4500 O.2       2 ALA2        0.0000 
     43 O         -30.9700   17.9000    2.3600 O.2       2 ALA2        0.0000 
     44 O         -30.1000   18.4500    1.2600 O.2       2 ALA2        0.0000 
     45 O         -29.2400   19.0100    0.1700 O.2       2 ALA2        0.0000 
     46 N         -35.3500   16.8600    6.5900 N.am      2 ALA2        0.0000 
     47 N         -34.4900   17.4100    5.5000 N.am      2 ALA2        0.0000 
     48 O         -33.6200   17.9700    4.4000 O.2       2 ALA2        0.0000 
     49 O         -32.7600   18.5200    3.3100 O.2       2 ALA2        0.0000 
     50 O         -31.8900   19.0700    2.2200 O.2       2 ALA2        0.0000 
     51 O         -31.0300   19.6200    1.1200 O.2       2 ALA2        0.0000 
     52 N         -37.1400   17.4800    7.5500 N.am      2 ALA2        0.0000 
     53 N         -36.2800   18.0300    6.4500 N.am      2 ALA2        0.0000 
     54 O         -34.5500   19.1400    4.2700 O.2       2 ALA2        0.0000 
     55 O         -31.9500   20.8000    0.9800 O.2       2 ALA2        0.0000 
     56 N         -36.3400   19.7600    5.2200 N.am      2 ALA2        0.0000 
     57 O         -35.4700   20.3100    4.1300 O.2       2 ALA2        0.0000 
     58 O         -29.1800   15.7600    4.7400 O.2       2 ALA2        0.0000 
     59 O         -30.9700   16.3800    5.7000 O.2       2 ALA2        0.0000 
     60 O         -30.1000   16.9300    4.6000 O.2       2 ALA2        0.0000 
     61 O         -32.7600   17.0000    6.6500 O.2       2 ALA2        0.0000 
     62 O         -31.8900   17.5500    5.5600 O.2       2 ALA2        0.0000 
     63 O         -31.0300   18.1000    4.4700 O.2       2 ALA2        0.0000 
     64 O         -30.1600   18.6500    3.3700 O.2       2 ALA2        0.0000 
     65 N         -35.4100   17.0600    8.7000 N.am      2 ALA2        0.0000 
     66 O         -30.2200   20.3800    2.1400 O.2       2 ALA2        0.0000 
     67 O         -28.4300   18.2400    4.5300 O.2       2 ALA2        0.0000 
     68 O         -30.2200   18.8600    5.4800 O.2       2 ALA2        0.0000 
     69 OD1       -24.7900   16.8000    0.5100 O.co2     3 ASP3        0.0000 
     70 OD1       -26.5800   17.4200    1.4600 O.co2     3 ASP3        0.0000 
     71 OD1       -25.7200   17.9700    0.3700 O.co2     3 ASP3        0.0000 
     72 OD1       -26.7000   19.3400    2.3400 O.co2     3 ASP3        0.0000 
     73 OD1       -25.9000   20.1000    3.3600 O.co2     3 ASP3        0.0000 
     74 OD1       -25.1000   20.8500    4.3700 O.co2     3 ASP3        0.0000 
     75 NZ        -29.3600   19.4100    4.3900 N.4       4 LYS4        0.0000 
     76 NZ        -28.4900   19.9600    3.2900 N.4       4 LYS4        0.0000 
     77 NZ        -29.4200   21.1300    3.1600 N.4       4 LYS4        0.0000 
     78 NZ        -27.6900   20.7200    4.3100 N.4       4 LYS4        0.0000 
     79 CZ        -35.1700   16.2500    0.2600 C.ar      5 PHE5        0.0000 
     80 CZ        -34.3000   16.8100   -0.8300 C.ar      5 PHE5        0.0000 
     81 CZ        -36.0900   17.4300    0.1200 C.ar      5 PHE5        0.0000 
     82 CZ        -35.2300   17.9800   -0.9700 C.ar      5 PHE5        0.0000 
     83 CZ        -34.3600   18.5300   -2.0700 C.ar      5 PHE5        0.0000 
     84 CZ        -37.0200   18.6000   -0.0200 C.ar      5 PHE5        0.0000 
     85 CZ        -37.9400   19.7700   -0.1600 C.ar      5 PHE5        0.0000 
     86 CZ        -34.3600   17.0100    1.2800 C.ar      5 PHE5        0.0000 
     87 CZ        -33.5000   17.5600    0.1800 C.ar      5 PHE5        0.0000 
     88 CZ        -34.4300   18.7300    0.0400 C.ar      5 PHE5        0.0000 
     89 CZ        -33.5600   19.2900   -1.0500 C.ar      5 PHE5        0.0000 
     90 CZ        -36.2200   19.3500    1.0000 C.ar      5 PHE5        0.0000 
     91 CZ        -37.1400   20.5300    0.8600 C.ar      5 PHE5        0.0000 
     92 CZ        -31.7100   15.4200    2.5700 C.ar      5 PHE5        0.0000 
     93 CZ        -30.8500   15.9700    1.4800 C.ar      5 PHE5        0.0000 
     94 CZ        -32.6400   16.5900    2.4300 C.ar      5 PHE5        0.0000 
     95 CZ        -31.7700   17.1400    1.3400 C.ar      5 PHE5        0.0000 
     96 CZ        -33.5600   17.7600    2.2900 C.ar      5 PHE5        0.0000 
     97 CZ        -33.6200   19.4900    1.0600 C.ar      5 PHE5        0.0000 
     98 CZ        -32.7600   20.0400   -0.0300 C.ar      5 PHE5        0.0000 
     99 CZ        -31.8900   20.6000   -1.1300 C.ar      5 PHE5        0.0000 
    100 CZ        -34.5500   20.6600    0.9200 C.ar      5 PHE5        0.0000 
    101 CZ        -32.8800   21.9700    0.8500 C.ar      5 PHE5        0.0000 
    102 CZ        -37.2600   20.9300    5.0800 C.ar      5 PHE5        0.0000 
    103 CA        -36.9000   16.6700   -0.9000 C.3       6 GLY6        0.0000 
    104 CA        -36.0300   17.2300   -1.9900 C.3       6 GLY6        0.0000 
    105 CA        -37.8200   17.8400   -1.0300 C.3       6 GLY6        0.0000 
    106 CA        -33.4400   17.3600   -1.9300 C.3       6 GLY6        0.0000 
    107 CA        -35.2300   16.4600    2.3700 C.3       6 GLY6        0.0000 
    108 CA        -29.9200   14.8000    1.6200 C.3       6 GLY6        0.0000 
    109 CA        -26.5800   18.9400   -1.8800 C.3       6 GLY6        0.0000 
    110 CA        -36.2100   16.3100    7.6900 C.3       6 GLY6        0.0000 
    111 CA        -35.4100   18.5900    5.3600 C.3       6 GLY6        0.0000 
    112 CA        -25.6600   16.2400    1.6000 C.3       6 GLY6        0.0000 
    113 CA        -24.8500   18.5200   -0.7300 C.3       6 GLY6        0.0000 
    114 CA        -34.4900   15.8900    8.8400 C.3       6 GLY6        0.0000 
    115 CA        -33.6200   16.4400    7.7500 C.3       6 GLY6        0.0000 
    116 CA        -34.5500   17.6100    7.6100 C.3       6 GLY6        0.0000 
    117 CA        -33.6800   18.1700    6.5200 C.3       6 GLY6        0.0000 
    118 CA        -26.6400   17.6200    3.5700 C.3       6 GLY6        0.0000 
    119 CA        -25.8400   18.3700    4.5900 C.3       6 GLY6        0.0000 
    120 CA        -27.6300   18.9900    5.5400 C.3       6 GLY6        0.0000 
    121 CA        -26.7700   19.5400    4.4500 C.3       6 GLY6        0.0000 
    122 CA        -25.9600   20.3000    5.4700 C.3       6 GLY6        0.0000 
    123 DU        -35.2900   18.1800    1.1400 H         7 CUB7        0.0000 
    124 DU        -32.7000   18.3200    1.2000 H         7 CUB7        0.0000 
    125 DU        -31.8300   18.8700    0.1100 H         7 CUB7        0.0000 
    126 DU        -30.0400   16.7300    2.4900 H         7 CUB7        0.0000 
    127 DU        -27.4500   16.8600    2.5600 H         7 CUB7        0.0000 
    128 DU        -29.2400   17.4800    3.5100 H         7 CUB7        0.0000 
    129 DU        -28.3700   18.0300    2.4200 H         7 CUB7        0.0000 
    130 DU        -27.5100   18.5900    1.3200 H         7 CUB7        0.0000 
    131 DU        -26.6400   19.1400    0.2300 H         7 CUB7        0.0000 
    132 DU        -28.4300   19.7600    1.1800 H         7 CUB7        0.0000 
    133 DU        -27.5700   18.7900    3.4300 H         7 CUB7        0.0000 
@<TRIPOS>BOND
@<TRIPOS>SUBSTRUCTURE
     1 SER1        1 GROUP   
     2 ALA2        7 GROUP   
     3 ASP3       69 GROUP   
     4 LYS4       75 GROUP   
     5 PHE5       79 GROUP   
     6 GLY6      103 GROUP   
     7 CUB7      123 GROUP   
@<TRIPOS>SET

