#    Name: 6dxp_4_FMN
#    Modification time : Fri May 22 19:35:11 2020

@<TRIPOS>MOLECULE
6dxp_4_FMN
   31    33     1     0     1
SMALL
NO_CHARGES


@<TRIPOS>ATOM
      1 N1        -50.6010   -3.3460    8.0050 N.2       1 FMN301      0.0000 
      2 C2        -49.6350   -3.2770    8.9490 C.2       1 FMN301      0.0000 
      3 O2        -49.9800   -3.4100   10.1430 O.2       1 FMN301      0.0000 
      4 N3        -48.3250   -3.0940    8.6530 N.am      1 FMN301      0.0000 
      5 C4        -47.8710   -2.9640    7.3970 C.2       1 FMN301      0.0000 
      6 O4        -46.6510   -2.7960    7.1610 O.2       1 FMN301      0.0000 
      7 C4A       -48.8630   -3.0400    6.2910 C.2       1 FMN301      0.0000 
      8 N5        -48.5070   -2.9110    4.9830 N.2       1 FMN301      0.0000 
      9 C5A       -49.4540   -2.9480    4.0110 C.ar      1 FMN301      0.0000 
     10 C6        -49.0670   -2.7920    2.6840 C.ar      1 FMN301      0.0000 
     11 C7        -50.0040   -2.8130    1.6550 C.ar      1 FMN301      0.0000 
     12 C7M       -49.4590   -2.6440    0.2600 C.3       1 FMN301      0.0000 
     13 C8        -51.4530   -2.9940    1.9640 C.ar      1 FMN301      0.0000 
     14 C8M       -52.5520   -3.0480    0.9270 C.3       1 FMN301      0.0000 
     15 C9        -51.8260   -3.1420    3.2860 C.ar      1 FMN301      0.0000 
     16 C9A       -50.9010   -3.1160    4.3410 C.ar      1 FMN301      0.0000 
     17 N10       -51.2790   -3.2590    5.7000 N.pl3     1 FMN301      0.0000 
     18 C10       -50.2900   -3.2320    6.6920 C.2       1 FMN301      0.0000 
     19 C1'       -52.6810   -3.4360    6.0980 C.3       1 FMN301      0.0000 
     20 C2'       -53.3460   -2.0580    6.1060 C.3       1 FMN301      0.0000 
     21 O2'       -52.5380   -1.1520    6.8820 O.3       1 FMN301      0.0000 
     22 C3'       -54.7910   -2.1790    6.6280 C.3       1 FMN301      0.0000 
     23 O3'       -55.4290   -3.2260    5.9310 O.3       1 FMN301      0.0000 
     24 C4'       -55.6610   -0.9390    6.4320 C.3       1 FMN301      0.0000 
     25 O4'       -56.9490   -1.0850    7.0790 O.3       1 FMN301      0.0000 
     26 C5'       -55.8900   -0.5930    4.9600 C.3       1 FMN301      0.0000 
     27 O5'       -56.5880    0.6490    4.8870 O.3       1 FMN301      0.0000 
     28 P         -57.2060    1.1190    3.4960 P.3       1 FMN301      0.0000 
     29 O1P       -58.4190    0.2450    3.4780 O.co2     1 FMN301      0.0000 
     30 O2P       -57.5490    2.5610    3.7080 O.co2     1 FMN301      0.0000 
     31 O3P       -56.1140    0.8920    2.4680 O.co2     1 FMN301      0.0000 
@<TRIPOS>BOND
     1    1    2 1    
     2    1   18 2    
     3    2    3 2    
     4    2    4 am   
     5    4    5 am   
     6    5    6 2    
     7    5    7 1    
     8    7    8 2    
     9    7   18 1    
    10    8    9 1    
    11    9   10 ar   
    12    9   16 ar   
    13   10   11 ar   
    14   11   12 1    
    15   11   13 ar   
    16   13   14 1    
    17   13   15 ar   
    18   15   16 ar   
    19   16   17 1    
    20   17   18 1    
    21   17   19 1    
    22   19   20 1    
    23   20   21 1    
    24   20   22 1    
    25   22   23 1    
    26   22   24 1    
    27   24   25 1    
    28   24   26 1    
    29   26   27 1    
    30   27   28 1    
    31   28   29 ar   
    32   28   30 ar   
    33   28   31 ar   
@<TRIPOS>SUBSTRUCTURE
     1 FMN301      1 GROUP   
@<TRIPOS>SET
ATOM$ORANGE STATIC     ATOMS   COLORGROUP SYSTEM 
34 2 2 5 5 7 7 9 9 10 10 11 11 12 12 13 13 14 \
14 15 15 16 16 18 18 19 19 20 20 22 22 24 24 26 26 

