#    Name: 6dxp_3_FMN
#    Modification time : Fri May 22 19:35:07 2020

@<TRIPOS>MOLECULE
6dxp_3_FMN
   31    33     1     0     1
SMALL
NO_CHARGES


@<TRIPOS>ATOM
      1 N1        -33.0040   17.2400    6.6140 N.2       1 FMN301      0.0000 
      2 C2        -33.6220   16.9890    7.7860 C.2       1 FMN301      0.0000 
      3 O2        -32.9030   16.9470    8.8070 O.2       1 FMN301      0.0000 
      4 N3        -34.9530   16.7980    7.8880 N.am      1 FMN301      0.0000 
      5 C4        -35.7490   16.8500    6.8200 C.2       1 FMN301      0.0000 
      6 O4        -36.9730   16.6640    6.9180 O.2       1 FMN301      0.0000 
      7 C4A       -35.1470   17.1350    5.5020 C.2       1 FMN301      0.0000 
      8 N5        -35.8880   17.1950    4.3910 N.2       1 FMN301      0.0000 
      9 C5A       -35.3370   17.4450    3.1950 C.ar      1 FMN301      0.0000 
     10 C6        -36.1790   17.4860    2.0950 C.ar      1 FMN301      0.0000 
     11 C7        -35.6700   17.7270    0.8310 C.ar      1 FMN301      0.0000 
     12 C7M       -36.6490   17.7610   -0.3130 C.3       1 FMN301      0.0000 
     13 C8        -34.2000   17.9440    0.6540 C.ar      1 FMN301      0.0000 
     14 C8M       -33.5750   18.2170   -0.6930 C.3       1 FMN301      0.0000 
     15 C9        -33.3610   17.8960    1.7610 C.ar      1 FMN301      0.0000 
     16 C9A       -33.8650   17.6490    3.0500 C.ar      1 FMN301      0.0000 
     17 N10       -33.0530   17.5890    4.2270 N.pl3     1 FMN301      0.0000 
     18 C10       -33.6870   17.3310    5.4600 C.2       1 FMN301      0.0000 
     19 C1'       -31.5940   17.7730    4.1970 C.3       1 FMN301      0.0000 
     20 C2'       -30.9310   16.5050    3.7160 C.3       1 FMN301      0.0000 
     21 O2'       -31.4240   15.3650    4.4410 O.3       1 FMN301      0.0000 
     22 C3'       -29.4120   16.6760    3.8500 C.3       1 FMN301      0.0000 
     23 O3'       -28.9800   17.8710    3.1850 O.3       1 FMN301      0.0000 
     24 C4'       -28.5970   15.4960    3.3230 C.3       1 FMN301      0.0000 
     25 O4'       -27.2270   15.8920    3.1630 O.3       1 FMN301      0.0000 
     26 C5'       -29.0980   14.9750    1.9920 C.3       1 FMN301      0.0000 
     27 O5'       -28.2940   13.8940    1.5520 O.3       1 FMN301      0.0000 
     28 P         -28.0680   13.6800   -0.0320 P.3       1 FMN301      0.0000 
     29 O1P       -27.0470   14.7870   -0.2800 O.co2     1 FMN301      0.0000 
     30 O2P       -27.6730   12.2120   -0.1460 O.co2     1 FMN301      0.0000 
     31 O3P       -29.4110   13.8990   -0.6770 O.co2     1 FMN301      0.0000 
@<TRIPOS>BOND
     1    1    2 1    
     2    1   18 2    
     3    2    3 2    
     4    2    4 am   
     5    4    5 am   
     6    5    6 2    
     7    5    7 1    
     8    7    8 2    
     9    7   18 1    
    10    8    9 1    
    11    9   10 ar   
    12    9   16 ar   
    13   10   11 ar   
    14   11   12 1    
    15   11   13 ar   
    16   13   14 1    
    17   13   15 ar   
    18   15   16 ar   
    19   16   17 1    
    20   17   18 1    
    21   17   19 1    
    22   19   20 1    
    23   20   21 1    
    24   20   22 1    
    25   22   23 1    
    26   22   24 1    
    27   24   25 1    
    28   24   26 1    
    29   26   27 1    
    30   27   28 1    
    31   28   29 ar   
    32   28   30 ar   
    33   28   31 ar   
@<TRIPOS>SUBSTRUCTURE
     1 FMN301      1 GROUP   
@<TRIPOS>SET
ATOM$ORANGE STATIC     ATOMS   COLORGROUP SYSTEM 
34 2 2 5 5 7 7 9 9 10 10 11 11 12 12 13 13 14 \
14 15 15 16 16 18 18 19 19 20 20 22 22 24 24 26 26 

