#    Name: 6dxp_2_FMN_CAVITY_N1_12
#    Modification time : Fri May 22 19:35:04 2020

@<TRIPOS>MOLECULE
6dxp_2_FMN_CAVITY_N1_12
  106     0     7     0     0
SMALL
NO_CHARGES


@<TRIPOS>ATOM
      1 OG        -25.8200   23.2700   29.7000 O.3       1 SER1        0.0000 
      2 OG        -24.9600   23.8300   28.6100 O.3       1 SER1        0.0000 
      3 OG        -25.8800   25.0000   28.4700 O.3       1 SER1        0.0000 
      4 OG        -26.8100   24.6500   31.6800 O.3       1 SER1        0.0000 
      5 OG        -25.9400   25.2000   30.5800 O.3       1 SER1        0.0000 
      6 N         -21.8800   14.7300   28.5000 N.am      2 ALA2        0.0000 
      7 O         -23.6700   15.3500   29.4600 O.2       2 ALA2        0.0000 
      8 N         -22.8000   15.9000   28.3600 N.am      2 ALA2        0.0000 
      9 O         -24.5900   16.5200   29.3200 O.2       2 ALA2        0.0000 
     10 N         -23.7300   17.0700   28.2200 N.am      2 ALA2        0.0000 
     11 N         -21.0100   13.7600   30.7500 N.am      2 ALA2        0.0000 
     12 N         -21.9400   14.9300   30.6100 N.am      2 ALA2        0.0000 
     13 N         -21.0700   15.4800   29.5200 N.am      2 ALA2        0.0000 
     14 N         -23.7300   15.5500   31.5700 N.am      2 ALA2        0.0000 
     15 N         -22.8600   16.1000   30.4700 N.am      2 ALA2        0.0000 
     16 O         -22.0000   16.6600   29.3800 O.2       2 ALA2        0.0000 
     17 N         -23.7900   17.2800   30.3300 N.am      2 ALA2        0.0000 
     18 O         -22.9300   17.8300   29.2400 O.2       2 ALA2        0.0000 
     19 N         -24.7200   18.4500   30.2000 N.am      2 ALA2        0.0000 
     20 N         -23.8500   19.0000   29.1000 N.am      2 ALA2        0.0000 
     21 O         -22.9900   19.5500   28.0100 O.2       2 ALA2        0.0000 
     22 N         -24.7800   20.1700   28.9600 N.am      2 ALA2        0.0000 
     23 O         -23.9100   20.7300   27.8700 O.2       2 ALA2        0.0000 
     24 N         -26.5700   20.7900   29.9200 N.am      2 ALA2        0.0000 
     25 N         -25.7000   21.3500   28.8300 N.am      2 ALA2        0.0000 
     26 O         -24.8400   21.9000   27.7300 O.2       2 ALA2        0.0000 
     27 N         -26.6300   22.5200   28.6900 N.am      2 ALA2        0.0000 
     28 N         -25.7600   23.0700   27.5900 N.am      2 ALA2        0.0000 
     29 O         -21.2000   17.4100   30.4000 O.2       2 ALA2        0.0000 
     30 O         -22.9900   18.0300   31.3500 O.2       2 ALA2        0.0000 
     31 O         -23.0500   19.7600   30.1200 O.2       2 ALA2        0.0000 
     32 O         -23.1100   21.4800   28.8900 O.2       2 ALA2        0.0000 
     33 O         -24.0300   22.6500   28.7500 O.2       2 ALA2        0.0000 
     34 O         -23.1700   23.2100   27.6500 O.2       2 ALA2        0.0000 
     35 O         -20.3900   18.1700   31.4100 O.2       2 ALA2        0.0000 
     36 O         -21.3200   19.3400   31.2700 O.2       2 ALA2        0.0000 
     37 O         -22.2400   20.5100   31.1400 O.2       2 ALA2        0.0000 
     38 O         -22.3000   22.2400   29.9000 O.2       2 ALA2        0.0000 
     39 O         -24.9600   22.3000   31.9500 O.2       2 ALA2        0.0000 
     40 O         -24.0900   22.8600   30.8600 O.2       2 ALA2        0.0000 
     41 O         -25.8800   23.4800   31.8100 O.2       2 ALA2        0.0000 
     42 O         -25.0200   24.0300   30.7200 O.2       2 ALA2        0.0000 
     43 O         -23.2300   21.8900   33.1100 O.2       2 ALA2        0.0000 
     44 O         -22.3600   22.4400   32.0100 O.2       2 ALA2        0.0000 
     45 O         -23.2900   23.6100   31.8800 O.2       2 ALA2        0.0000 
     46 O         -24.2200   24.7800   31.7400 O.2       2 ALA2        0.0000 
     47 O         -26.0100   25.4000   32.6900 O.2       2 ALA2        0.0000 
     48 O         -25.1400   25.9600   31.6000 O.2       2 ALA2        0.0000 
     49 O         -21.6200   24.9200   31.8000 O.2       2 ALA2        0.0000 
     50 O         -23.4100   25.5400   32.7500 O.2       2 ALA2        0.0000 
     51 N         -24.3400   26.7100   32.6200 N.am      2 ALA2        0.0000 
     52 O         -22.6100   26.2900   33.7700 O.2       2 ALA2        0.0000 
     53 N         -22.6700   28.0200   32.5400 N.am      2 ALA2        0.0000 
     54 OD1       -21.1400   15.6900   31.6300 O.co2     3 ASP3        0.0000 
     55 OD1       -20.2700   16.2400   30.5300 O.co2     3 ASP3        0.0000 
     56 OD1       -18.7200   19.4700   31.3400 O.co2     3 ASP3        0.0000 
     57 OD1       -21.6200   26.4400   28.4500 O.co2     3 ASP3        0.0000 
     58 OD1       -20.7600   27.0000   27.3600 O.co2     3 ASP3        0.0000 
     59 OD1       -23.4100   27.0600   29.4100 O.co2     3 ASP3        0.0000 
     60 OD1       -22.5500   27.6100   28.3200 O.co2     3 ASP3        0.0000 
     61 OD1       -23.4700   27.2600   31.5200 O.co2     3 ASP3        0.0000 
     62 OD1       -22.6100   27.8200   30.4300 O.co2     3 ASP3        0.0000 
     63 NZ        -21.4400   22.7900   28.8100 N.4       4 LYS4        0.0000 
     64 NZ        -21.5000   24.5200   27.5800 N.4       4 LYS4        0.0000 
     65 CZ        -20.1500   14.3100   29.6600 C.ar      5 PHE5        0.0000 
     66 CZ        -22.9300   16.3100   32.5800 C.ar      5 PHE5        0.0000 
     67 CZ        -22.0600   16.8600   31.4900 C.ar      5 PHE5        0.0000 
     68 CZ        -23.8500   17.4800   32.4500 C.ar      5 PHE5        0.0000 
     69 CZ        -23.9100   19.2000   31.2100 C.ar      5 PHE5        0.0000 
     70 CZ        -24.8400   20.3800   31.0700 C.ar      5 PHE5        0.0000 
     71 CZ        -25.7600   21.5500   30.9400 C.ar      5 PHE5        0.0000 
     72 CZ        -23.9100   17.6800   34.5600 C.ar      5 PHE5        0.0000 
     73 CZ        -23.0500   18.2300   33.4600 C.ar      5 PHE5        0.0000 
     74 CZ        -22.1800   18.7900   32.3700 C.ar      5 PHE5        0.0000 
     75 CZ        -23.9700   19.4100   33.3200 C.ar      5 PHE5        0.0000 
     76 CZ        -23.1100   19.9600   32.2300 C.ar      5 PHE5        0.0000 
     77 CZ        -24.0300   21.1300   32.0900 C.ar      5 PHE5        0.0000 
     78 CZ        -19.5900   18.9200   32.4300 C.ar      5 PHE5        0.0000 
     79 CZ        -20.5100   20.0900   32.2900 C.ar      5 PHE5        0.0000 
     80 CZ        -23.1700   20.1600   34.3400 C.ar      5 PHE5        0.0000 
     81 CZ        -22.3000   20.7100   33.2500 C.ar      5 PHE5        0.0000 
     82 CA        -24.6500   16.7200   31.4300 C.3       6 GLY6        0.0000 
     83 CA        -22.2400   22.0300   27.7900 C.3       6 GLY6        0.0000 
     84 CA        -22.3000   23.7600   26.5600 C.3       6 GLY6        0.0000 
     85 CA        -26.6900   22.7200   30.8000 C.3       6 GLY6        0.0000 
     86 CA        -24.0900   24.3800   27.5200 C.3       6 GLY6        0.0000 
     87 CA        -27.6100   23.8900   30.6600 C.3       6 GLY6        0.0000 
     88 CA        -23.2900   25.1300   28.5300 C.3       6 GLY6        0.0000 
     89 CA        -22.4300   25.6900   27.4400 C.3       6 GLY6        0.0000 
     90 CA        -25.0800   25.7500   29.4900 C.3       6 GLY6        0.0000 
     91 CA        -24.2200   26.3100   28.3900 C.3       6 GLY6        0.0000 
     92 CA        -24.2800   26.5100   30.5000 C.3       6 GLY6        0.0000 
     93 DU        -23.9700   20.9300   29.9800 H         7 CUB7        0.0000 
     94 DU        -24.9000   22.1000   29.8400 H         7 CUB7        0.0000 
     95 DU        -23.1700   21.6800   31.0000 H         7 CUB7        0.0000 
     96 DU        -23.2300   23.4100   29.7600 H         7 CUB7        0.0000 
     97 DU        -22.3600   23.9600   28.6700 H         7 CUB7        0.0000 
     98 DU        -24.1500   24.5800   29.6300 H         7 CUB7        0.0000 
     99 DU        -21.4400   21.2700   32.1500 H         7 CUB7        0.0000 
    100 DU        -21.5000   22.9900   30.9200 H         7 CUB7        0.0000 
    101 DU        -20.6400   23.5400   29.8300 H         7 CUB7        0.0000 
    102 DU        -22.4300   24.1600   30.7800 H         7 CUB7        0.0000 
    103 DU        -21.5600   24.7200   29.6900 H         7 CUB7        0.0000 
    104 DU        -23.3500   25.3400   30.6400 H         7 CUB7        0.0000 
    105 DU        -22.4900   25.8900   29.5500 H         7 CUB7        0.0000 
    106 DU        -22.5500   26.0900   31.6600 H         7 CUB7        0.0000 
@<TRIPOS>BOND
@<TRIPOS>SUBSTRUCTURE
     1 SER1        1 GROUP   
     2 ALA2        6 GROUP   
     3 ASP3       54 GROUP   
     4 LYS4       63 GROUP   
     5 PHE5       65 GROUP   
     6 GLY6       82 GROUP   
     7 CUB7       93 GROUP   
@<TRIPOS>SET

