#    Name: 6dxp_1_FMN_CAVITY_N1_4
#    Modification time : Fri May 22 19:35:00 2020

@<TRIPOS>MOLECULE
6dxp_1_FMN_CAVITY_N1_4
  111     0     7     0     0
SMALL
NO_CHARGES


@<TRIPOS>ATOM
      1 OG        -43.5100   -4.0000   30.7400 O.3       1 SER1        0.0000 
      2 OG        -44.4300   -2.8300   30.6000 O.3       1 SER1        0.0000 
      3 OG        -43.5700   -2.2700   29.5000 O.3       1 SER1        0.0000 
      4 OG        -42.7000   -3.2400   31.7500 O.3       1 SER1        0.0000 
      5 OG        -43.6300   -2.0700   31.6200 O.3       1 SER1        0.0000 
      6 O         -46.1600   -2.4100   29.4400 O.2       2 ALA2        0.0000 
      7 O         -47.0900   -1.2400   29.3000 O.2       2 ALA2        0.0000 
      8 O         -44.4900   -1.1000   29.3700 O.2       2 ALA2        0.0000 
      9 O         -48.0100   -1.5900   32.5100 O.2       2 ALA2        0.0000 
     10 O         -47.1500   -1.0300   31.4200 O.2       2 ALA2        0.0000 
     11 O         -46.2800   -0.4800   30.3200 O.2       2 ALA2        0.0000 
     12 O         -45.4200    0.0700   29.2300 O.2       2 ALA2        0.0000 
     13 O         -46.3400    1.2400   29.0900 O.2       2 ALA2        0.0000 
     14 O         -45.4800    1.8000   27.9900 O.2       2 ALA2        0.0000 
     15 N         -46.4700    4.7000   26.6200 N.am      2 ALA2        0.0000 
     16 O         -43.5700   -3.8000   32.8500 O.2       2 ALA2        0.0000 
     17 O         -44.4900   -2.6200   32.7100 O.2       2 ALA2        0.0000 
     18 O         -46.2800   -2.0000   33.6600 O.2       2 ALA2        0.0000 
     19 O         -45.4200   -1.4500   32.5700 O.2       2 ALA2        0.0000 
     20 N         -43.6900   -0.3400   30.3800 N.am      2 ALA2        0.0000 
     21 O         -46.3400   -0.2800   32.4300 O.2       2 ALA2        0.0000 
     22 N         -45.4800    0.2700   31.3400 N.am      2 ALA2        0.0000 
     23 N         -44.6100    0.8300   30.2400 N.am      2 ALA2        0.0000 
     24 O         -46.4000    1.4500   31.2000 O.2       2 ALA2        0.0000 
     25 N         -45.5400    2.0000   30.1100 N.am      2 ALA2        0.0000 
     26 O         -46.4700    3.1700   29.9700 O.2       2 ALA2        0.0000 
     27 N         -45.6000    3.7300   28.8700 N.am      2 ALA2        0.0000 
     28 N         -46.5300    4.9000   28.7300 N.am      2 ALA2        0.0000 
     29 N         -45.6600    5.4500   27.6400 N.am      2 ALA2        0.0000 
     30 N         -48.3200    5.5200   29.6900 N.am      2 ALA2        0.0000 
     31 O         -46.3400   -1.8000   35.7800 O.2       2 ALA2        0.0000 
     32 O         -45.4800   -1.2500   34.6800 O.2       2 ALA2        0.0000 
     33 N         -42.8900    0.4100   31.4000 N.am      2 ALA2        0.0000 
     34 O         -46.4000   -0.0800   34.5400 O.2       2 ALA2        0.0000 
     35 O         -46.4700    1.6500   33.3100 O.2       2 ALA2        0.0000 
     36 O         -47.3900    2.8200   33.1700 O.2       2 ALA2        0.0000 
     37 O         -46.5300    3.3700   32.0800 O.2       2 ALA2        0.0000 
     38 N         -45.6600    3.9300   30.9800 N.am      2 ALA2        0.0000 
     39 N         -44.8000    4.4800   29.8900 N.am      2 ALA2        0.0000 
     40 O         -48.3200    3.9900   33.0300 O.2       2 ALA2        0.0000 
     41 O         -47.4500    4.5500   31.9400 O.2       2 ALA2        0.0000 
     42 O         -46.5900    5.1000   30.8400 O.2       2 ALA2        0.0000 
     43 O         -45.7200    5.6500   29.7500 O.2       2 ALA2        0.0000 
     44 N         -48.3800    5.7200   31.8000 N.am      2 ALA2        0.0000 
     45 N         -47.5100    6.2700   30.7100 N.am      2 ALA2        0.0000 
     46 N         -46.6500    6.8200   29.6100 N.am      2 ALA2        0.0000 
     47 N         -46.6500    5.3000   32.9600 N.am      2 ALA2        0.0000 
     48 N         -45.7800    5.8500   31.8600 N.am      2 ALA2        0.0000 
     49 N         -47.5700    6.4700   32.8200 N.am      2 ALA2        0.0000 
     50 O         -44.9200    4.8800   34.1100 O.2       2 ALA2        0.0000 
     51 N         -45.8400    6.0600   33.9700 N.am      2 ALA2        0.0000 
     52 O         -44.1100    5.6400   35.1300 O.2       2 ALA2        0.0000 
     53 OD1       -46.9000   -4.8900   29.6600 O.co2     3 ASP3        0.0000 
     54 OD1       -45.1800   -5.3100   30.8100 O.co2     3 ASP3        0.0000 
     55 OD1       -46.9700   -4.6900   31.7700 O.co2     3 ASP3        0.0000 
     56 OD1       -46.1000   -4.1300   30.6800 O.co2     3 ASP3        0.0000 
     57 NZ        -48.6900   -4.2700   30.6100 N.4       4 LYS4        0.0000 
     58 NZ        -47.8300   -3.7200   29.5200 N.4       4 LYS4        0.0000 
     59 NZ        -47.8900   -3.5100   31.6300 N.4       4 LYS4        0.0000 
     60 NZ        -47.0300   -2.9600   30.5400 N.4       4 LYS4        0.0000 
     61 NZ        -48.8200   -2.3400   31.4900 N.4       4 LYS4        0.0000 
     62 NZ        -47.9500   -1.7900   30.4000 N.4       4 LYS4        0.0000 
     63 CZ        -42.8200   -1.3200   32.6300 C.ar      5 PHE5        0.0000 
     64 CZ        -44.6100   -0.7000   33.5900 C.ar      5 PHE5        0.0000 
     65 CZ        -43.7500   -0.1400   32.4900 C.ar      5 PHE5        0.0000 
     66 CZ        -45.5400    0.4800   33.4500 C.ar      5 PHE5        0.0000 
     67 CZ        -44.6800    1.0300   32.3500 C.ar      5 PHE5        0.0000 
     68 CZ        -47.3300    1.1000   34.4000 C.ar      5 PHE5        0.0000 
     69 CZ        -45.6000    2.2000   32.2200 C.ar      5 PHE5        0.0000 
     70 CZ        -48.2600    2.2700   34.2700 C.ar      5 PHE5        0.0000 
     71 CZ        -49.1800    3.4400   34.1300 C.ar      5 PHE5        0.0000 
     72 CZ        -46.4600    0.1200   36.6500 C.ar      5 PHE5        0.0000 
     73 CZ        -45.6000    0.6800   35.5600 C.ar      5 PHE5        0.0000 
     74 CZ        -44.7400    1.2300   34.4700 C.ar      5 PHE5        0.0000 
     75 CZ        -46.5300    1.8500   35.4200 C.ar      5 PHE5        0.0000 
     76 CZ        -45.6600    2.4000   34.3300 C.ar      5 PHE5        0.0000 
     77 CZ        -44.8000    2.9600   33.2300 C.ar      5 PHE5        0.0000 
     78 CZ        -46.5900    3.5800   34.1900 C.ar      5 PHE5        0.0000 
     79 CZ        -47.5100    4.7500   34.0500 C.ar      5 PHE5        0.0000 
     80 CZ        -48.4400    5.9200   33.9100 C.ar      5 PHE5        0.0000 
     81 CZ        -43.9300    1.9900   35.4800 C.ar      5 PHE5        0.0000 
     82 CZ        -45.7200    2.6100   36.4400 C.ar      5 PHE5        0.0000 
     83 CZ        -44.8600    3.1600   35.3400 C.ar      5 PHE5        0.0000 
     84 CZ        -43.9900    3.7100   34.2500 C.ar      5 PHE5        0.0000 
     85 CZ        -45.7800    4.3300   35.2100 C.ar      5 PHE5        0.0000 
     86 CZ        -47.6300    6.6800   34.9300 C.ar      5 PHE5        0.0000 
     87 CZ        -43.1900    4.4700   35.2700 C.ar      5 PHE5        0.0000 
     88 CZ        -44.9800    5.0900   36.2200 C.ar      5 PHE5        0.0000 
     89 CZ        -45.9000    6.2600   36.0800 C.ar      5 PHE5        0.0000 
     90 CZ        -46.8300    7.4300   35.9400 C.ar      5 PHE5        0.0000 
     91 CA        -44.3100   -4.7500   29.7200 C.3       6 GLY6        0.0000 
     92 CA        -45.2400   -3.5800   29.5800 C.3       6 GLY6        0.0000 
     93 CA        -44.3700   -3.0300   28.4900 C.3       6 GLY6        0.0000 
     94 CA        -44.3700   -4.5500   31.8300 C.3       6 GLY6        0.0000 
     95 CA        -44.5500    0.6300   28.1300 C.3       6 GLY6        0.0000 
     96 CA        -46.4100    2.9700   27.8600 C.3       6 GLY6        0.0000 
     97 CA        -45.5400    3.5200   26.7600 C.3       6 GLY6        0.0000 
     98 CA        -42.7600   -1.5200   30.5200 C.3       6 GLY6        0.0000 
     99 CA        -44.7400    4.2800   27.7800 C.3       6 GLY6        0.0000 
    100 CA        -47.3900    4.3400   29.8300 C.3       6 GLY6        0.0000 
    101 CA        -44.8600    4.6800   32.0000 C.3       6 GLY6        0.0000 
    102 CA        -44.8000    1.4300   36.5800 C.3       6 GLY6        0.0000 
    103 CA        -44.0500    5.4400   33.0200 C.3       6 GLY6        0.0000 
    104 CA        -44.0500    3.9100   36.3600 C.3       6 GLY6        0.0000 
    105 DU        -45.3000   -3.3800   31.6900 H         7 CUB7        0.0000 
    106 DU        -47.0900   -2.7600   32.6500 H         7 CUB7        0.0000 
    107 DU        -46.2200   -2.2100   31.5500 H         7 CUB7        0.0000 
    108 DU        -45.3600   -1.6500   30.4600 H         7 CUB7        0.0000 
    109 DU        -44.5500   -0.9000   31.4800 H         7 CUB7        0.0000 
    110 DU        -47.2100   -0.8300   33.5300 H         7 CUB7        0.0000 
    111 DU        -45.7200    4.1300   33.0900 H         7 CUB7        0.0000 
@<TRIPOS>BOND
@<TRIPOS>SUBSTRUCTURE
     1 SER1        1 GROUP   
     2 ALA2        6 GROUP   
     3 ASP3       53 GROUP   
     4 LYS4       57 GROUP   
     5 PHE5       63 GROUP   
     6 GLY6       91 GROUP   
     7 CUB7      105 GROUP   
@<TRIPOS>SET

