#    Name: 6dxp_1_FMN
#    Modification time : Fri May 22 19:34:59 2020

@<TRIPOS>MOLECULE
6dxp_1_FMN
   31    33     1     0     1
SMALL
NO_CHARGES


@<TRIPOS>ATOM
      1 N1        -45.7640    2.2140   28.1310 N.2       1 FMN301      0.0000 
      2 C2        -45.6570    3.0100   27.0360 C.2       1 FMN301      0.0000 
      3 O2        -45.8170    2.4760   25.9120 O.2       1 FMN301      0.0000 
      4 N3        -45.3870    4.3270   27.1360 N.am      1 FMN301      0.0000 
      5 C4        -45.2100    4.9030   28.3170 C.2       1 FMN301      0.0000 
      6 O4        -44.9800    6.1080   28.4030 O.2       1 FMN301      0.0000 
      7 C4A       -45.3040    4.1120   29.5430 C.2       1 FMN301      0.0000 
      8 N5        -45.1370    4.6460   30.7700 N.2       1 FMN301      0.0000 
      9 C5A       -45.2000    3.8940   31.8980 C.ar      1 FMN301      0.0000 
     10 C6        -45.0050    4.4990   33.1320 C.ar      1 FMN301      0.0000 
     11 C7        -45.0680    3.7660   34.3010 C.ar      1 FMN301      0.0000 
     12 C7M       -44.8380    4.4770   35.6050 C.3       1 FMN301      0.0000 
     13 C8        -45.3540    2.3160   34.2340 C.ar      1 FMN301      0.0000 
     14 C8M       -45.4360    1.4580   35.4630 C.3       1 FMN301      0.0000 
     15 C9        -45.5530    1.7140   33.0030 C.ar      1 FMN301      0.0000 
     16 C9A       -45.4780    2.4440   31.8110 C.ar      1 FMN301      0.0000 
     17 N10       -45.6770    1.8740   30.5300 N.pl3     1 FMN301      0.0000 
     18 C10       -45.5970    2.6850   29.3830 C.2       1 FMN301      0.0000 
     19 C1'       -45.9380    0.4440   30.3620 C.3       1 FMN301      0.0000 
     20 C2'       -44.6050   -0.3080   30.4380 C.3       1 FMN301      0.0000 
     21 O2'       -43.6060    0.2230   29.5210 O.3       1 FMN301      0.0000 
     22 C3'       -44.8490   -1.8170   30.2190 C.3       1 FMN301      0.0000 
     23 O3'       -45.9440   -2.3270   31.0020 O.3       1 FMN301      0.0000 
     24 C4'       -43.6050   -2.6340   30.5240 C.3       1 FMN301      0.0000 
     25 O4'       -43.8930   -4.0120   30.2480 O.3       1 FMN301      0.0000 
     26 C5'       -43.0950   -2.5400   31.9570 C.3       1 FMN301      0.0000 
     27 O5'       -41.9860   -3.3980   32.0980 O.3       1 FMN301      0.0000 
     28 P         -41.4620   -3.7690   33.5710 P.3       1 FMN301      0.0000 
     29 O1P       -42.5540   -4.7190   33.9790 O.co2     1 FMN301      0.0000 
     30 O2P       -40.0850   -4.3620   33.3280 O.co2     1 FMN301      0.0000 
     31 O3P       -41.5240   -2.4980   34.3990 O.co2     1 FMN301      0.0000 
@<TRIPOS>BOND
     1    1    2 1    
     2    1   18 2    
     3    2    3 2    
     4    2    4 am   
     5    4    5 am   
     6    5    6 2    
     7    5    7 1    
     8    7    8 2    
     9    7   18 1    
    10    8    9 1    
    11    9   10 ar   
    12    9   16 ar   
    13   10   11 ar   
    14   11   12 1    
    15   11   13 ar   
    16   13   14 1    
    17   13   15 ar   
    18   15   16 ar   
    19   16   17 1    
    20   17   18 1    
    21   17   19 1    
    22   19   20 1    
    23   20   21 1    
    24   20   22 1    
    25   22   23 1    
    26   22   24 1    
    27   24   25 1    
    28   24   26 1    
    29   26   27 1    
    30   27   28 1    
    31   28   29 ar   
    32   28   30 ar   
    33   28   31 ar   
@<TRIPOS>SUBSTRUCTURE
     1 FMN301      1 GROUP   
@<TRIPOS>SET
ATOM$ORANGE STATIC     ATOMS   COLORGROUP SYSTEM 
34 2 2 5 5 7 7 9 9 10 10 11 11 12 12 13 13 14 \
14 15 15 16 16 18 18 19 19 20 20 22 22 24 24 26 26 

