#    Name: 6oc1_2_1SU
#    Modification time : Fri May 22 19:34:49 2020

@<TRIPOS>MOLECULE
6oc1_2_1SU
   39    43     1     0     0
SMALL
NO_CHARGES


@<TRIPOS>ATOM
      1 C4         18.4750  -35.7510  -22.2800 C.ar      1 1SU404      0.0000 
      2 C5          8.0890  -32.5390  -24.5990 C.ar      1 1SU404      0.0000 
      3 C6          9.4030  -32.8750  -24.9830 C.ar      1 1SU404      0.0000 
      4 C7         12.3770  -30.6120  -26.2370 C.ar      1 1SU404      0.0000 
      5 C8         13.5360  -29.8560  -26.0910 C.ar      1 1SU404      0.0000 
      6 C10        13.6670  -32.6610  -26.3070 C.ar      1 1SU404      0.0000 
      7 C13        17.8140  -36.5500  -23.2110 C.ar      1 1SU404      0.0000 
      8 C15        14.8590  -31.9510  -26.1630 C.ar      1 1SU404      0.0000 
      9 C17        10.0190  -32.3730  -26.1390 C.ar      1 1SU404      0.0000 
     10 C20         5.6380  -30.3600  -26.2230 C.2       1 1SU404      0.0000 
     11 C21         3.4300  -29.9570  -25.5550 C.2       1 1SU404      0.0000 
     12 C22        16.2770  -33.8530  -26.3360 C.2       1 1SU404      0.0000 
     13 C24         2.2120  -27.7530  -25.8660 C.3       1 1SU404      0.0000 
     14 C26        17.7130  -34.3280  -26.2690 C.3       1 1SU404      0.0000 
     15 C1          9.7440  -30.9640  -28.0980 C.1       1 1SU404      0.0000 
     16 C2         18.8960  -34.4790  -22.6430 C.ar      1 1SU404      0.0000 
     17 C3         18.6520  -34.0170  -23.9360 C.ar      1 1SU404      0.0000 
     18 C9         17.5710  -36.0870  -24.4990 C.ar      1 1SU404      0.0000 
     19 C11         9.2490  -31.4610  -27.0200 C.ar      1 1SU404      0.0000 
     20 C12        17.9920  -34.8200  -24.8660 C.ar      1 1SU404      0.0000 
     21 C14         7.2820  -31.6810  -25.3520 C.ar      1 1SU404      0.0000 
     22 C16        12.4380  -31.9980  -26.3390 C.ar      1 1SU404      0.0000 
     23 C18        14.7760  -30.4740  -26.0530 C.ar      1 1SU404      0.0000 
     24 C19         7.8720  -31.1230  -26.5940 C.ar      1 1SU404      0.0000 
     25 C23         2.0060  -28.4910  -27.1850 C.3       1 1SU404      0.0000 
     26 C25         2.1250  -29.2750  -25.8790 C.3       1 1SU404      0.0000 
     27 C27        17.3520  -37.9240  -22.8310 C.3       1 1SU404      0.0000 
     28 N28        10.1250  -30.4550  -29.0720 N.1       1 1SU404      0.0000 
     29 N29         5.9940  -31.2040  -25.2060 N.2       1 1SU404      0.0000 
     30 N30        16.0840  -32.5410  -26.1460 N.am      1 1SU404      0.0000 
     31 N31         4.4480  -29.7420  -26.3800 N.am      1 1SU404      0.0000 
     32 O32         3.5140  -30.6840  -24.5760 O.2       1 1SU404      0.0000 
     33 O33        15.3850  -34.6630  -26.5400 O.2       1 1SU404      0.0000 
     34 O34        11.2980  -32.7500  -26.4850 O.3       1 1SU404      0.0000 
     35 F35        15.8850  -29.7340  -25.9120 F         1 1SU404      0.0000 
     36 F36        18.3640  -38.6050  -22.3220 F         1 1SU404      0.0000 
     37 F37        16.3880  -37.8180  -21.9350 F         1 1SU404      0.0000 
     38 F38        16.8920  -38.5430  -23.9050 F         1 1SU404      0.0000 
     39 S39         6.8410  -30.1110  -27.4240 S.3       1 1SU404      0.0000 
@<TRIPOS>BOND
     1    1    7 ar   
     2    1   16 ar   
     3    2    3 ar   
     4    2   21 ar   
     5    3    9 ar   
     6    4    5 ar   
     7    4   22 ar   
     8    5   23 ar   
     9    6    8 ar   
    10    6   22 ar   
    11    7   18 ar   
    12    7   27 1    
    13    8   23 ar   
    14    8   30 1    
    15    9   19 ar   
    16    9   34 1    
    17   10   29 2    
    18   10   31 1    
    19   10   39 1    
    20   11   26 1    
    21   11   31 am   
    22   11   32 2    
    23   12   14 1    
    24   12   30 am   
    25   12   33 2    
    26   13   25 1    
    27   13   26 1    
    28   14   20 1    
    29   15   19 1    
    30   15   28 3    
    31   16   17 ar   
    32   17   20 ar   
    33   18   20 ar   
    34   19   24 ar   
    35   21   24 ar   
    36   21   29 1    
    37   22   34 1    
    38   23   35 1    
    39   24   39 1    
    40   25   26 1    
    41   27   36 1    
    42   27   37 1    
    43   27   38 1    
@<TRIPOS>SUBSTRUCTURE
     1 1SU404      1 GROUP   
@<TRIPOS>SET

