#    Name: 5o90_1_SB4
#    Modification time : Fri May 22 19:19:00 2020

@<TRIPOS>MOLECULE
5o90_1_SB4
   25    28     1     0     0
SMALL
NO_CHARGES


@<TRIPOS>ATOM
      1 CA1       -23.8210    5.6990  -27.1460 C.3       1 SB4401      0.0000 
      2 CA2       -24.4150    6.4790  -25.9540 C.3       1 SB4401      0.0000 
      3 NA3       -23.8840    6.0760  -24.5920 N.4       1 SB4401      0.0000 
      4 CA4       -22.3830    6.1190  -24.5250 C.3       1 SB4401      0.0000 
      5 CA5       -21.8080    6.4690  -25.9160 C.3       1 SB4401      0.0000 
      6 CA6       -22.3390    5.5120  -26.9500 C.3       1 SB4401      0.0000 
      7 CB1       -21.2990    4.2960  -32.1500 C.ar      1 SB4401      0.0000 
      8 CB2       -21.0340    3.7250  -33.3890 C.ar      1 SB4401      0.0000 
      9 CB3       -19.8040    3.9530  -33.9730 C.ar      1 SB4401      0.0000 
     10 CB4       -18.8480    4.7280  -33.3300 C.ar      1 SB4401      0.0000 
     11 CB5       -19.1300    5.2870  -32.0850 C.ar      1 SB4401      0.0000 
     12 CB6       -20.3490    5.0530  -31.4780 C.ar      1 SB4401      0.0000 
     13 FB7       -19.5280    3.4120  -35.1730 F         1 SB4401      0.0000 
     14 CC1       -20.9700    2.4680  -29.6490 C.ar      1 SB4401      0.0000 
     15 CC2       -21.7940    3.4530  -29.1680 C.ar      1 SB4401      0.0000 
     16 NC3       -22.8530    3.0240  -28.4780 N.ar      1 SB4401      0.0000 
     17 CC4       -23.1170    1.7000  -28.3090 C.ar      1 SB4401      0.0000 
     18 NC5       -22.2970    0.7450  -28.8360 N.ar      1 SB4401      0.0000 
     19 CC6       -21.2270    1.1360  -29.4950 C.ar      1 SB4401      0.0000 
     20 NC7       -24.3040    1.3200  -27.5580 N.pl3     1 SB4401      0.0000 
     21 ND1       -21.6620    5.7340  -28.2670 N.pl3     1 SB4401      0.0000 
     22 CD2       -21.1770    6.9270  -28.6410 C.2       1 SB4401      0.0000 
     23 ND3       -20.6400    6.7910  -29.8450 N.2       1 SB4401      0.0000 
     24 CD4       -20.7990    5.5230  -30.2380 C.2       1 SB4401      0.0000 
     25 CD5       -21.4750    4.8320  -29.2340 C.2       1 SB4401      0.0000 
@<TRIPOS>BOND
     1    1    2 1    
     2    1    6 1    
     3    2    3 1    
     4    3    4 1    
     5    4    5 1    
     6    5    6 1    
     7    6   21 1    
     8    7    8 ar   
     9    7   12 ar   
    10    8    9 ar   
    11    9   10 ar   
    12    9   13 1    
    13   10   11 ar   
    14   11   12 ar   
    15   12   24 1    
    16   14   15 ar   
    17   14   19 ar   
    18   15   16 ar   
    19   15   25 1    
    20   16   17 ar   
    21   17   18 ar   
    22   17   20 1    
    23   18   19 ar   
    24   21   22 1    
    25   21   25 1    
    26   22   23 2    
    27   23   24 1    
    28   24   25 2    
@<TRIPOS>SUBSTRUCTURE
     1 SB4401      1 GROUP   
@<TRIPOS>SET

