#    Name: 6e6f_1_GNP
#    Modification time : Fri May 22 19:26:23 2020

@<TRIPOS>MOLECULE
6e6f_1_GNP
   32    34     1     0     1
SMALL
NO_CHARGES


@<TRIPOS>ATOM
      1 PG        -48.4120  -47.5610  -38.4090 P.3       1 GNP201      0.0000 
      2 O1G       -47.1440  -47.9540  -39.1340 O.co2     1 GNP201      0.0000 
      3 O2G       -49.0100  -48.5940  -37.4590 O.co2     1 GNP201      0.0000 
      4 O3G       -48.2600  -46.2990  -37.5820 O.co2     1 GNP201      0.0000 
      5 N3B       -49.4580  -47.2180  -39.5650 N.3       1 GNP201      0.0000 
      6 PB        -50.2450  -48.3470  -40.3420 P.3       1 GNP201      0.0000 
      7 O1B       -49.4330  -48.9330  -41.4260 O.co2     1 GNP201      0.0000 
      8 O2B       -50.8260  -49.2430  -39.3110 O.co2     1 GNP201      0.0000 
      9 O3A       -51.4200  -47.6580  -40.9970 O.3       1 GNP201      0.0000 
     10 PA        -52.7910  -47.6230  -40.3370 P.3       1 GNP201      0.0000 
     11 O1A       -53.4450  -48.9480  -40.5200 O.co2     1 GNP201      0.0000 
     12 O2A       -52.6630  -47.0890  -38.9610 O.co2     1 GNP201      0.0000 
     13 O5'       -53.5670  -46.5330  -41.1730 O.3       1 GNP201      0.0000 
     14 C5'       -52.8740  -45.3850  -41.5980 C.3       1 GNP201      0.0000 
     15 C4'       -53.9230  -44.3950  -41.9800 C.3       1 GNP201      0.0000 
     16 O4'       -54.1740  -44.5210  -43.3990 O.3       1 GNP201      0.0000 
     17 C3'       -55.2070  -44.7460  -41.2330 C.3       1 GNP201      0.0000 
     18 O3'       -55.6770  -43.6450  -40.4770 O.3       1 GNP201      0.0000 
     19 C2'       -56.2050  -45.1770  -42.3130 C.3       1 GNP201      0.0000 
     20 O2'       -57.4880  -44.5940  -42.1810 O.3       1 GNP201      0.0000 
     21 C1'       -55.5740  -44.7050  -43.6210 C.3       1 GNP201      0.0000 
     22 N9        -55.8500  -45.6510  -44.7130 N.pl3     1 GNP201      0.0000 
     23 C8        -55.4810  -46.9710  -44.7810 C.2       1 GNP201      0.0000 
     24 N7        -55.8580  -47.5690  -45.8700 N.2       1 GNP201      0.0000 
     25 C5        -56.5350  -46.5880  -46.5750 C.2       1 GNP201      0.0000 
     26 C6        -57.1770  -46.6460  -47.8410 C.2       1 GNP201      0.0000 
     27 O6        -57.2720  -47.6190  -48.6130 O.2       1 GNP201      0.0000 
     28 N1        -57.7490  -45.4330  -48.2140 N.am      1 GNP201      0.0000 
     29 C2        -57.6950  -44.3130  -47.4420 C.2       1 GNP201      0.0000 
     30 N2        -58.2990  -43.2350  -47.9400 N.pl3     1 GNP201      0.0000 
     31 N3        -57.0960  -44.2390  -46.2580 N.2       1 GNP201      0.0000 
     32 C4        -56.5420  -45.4100  -45.8810 C.2       1 GNP201      0.0000 
@<TRIPOS>BOND
     1    1    2 ar   
     2    1    3 ar   
     3    1    4 ar   
     4    1    5 1    
     5    5    6 1    
     6    6    7 ar   
     7    6    8 ar   
     8    6    9 1    
     9    9   10 1    
    10   10   11 ar   
    11   10   12 ar   
    12   10   13 1    
    13   13   14 1    
    14   14   15 1    
    15   15   16 1    
    16   15   17 1    
    17   16   21 1    
    18   17   18 1    
    19   17   19 1    
    20   19   20 1    
    21   19   21 1    
    22   21   22 1    
    23   22   23 1    
    24   22   32 1    
    25   23   24 2    
    26   24   25 1    
    27   25   26 1    
    28   25   32 2    
    29   26   27 2    
    30   26   28 am   
    31   28   29 1    
    32   29   30 1    
    33   29   31 2    
    34   31   32 1    
@<TRIPOS>SUBSTRUCTURE
     1 GNP201      1 GROUP   
@<TRIPOS>SET
ATOM$ORANGE STATIC     ATOMS   COLORGROUP SYSTEM 
20 14 14 15 15 17 17 19 19 21 21 23 23 25 25 26 26 29 \
29 32 32 

