#    Name: 6e6f_1_GNP_CAVITY_N1_ALL
#    Modification time : Fri May 22 19:26:25 2020

@<TRIPOS>MOLECULE
6e6f_1_GNP_CAVITY_N1_ALL
   90     0     7     0     0
SMALL
NO_CHARGES


@<TRIPOS>ATOM
      1 OG        -47.2200  -48.3600  -36.6400 O.3       1 SER1        0.0000 
      2 OG        -49.3700  -45.8100  -36.9700 O.3       1 SER1        0.0000 
      3 OG        -48.0200  -46.4400  -37.0600 O.3       1 SER1        0.0000 
      4 N         -56.5600  -46.3000  -41.7000 N.am      2 ALA2        0.0000 
      5 N         -57.3500  -44.3800  -42.1200 N.am      2 ALA2        0.0000 
      6 N         -56.7900  -43.0900  -42.6400 N.am      2 ALA2        0.0000 
      7 N         -54.0700  -44.3600  -42.8200 N.am      2 ALA2        0.0000 
      8 N         -56.8300  -47.1600  -39.7700 N.am      2 ALA2        0.0000 
      9 O         -54.1100  -48.4200  -39.9600 O.2       2 ALA2        0.0000 
     10 O         -52.7600  -49.0500  -40.0500 O.2       2 ALA2        0.0000 
     11 N         -56.2600  -45.8700  -40.2900 N.am      2 ALA2        0.0000 
     12 O         -50.8300  -48.4000  -40.6600 O.2       2 ALA2        0.0000 
     13 N         -55.7000  -44.5800  -40.8100 N.am      2 ALA2        0.0000 
     14 N         -52.9800  -45.8400  -40.9900 N.am      2 ALA2        0.0000 
     15 N         -55.1300  -43.2900  -41.3200 N.am      2 ALA2        0.0000 
     16 N         -52.4200  -44.5500  -41.5100 N.am      2 ALA2        0.0000 
     17 O         -55.1700  -47.3600  -38.4600 O.2       2 ALA2        0.0000 
     18 N         -55.9600  -45.4400  -38.8900 N.am      2 ALA2        0.0000 
     19 N         -55.4000  -44.1500  -39.4000 N.am      2 ALA2        0.0000 
     20 O         -47.2600  -47.9400  -39.9600 O.2       2 ALA2        0.0000 
     21 O         -48.3200  -46.8700  -38.4600 O.2       2 ALA2        0.0000 
     22 O         -46.9600  -47.5000  -38.5600 O.2       2 ALA2        0.0000 
     23 O         -47.7500  -45.5800  -38.9800 O.2       2 ALA2        0.0000 
     24 N         -46.4300  -50.2800  -36.2100 N.am      2 ALA2        0.0000 
     25 OD1       -50.5400  -47.9600  -39.2600 O.co2     3 ASP3        0.0000 
     26 OD1       -49.1800  -48.5900  -39.3500 O.co2     3 ASP3        0.0000 
     27 OD1       -48.8800  -48.1600  -37.9500 O.co2     3 ASP3        0.0000 
     28 OD1       -47.5200  -48.7900  -38.0400 O.co2     3 ASP3        0.0000 
     29 OD1       -45.6000  -48.1300  -38.6500 O.co2     3 ASP3        0.0000 
     30 NZ        -54.6100  -46.0700  -38.9800 N.4       4 LYS4        0.0000 
     31 NZ        -54.0400  -44.7800  -39.5000 N.4       4 LYS4        0.0000 
     32 NZ        -52.6900  -45.4100  -39.5900 N.4       4 LYS4        0.0000 
     33 NZ        -51.3300  -46.0400  -39.6800 N.4       4 LYS4        0.0000 
     34 NZ        -54.8400  -42.8600  -39.9200 N.4       4 LYS4        0.0000 
     35 NZ        -53.4800  -43.4900  -40.0100 N.4       4 LYS4        0.0000 
     36 NZ        -52.3900  -44.9800  -38.1800 N.4       4 LYS4        0.0000 
     37 NZ        -51.0300  -45.6100  -38.2800 N.4       4 LYS4        0.0000 
     38 NZ        -49.6700  -46.2400  -38.3700 N.4       4 LYS4        0.0000 
     39 NZ        -48.8100  -44.5200  -37.4800 N.4       4 LYS4        0.0000 
     40 CZ        -56.5900  -45.8800  -45.0200 C.ar      5 PHE5        0.0000 
     41 CZ        -58.7400  -43.3300  -45.3500 C.ar      5 PHE5        0.0000 
     42 CZ        -57.3900  -43.9600  -45.4500 C.ar      5 PHE5        0.0000 
     43 CZ        -57.6500  -44.8200  -43.5200 C.ar      5 PHE5        0.0000 
     44 CZ        -56.2900  -45.4500  -43.6200 C.ar      5 PHE5        0.0000 
     45 CZ        -58.4500  -42.8900  -43.9500 C.ar      5 PHE5        0.0000 
     46 CZ        -57.0900  -43.5300  -44.0400 C.ar      5 PHE5        0.0000 
     47 CZ        -53.8100  -47.9900  -38.5500 C.ar      5 PHE5        0.0000 
     48 CZ        -52.4600  -48.6200  -38.6500 C.ar      5 PHE5        0.0000 
     49 CZ        -53.2500  -46.7000  -39.0700 C.ar      5 PHE5        0.0000 
     50 CZ        -51.8900  -47.3300  -39.1700 C.ar      5 PHE5        0.0000 
     51 CZ        -52.9500  -46.2700  -37.6700 C.ar      5 PHE5        0.0000 
     52 CZ        -50.7300  -45.1800  -36.8700 C.ar      5 PHE5        0.0000 
     53 CA        -59.0400  -43.7600  -46.7600 C.3       6 GLY6        0.0000 
     54 CA        -57.6800  -44.3900  -46.8500 C.3       6 GLY6        0.0000 
     55 CA        -59.8300  -41.8400  -47.1800 C.3       6 GLY6        0.0000 
     56 CA        -58.4800  -42.4700  -47.2700 C.3       6 GLY6        0.0000 
     57 CA        -57.1200  -43.1000  -47.3700 C.3       6 GLY6        0.0000 
     58 CA        -57.9100  -41.1800  -47.7900 C.3       6 GLY6        0.0000 
     59 CA        -55.2400  -46.5100  -45.1200 C.3       6 GLY6        0.0000 
     60 CA        -60.1000  -42.7000  -45.2600 C.3       6 GLY6        0.0000 
     61 CA        -56.0300  -44.5900  -45.5400 C.3       6 GLY6        0.0000 
     62 CA        -55.4600  -43.3000  -46.0600 C.3       6 GLY6        0.0000 
     63 CA        -56.2600  -41.3800  -46.4800 C.3       6 GLY6        0.0000 
     64 CA        -54.9400  -46.0800  -43.7100 C.3       6 GLY6        0.0000 
     65 CA        -55.7300  -44.1600  -44.1300 C.3       6 GLY6        0.0000 
     66 CA        -54.3700  -44.7900  -44.2300 C.3       6 GLY6        0.0000 
     67 CA        -55.1700  -42.8700  -44.6500 C.3       6 GLY6        0.0000 
     68 CA        -55.2000  -46.9300  -41.7900 C.3       6 GLY6        0.0000 
     69 CA        -53.8500  -47.5700  -41.8800 C.3       6 GLY6        0.0000 
     70 CA        -58.7100  -43.7500  -42.0300 C.3       6 GLY6        0.0000 
     71 CA        -53.2800  -46.2800  -42.4000 C.3       6 GLY6        0.0000 
     72 CA        -53.5100  -43.0700  -43.3400 C.3       6 GLY6        0.0000 
     73 CA        -56.0300  -49.0800  -39.3500 C.3       6 GLY6        0.0000 
     74 CA        -55.4700  -47.7900  -39.8700 C.3       6 GLY6        0.0000 
     75 CA        -54.9100  -46.5000  -40.3800 C.3       6 GLY6        0.0000 
     76 CA        -53.5500  -47.1300  -40.4800 C.3       6 GLY6        0.0000 
     77 CA        -52.1900  -47.7600  -40.5700 C.3       6 GLY6        0.0000 
     78 CA        -51.6300  -46.4700  -41.0900 C.3       6 GLY6        0.0000 
     79 CA        -49.9700  -46.6700  -39.7800 C.3       6 GLY6        0.0000 
     80 CA        -46.1600  -49.4200  -38.1300 C.3       6 GLY6        0.0000 
     81 CA        -46.3900  -46.2100  -39.0800 C.3       6 GLY6        0.0000 
     82 DU        -58.1800  -42.0400  -45.8700 H         7 CUB7        0.0000 
     83 DU        -56.8200  -42.6700  -45.9600 H         7 CUB7        0.0000 
     84 DU        -56.5200  -42.2400  -44.5600 H         7 CUB7        0.0000 
     85 DU        -56.0000  -45.0100  -42.2100 H         7 CUB7        0.0000 
     86 DU        -54.6400  -45.6500  -42.3100 H         7 CUB7        0.0000 
     87 DU        -55.4300  -43.7200  -42.7300 H         7 CUB7        0.0000 
     88 DU        -54.8700  -42.4300  -43.2500 H         7 CUB7        0.0000 
     89 DU        -54.3400  -45.2100  -40.9000 H         7 CUB7        0.0000 
     90 DU        -53.7800  -43.9200  -41.4200 H         7 CUB7        0.0000 
@<TRIPOS>BOND
@<TRIPOS>SUBSTRUCTURE
     1 SER1        1 GROUP   
     2 ALA2        4 GROUP   
     3 ASP3       25 GROUP   
     4 LYS4       30 GROUP   
     5 PHE5       40 GROUP   
     6 GLY6       53 GROUP   
     7 CUB7       82 GROUP   
@<TRIPOS>SET

