#    Name: 5mze_4_8DG
#    Modification time : Fri May 22 19:13:35 2020

@<TRIPOS>MOLECULE
5mze_4_8DG
   32    34     1     0     0
SMALL
NO_CHARGES


@<TRIPOS>ATOM
      1 PG         34.1580  -10.5110   45.7960 P.3       1 8DG202      0.0000 
      2 O1G        33.0110  -11.2360   45.2330 O.co2     1 8DG202      0.0000 
      3 O2G        35.2890  -11.3220   46.2330 O.co2     1 8DG202      0.0000 
      4 O3G        33.9520   -9.1800   46.4170 O.co2     1 8DG202      0.0000 
      5 O3B        34.8330   -9.9070   44.4400 O.3       1 8DG202      0.0000 
      6 PB         33.8140   -9.6060   43.2700 P.3       1 8DG202      0.0000 
      7 O1B        32.8710  -10.7640   43.1950 O.co2     1 8DG202      0.0000 
      8 O2B        33.3300   -8.2190   43.4250 O.co2     1 8DG202      0.0000 
      9 O3A        34.6030   -9.7340   41.8760 O.3       1 8DG202      0.0000 
     10 PA         35.5150   -8.5730   41.3500 P.3       1 8DG202      0.0000 
     11 O1A        34.8150   -7.7490   40.3620 O.co2     1 8DG202      0.0000 
     12 O2A        36.0840   -7.9110   42.5500 O.co2     1 8DG202      0.0000 
     13 O5'        36.6680   -9.4230   40.5960 O.3       1 8DG202      0.0000 
     14 C5'        37.0820   -9.0620   39.2650 C.3       1 8DG202      0.0000 
     15 C4'        36.9170  -10.2810   38.3530 C.3       1 8DG202      0.0000 
     16 O4'        37.4050   -9.9680   37.0190 O.3       1 8DG202      0.0000 
     17 C3'        37.7550  -11.4690   38.8250 C.3       1 8DG202      0.0000 
     18 O3'        37.0520  -12.6480   38.3570 O.3       1 8DG202      0.0000 
     19 C2'        39.0890  -11.2310   38.0960 C.3       1 8DG202      0.0000 
     20 C1'        38.5270  -10.8250   36.7070 C.3       1 8DG202      0.0000 
     21 N9         39.3110   -9.9190   35.7750 N.am      1 8DG202      0.0000 
     22 C8         39.9780   -8.7710   35.9500 C.2       1 8DG202      0.0000 
     23 N7         40.4620   -8.3140   34.7770 N.am      1 8DG202      0.0000 
     24 C5         40.0650   -9.1890   33.8600 C.2       1 8DG202      0.0000 
     25 C6         40.2620   -9.2310   32.5540 C.2       1 8DG202      0.0000 
     26 O6         40.9110   -8.3440   32.0050 O.2       1 8DG202      0.0000 
     27 N1         39.7260  -10.2960   31.8040 N.am      1 8DG202      0.0000 
     28 C2         38.9900  -11.2760   32.4360 C.2       1 8DG202      0.0000 
     29 N2         38.4600  -12.3080   31.7760 N.pl3     1 8DG202      0.0000 
     30 N3         38.8350  -11.1780   33.7580 N.2       1 8DG202      0.0000 
     31 C4         39.3660  -10.1680   34.4650 C.2       1 8DG202      0.0000 
     32 O8         40.1540   -8.1650   37.1490 O.2       1 8DG202      0.0000 
@<TRIPOS>BOND
     1    1    2 ar   
     2    1    3 ar   
     3    1    4 ar   
     4    1    5 1    
     5    5    6 1    
     6    6    7 ar   
     7    6    8 ar   
     8    6    9 1    
     9    9   10 1    
    10   10   11 ar   
    11   10   12 ar   
    12   10   13 1    
    13   13   14 1    
    14   14   15 1    
    15   15   16 1    
    16   15   17 1    
    17   16   20 1    
    18   17   18 1    
    19   17   19 1    
    20   19   20 1    
    21   20   21 1    
    22   21   22 am   
    23   21   31 1    
    24   22   23 am   
    25   22   32 2    
    26   23   24 1    
    27   24   25 1    
    28   24   31 2    
    29   25   26 2    
    30   25   27 am   
    31   27   28 1    
    32   28   29 1    
    33   28   30 2    
    34   30   31 1    
@<TRIPOS>SUBSTRUCTURE
     1 8DG202      1 GROUP   
@<TRIPOS>SET

