#    Name: 5mze_4_8DG_CAVITY_N1_8
#    Modification time : Fri May 22 19:13:37 2020

@<TRIPOS>MOLECULE
5mze_4_8DG_CAVITY_N1_8
   77     0     6     0     0
SMALL
NO_CHARGES


@<TRIPOS>ATOM
      1 N          38.4100  -11.8800   33.5300 N.am      1 ALA2        0.0000 
      2 O          39.0200  -10.8100   34.3800 O.2       1 ALA2        0.0000 
      3 O          37.9600  -11.5400   36.0600 O.2       1 ALA2        0.0000 
      4 O          36.6200  -11.2700   36.6800 O.2       1 ALA2        0.0000 
      5 N          36.9100  -12.2800   37.7500 N.am      1 ALA2        0.0000 
      6 O          39.3300   -8.7200   34.1500 O.2       1 ALA2        0.0000 
      7 O          37.9900   -8.4500   34.7700 O.2       1 ALA2        0.0000 
      8 O          38.2800   -9.4600   35.8400 O.2       1 ALA2        0.0000 
      9 N          38.8600  -11.4700   37.9900 N.am      1 ALA2        0.0000 
     10 N          37.5200  -11.2000   38.6000 N.am      1 ALA2        0.0000 
     11 N          36.1800  -10.9300   39.2200 N.am      1 ALA2        0.0000 
     12 OD1        35.8900   -9.9200   38.1400 O.co2     2 ASP3        0.0000 
     13 OD1        36.5000   -8.8400   38.9900 O.co2     2 ASP3        0.0000 
     14 OD1        35.1600   -8.5700   39.6100 O.co2     2 ASP3        0.0000 
     15 OD1        34.1100   -9.3100   41.3000 O.co2     2 ASP3        0.0000 
     16 OD1        34.4300   -7.2200   41.0700 O.co2     2 ASP3        0.0000 
     17 OD1        33.0900   -6.9500   41.6900 O.co2     2 ASP3        0.0000 
     18 OD1        36.0500   -8.5000   41.5300 O.co2     2 ASP3        0.0000 
     19 OD1        34.7100   -8.2300   42.1500 O.co2     2 ASP3        0.0000 
     20 OD1        33.3700   -7.9600   42.7600 O.co2     2 ASP3        0.0000 
     21 OD1        35.0000   -9.2400   43.2200 O.co2     2 ASP3        0.0000 
     22 OD1        33.6600   -8.9700   43.8300 O.co2     2 ASP3        0.0000 
     23 OD1        35.0300   -6.1400   41.9200 O.co2     2 ASP3        0.0000 
     24 OD1        33.6900   -5.8700   42.5400 O.co2     2 ASP3        0.0000 
     25 OD1        36.6600   -7.4200   42.3800 O.co2     2 ASP3        0.0000 
     26 OD1        36.9800   -5.3400   42.1500 O.co2     2 ASP3        0.0000 
     27 NZ         39.4600  -11.1500   31.8400 N.4       3 LYS4        0.0000 
     28 NZ         32.7700   -9.0300   41.9100 N.4       3 LYS4        0.0000 
     29 NZ         33.0500  -10.0400   42.9900 N.4       3 LYS4        0.0000 
     30 NZ         32.0300   -7.6900   43.3800 N.4       3 LYS4        0.0000 
     31 NZ         32.3200   -8.6900   44.4500 N.4       3 LYS4        0.0000 
     32 CZ         40.0700  -10.0700   32.6900 C.ar      4 PHE5        0.0000 
     33 CZ         38.7300   -9.8000   33.3000 C.ar      4 PHE5        0.0000 
     34 CZ         40.3600  -11.0800   33.7600 C.ar      4 PHE5        0.0000 
     35 CZ         40.6800   -8.9900   33.5400 C.ar      4 PHE5        0.0000 
     36 CZ         40.9600  -10.0000   34.6100 C.ar      4 PHE5        0.0000 
     37 CZ         41.0000   -6.9100   33.3100 C.ar      4 PHE5        0.0000 
     38 CZ         39.6500   -6.6400   33.9300 C.ar      4 PHE5        0.0000 
     39 CZ         41.2800   -7.9200   34.3800 C.ar      4 PHE5        0.0000 
     40 CZ         39.9400   -7.6400   35.0000 C.ar      4 PHE5        0.0000 
     41 CZ         41.5700   -8.9200   35.4600 C.ar      4 PHE5        0.0000 
     42 CZ         40.2300   -8.6500   36.0700 C.ar      4 PHE5        0.0000 
     43 CZ         38.8900   -8.3800   36.6900 C.ar      4 PHE5        0.0000 
     44 CZ         37.5500   -8.1100   37.3000 C.ar      4 PHE5        0.0000 
     45 CZ         36.2100   -7.8400   37.9200 C.ar      4 PHE5        0.0000 
     46 CZ         37.8400   -9.1100   38.3800 C.ar      4 PHE5        0.0000 
     47 CZ         39.4700  -10.3900   38.8300 C.ar      4 PHE5        0.0000 
     48 CZ         38.1300  -10.1200   39.4500 C.ar      4 PHE5        0.0000 
     49 CZ         36.7900   -9.8500   40.0700 C.ar      4 PHE5        0.0000 
     50 CZ         41.8900   -6.8400   35.2300 C.ar      4 PHE5        0.0000 
     51 CZ         40.5500   -6.5700   35.8500 C.ar      4 PHE5        0.0000 
     52 CZ         42.1800   -7.8500   36.3000 C.ar      4 PHE5        0.0000 
     53 CZ         37.1100   -7.7700   39.8400 C.ar      4 PHE5        0.0000 
     54 CZ         37.4000   -8.7700   40.9100 C.ar      4 PHE5        0.0000 
     55 CZ         37.7100   -6.6900   40.6900 C.ar      4 PHE5        0.0000 
     56 CA         39.7500  -12.1500   32.9100 C.3       5 GLY6        0.0000 
     57 CA         40.6400  -12.0900   34.8300 C.3       5 GLY6        0.0000 
     58 CA         39.3000  -11.8100   35.4500 C.3       5 GLY6        0.0000 
     59 CA         39.5900  -12.8200   36.5200 C.3       5 GLY6        0.0000 
     60 CA         38.2500  -12.5500   37.1400 C.3       5 GLY6        0.0000 
     61 CA         41.2500  -11.0100   35.6800 C.3       5 GLY6        0.0000 
     62 CA         39.9100  -10.7400   36.3000 C.3       5 GLY6        0.0000 
     63 CA         40.2000  -11.7400   37.3700 C.3       5 GLY6        0.0000 
     64 CA         39.1800   -9.3900   37.7600 C.3       5 GLY6        0.0000 
     65 CA         40.8100  -10.6700   38.2200 C.3       5 GLY6        0.0000 
     66 CA         35.4500   -9.5800   40.6800 C.3       5 GLY6        0.0000 
     67 CA         34.3900  -10.3100   42.3700 C.3       5 GLY6        0.0000 
     68 CA         40.8400   -7.5700   36.9200 C.3       5 GLY6        0.0000 
     69 CA         41.1300   -8.5800   37.9900 C.3       5 GLY6        0.0000 
     70 CA         38.4500   -8.0400   39.2300 C.3       5 GLY6        0.0000 
     71 CA         35.7700   -7.4900   40.4600 C.3       5 GLY6        0.0000 
     72 CA         36.3400   -9.5100   42.6000 C.3       5 GLY6        0.0000 
     73 CA         36.3700   -6.4200   41.3100 C.3       5 GLY6        0.0000 
     74 CA         36.6900   -4.3300   41.0800 C.3       5 GLY6        0.0000 
     75 DU         39.6200   -9.7300   35.2200 H         6 CUB7        0.0000 
     76 DU         38.5700  -10.4600   36.9100 H         6 CUB7        0.0000 
     77 DU         37.2300  -10.1900   37.5300 H         6 CUB7        0.0000 
@<TRIPOS>BOND
@<TRIPOS>SUBSTRUCTURE
     1 ALA2        1 GROUP   
     2 ASP3       12 GROUP   
     3 LYS4       27 GROUP   
     4 PHE5       32 GROUP   
     5 GLY6       56 GROUP   
     6 CUB7       75 GROUP   
@<TRIPOS>SET

