#    Name: 5mze_2_8DG_CAVITY_N1_ALL
#    Modification time : Fri May 22 19:13:33 2020

@<TRIPOS>MOLECULE
5mze_2_8DG_CAVITY_N1_ALL
  114     0     7     0     0
SMALL
NO_CHARGES


@<TRIPOS>ATOM
      1 OG          7.1400   -3.6100    5.6600 O.3       1 SER1        0.0000 
      2 OG          7.4300   -4.6200    6.7300 O.3       1 SER1        0.0000 
      3 OG          6.0900   -4.3500    7.3500 O.3       1 SER1        0.0000 
      4 OG          7.7200   -5.6300    7.8100 O.3       1 SER1        0.0000 
      5 OG          9.4100   -0.7200    5.6700 O.3       1 SER1        0.0000 
      6 OG          9.7000   -1.7300    6.7400 O.3       1 SER1        0.0000 
      7 O          11.2600   -9.9500    2.8000 O.2       2 ALA2        0.0000 
      8 O          10.8100   -9.6100    5.3300 O.2       2 ALA2        0.0000 
      9 N           9.0000  -12.0900    9.7900 N.am      2 ALA2        0.0000 
     10 N           9.2800  -13.0900   10.8600 N.am      2 ALA2        0.0000 
     11 N           7.9400  -12.8200   11.4700 N.am      2 ALA2        0.0000 
     12 N          10.9400  -11.2800   10.0200 N.am      2 ALA2        0.0000 
     13 O           9.8900  -12.0200   11.7100 O.2       2 ALA2        0.0000 
     14 O           8.5500  -11.7500   12.3200 O.2       2 ALA2        0.0000 
     15 O          10.5000  -10.9400   12.5500 O.2       2 ALA2        0.0000 
     16 O           9.1600  -10.6700   13.1700 O.2       2 ALA2        0.0000 
     17 O           8.1100  -11.4000   14.8600 O.2       2 ALA2        0.0000 
     18 O           8.4000  -12.4100   15.9300 O.2       2 ALA2        0.0000 
     19 N          11.7700   -3.3500    4.6600 N.am      2 ALA2        0.0000 
     20 N          12.0600   -4.3600    5.7300 N.am      2 ALA2        0.0000 
     21 N          15.0300   -5.9100    5.5800 N.am      2 ALA2        0.0000 
     22 N          13.6900   -5.6400    6.1900 N.am      2 ALA2        0.0000 
     23 O          12.3500   -5.3700    6.8100 O.2       2 ALA2        0.0000 
     24 N          10.8200   -8.8600   12.3300 N.am      2 ALA2        0.0000 
     25 O          11.1100   -9.8600   13.4000 O.2       2 ALA2        0.0000 
     26 O           9.7700   -9.5900   14.0200 O.2       2 ALA2        0.0000 
     27 N          11.3300   -3.0100    7.2000 N.am      2 ALA2        0.0000 
     28 O          12.9600   -4.2900    7.6600 O.2       2 ALA2        0.0000 
     29 OD1        11.8600   -8.8700    3.6500 O.co2     3 ASP3        0.0000 
     30 OD1        12.1800   -6.7900    3.4200 O.co2     3 ASP3        0.0000 
     31 OD1        12.4700   -7.7900    4.4900 O.co2     3 ASP3        0.0000 
     32 OD1         8.4500   -6.9800    6.3400 O.co2     3 ASP3        0.0000 
     33 OD1        11.4200   -8.5300    6.1800 O.co2     3 ASP3        0.0000 
     34 OD1        10.0800   -8.2600    6.8000 O.co2     3 ASP3        0.0000 
     35 OD1         8.4800   -3.8900    5.0400 O.co2     3 ASP3        0.0000 
     36 OD1        12.7900   -5.7100    4.2700 O.co2     3 ASP3        0.0000 
     37 OD1         8.7700   -4.8900    6.1200 O.co2     3 ASP3        0.0000 
     38 OD1        13.0800   -6.7200    5.3400 O.co2     3 ASP3        0.0000 
     39 OD1        11.7400   -6.4500    5.9600 O.co2     3 ASP3        0.0000 
     40 OD1        10.4000   -6.1700    6.5700 O.co2     3 ASP3        0.0000 
     41 OD1         9.0600   -5.9000    7.1900 O.co2     3 ASP3        0.0000 
     42 OD1        12.0300   -7.4500    7.0300 O.co2     3 ASP3        0.0000 
     43 OD1        12.3200   -8.4600    8.1000 O.co2     3 ASP3        0.0000 
     44 OD1        10.9800   -8.1900    8.7200 O.co2     3 ASP3        0.0000 
     45 OD1        11.2600   -9.2000    9.7900 O.co2     3 ASP3        0.0000 
     46 OD1        11.5500  -10.2000   10.8700 O.co2     3 ASP3        0.0000 
     47 OD1        10.4300   -3.0800    5.2800 O.co2     3 ASP3        0.0000 
     48 OD1        10.7200   -4.0900    6.3500 O.co2     3 ASP3        0.0000 
     49 OD1        13.9800   -6.6500    7.2600 O.co2     3 ASP3        0.0000 
     50 OD1        12.6400   -6.3800    7.8800 O.co2     3 ASP3        0.0000 
     51 OD1        12.1600   -9.1300   11.7100 O.co2     3 ASP3        0.0000 
     52 NZ         12.6000  -10.2200    2.1800 N.4       4 LYS4        0.0000 
     53 NZ         11.5400  -10.9600    3.8700 N.4       4 LYS4        0.0000 
     54 NZ         13.4900  -10.1500    4.1000 N.4       4 LYS4        0.0000 
     55 NZ         13.8100   -8.0700    3.8800 N.4       4 LYS4        0.0000 
     56 NZ         12.7600   -8.8000    5.5700 N.4       4 LYS4        0.0000 
     57 NZ         14.4200   -6.9900    4.7300 N.4       4 LYS4        0.0000 
     58 NZ         13.3700   -7.7200    6.4200 N.4       4 LYS4        0.0000 
     59 NZ          7.0600  -12.1400   16.5500 N.4       4 LYS4        0.0000 
     60 CZ          8.7100  -11.0800    8.7100 C.ar      5 PHE5        0.0000 
     61 CZ          9.0300   -8.9900    8.4900 C.ar      5 PHE5        0.0000 
     62 CZ          9.3200  -10.0000    9.5600 C.ar      5 PHE5        0.0000 
     63 CZ          7.2100  -11.4700   12.9400 C.ar      5 PHE5        0.0000 
     64 CZ          8.0100   -6.6400    8.8800 C.ar      5 PHE5        0.0000 
     65 CZ          9.6400   -7.9200    9.3400 C.ar      5 PHE5        0.0000 
     66 CZ          8.2900   -7.6400    9.9500 C.ar      5 PHE5        0.0000 
     67 CZ          9.9200   -8.9200   10.4100 C.ar      5 PHE5        0.0000 
     68 CZ          8.5800   -8.6500   11.0200 C.ar      5 PHE5        0.0000 
     69 CZ          8.8700   -9.6600   12.1000 C.ar      5 PHE5        0.0000 
     70 CZ          6.4800  -10.1200   14.4000 C.ar      5 PHE5        0.0000 
     71 CZ          6.7700  -11.1300   15.4800 C.ar      5 PHE5        0.0000 
     72 CZ          8.3300   -4.5500    8.6500 C.ar      5 PHE5        0.0000 
     73 CZ         10.5300   -7.8500   11.2600 C.ar      5 PHE5        0.0000 
     74 CZ          9.4800   -8.5800   12.9500 C.ar      5 PHE5        0.0000 
     75 CZ          8.1400   -8.3100   13.5600 C.ar      5 PHE5        0.0000 
     76 CZ          8.4300   -9.3200   14.6300 C.ar      5 PHE5        0.0000 
     77 CZ          7.0900   -9.0500   15.2500 C.ar      5 PHE5        0.0000 
     78 CZ          8.7200  -10.3300   15.7100 C.ar      5 PHE5        0.0000 
     79 CZ          7.3800  -10.0600   16.3200 C.ar      5 PHE5        0.0000 
     80 CZ          8.6500   -2.4700    8.4300 C.ar      5 PHE5        0.0000 
     81 CZ          7.3100   -2.2000    9.0500 C.ar      5 PHE5        0.0000 
     82 CA         12.1500   -9.8800    4.7200 C.3       6 GLY6        0.0000 
     83 CA          7.6600  -11.8100   10.4000 C.3       6 GLY6        0.0000 
     84 CA          6.3100  -11.5400   11.0200 C.3       6 GLY6        0.0000 
     85 CA          6.6000  -12.5500   12.0900 C.3       6 GLY6        0.0000 
     86 CA          8.2300  -13.8300   12.5500 C.3       6 GLY6        0.0000 
     87 CA          6.8900  -13.5600   13.1600 C.3       6 GLY6        0.0000 
     88 CA         11.7100   -9.5400    7.2600 C.3       6 GLY6        0.0000 
     89 CA         10.3700   -9.2700    7.8700 C.3       6 GLY6        0.0000 
     90 CA         10.6600  -10.2700    8.9400 C.3       6 GLY6        0.0000 
     91 CA          7.9700   -9.7300   10.1800 C.3       6 GLY6        0.0000 
     92 CA          6.9200  -10.4700   11.8700 C.3       6 GLY6        0.0000 
     93 CA          8.8400  -12.7500   13.4000 C.3       6 GLY6        0.0000 
     94 CA          7.5000  -12.4800   14.0100 C.3       6 GLY6        0.0000 
     95 CA         10.6900   -7.1800    7.6500 C.3       6 GLY6        0.0000 
     96 CA          9.3500   -6.9100    8.2600 C.3       6 GLY6        0.0000 
     97 CA          7.5300   -9.3900   12.7100 C.3       6 GLY6        0.0000 
     98 CA          6.1900   -9.1200   13.3300 C.3       6 GLY6        0.0000 
     99 CA          8.8000   -1.8000    4.8200 C.3       6 GLY6        0.0000 
    100 CA          9.3800   -3.8200    6.9700 C.3       6 GLY6        0.0000 
    101 CA         11.0100   -5.1000    7.4200 C.3       6 GLY6        0.0000 
    102 CA          9.6700   -4.8200    8.0400 C.3       6 GLY6        0.0000 
    103 CA         11.3000   -6.1000    8.5000 C.3       6 GLY6        0.0000 
    104 CA         11.5800   -7.1100    9.5700 C.3       6 GLY6        0.0000 
    105 CA         11.0400   -2.0000    6.1300 C.3       6 GLY6        0.0000 
    106 CA          9.9900   -2.7400    7.8100 C.3       6 GLY6        0.0000 
    107 CA         10.5900   -1.6600    8.6600 C.3       6 GLY6        0.0000 
    108 DU          9.6000  -11.0100   10.6300 H         7 CUB7        0.0000 
    109 DU          8.2600  -10.7400   11.2500 H         7 CUB7        0.0000 
    110 DU         10.2100   -9.9300   11.4800 H         7 CUB7        0.0000 
    111 DU          7.8200  -10.4000   13.7900 H         7 CUB7        0.0000 
    112 DU          9.0900   -2.8100    5.8900 H         7 CUB7        0.0000 
    113 DU          7.7500   -2.5400    6.5100 H         7 CUB7        0.0000 
    114 DU          8.0400   -3.5400    7.5800 H         7 CUB7        0.0000 
@<TRIPOS>BOND
@<TRIPOS>SUBSTRUCTURE
     1 SER1        1 GROUP   
     2 ALA2        7 GROUP   
     3 ASP3       29 GROUP   
     4 LYS4       52 GROUP   
     5 PHE5       60 GROUP   
     6 GLY6       82 GROUP   
     7 CUB7      108 GROUP   
@<TRIPOS>SET

