#    Name: 5mze_2_8DG
#    Modification time : Fri May 22 19:13:31 2020

@<TRIPOS>MOLECULE
5mze_2_8DG
   32    34     1     0     0
SMALL
NO_CHARGES


@<TRIPOS>ATOM
      1 PG         12.2890  -10.1790    2.9420 P.3       1 8DG203      0.0000 
      2 O1G        11.2480  -11.0420    2.3390 O.co2     1 8DG203      0.0000 
      3 O2G        13.4200  -10.8300    3.6190 O.co2     1 8DG203      0.0000 
      4 O3G        12.4860   -8.8220    2.3950 O.co2     1 8DG203      0.0000 
      5 O3B        11.4010   -9.7120    4.1850 O.3       1 8DG203      0.0000 
      6 PB         12.0980   -9.0510    5.4450 P.3       1 8DG203      0.0000 
      7 O1B        12.8180   -7.8170    5.0400 O.co2     1 8DG203      0.0000 
      8 O2B        12.8390  -10.0990    6.1960 O.co2     1 8DG203      0.0000 
      9 O3A        10.7680   -8.6550    6.2590 O.3       1 8DG203      0.0000 
     10 PA         10.8860   -8.5430    7.8360 P.3       1 8DG203      0.0000 
     11 O1A        10.8400   -7.1100    8.2110 O.co2     1 8DG203      0.0000 
     12 O2A        12.0270   -9.3670    8.2940 O.co2     1 8DG203      0.0000 
     13 O5'         9.5700   -9.2820    8.3910 O.3       1 8DG203      0.0000 
     14 C5'         9.2750   -9.3490    9.7980 C.3       1 8DG203      0.0000 
     15 C4'         9.8320  -10.6400   10.4480 C.3       1 8DG203      0.0000 
     16 O4'         9.8470  -10.5630   11.9300 O.3       1 8DG203      0.0000 
     17 C3'         8.9790  -11.8970   10.0920 C.3       1 8DG203      0.0000 
     18 O3'         9.8120  -13.0370   10.1970 O.3       1 8DG203      0.0000 
     19 C2'         7.9640  -11.9620   11.1740 C.3       1 8DG203      0.0000 
     20 C1'         8.8390  -11.5280   12.3880 C.3       1 8DG203      0.0000 
     21 N9          8.0760  -10.8410   13.4190 N.am      1 8DG203      0.0000 
     22 C8          7.3420   -9.7430   13.3110 C.2       1 8DG203      0.0000 
     23 N7          6.8150   -9.4240   14.4900 N.am      1 8DG203      0.0000 
     24 C5          7.2440  -10.3530   15.3450 C.2       1 8DG203      0.0000 
     25 C6          7.0170  -10.5070   16.6410 C.2       1 8DG203      0.0000 
     26 O6          6.3010   -9.6990   17.2360 O.2       1 8DG203      0.0000 
     27 N1          7.5990  -11.6000   17.3080 N.am      1 8DG203      0.0000 
     28 C2          8.4030  -12.4790   16.5950 C.2       1 8DG203      0.0000 
     29 N2          8.9840  -13.5100   17.1860 N.pl3     1 8DG203      0.0000 
     30 N3          8.5970  -12.2610   15.2920 N.2       1 8DG203      0.0000 
     31 C4          8.0200  -11.2210   14.6820 C.2       1 8DG203      0.0000 
     32 O8          7.1640   -9.0410   12.1620 O.2       1 8DG203      0.0000 
@<TRIPOS>BOND
     1    1    2 ar   
     2    1    3 ar   
     3    1    4 ar   
     4    1    5 1    
     5    5    6 1    
     6    6    7 ar   
     7    6    8 ar   
     8    6    9 1    
     9    9   10 1    
    10   10   11 ar   
    11   10   12 ar   
    12   10   13 1    
    13   13   14 1    
    14   14   15 1    
    15   15   16 1    
    16   15   17 1    
    17   16   20 1    
    18   17   18 1    
    19   17   19 1    
    20   19   20 1    
    21   20   21 1    
    22   21   22 am   
    23   21   31 1    
    24   22   23 am   
    25   22   32 2    
    26   23   24 1    
    27   24   25 1    
    28   24   31 2    
    29   25   26 2    
    30   25   27 am   
    31   27   28 1    
    32   28   29 1    
    33   28   30 2    
    34   30   31 1    
@<TRIPOS>SUBSTRUCTURE
     1 8DG203      1 GROUP   
@<TRIPOS>SET

