#    Name: 6n9q_1_HL4_CAVITY_N1_8
#    Modification time : Fri May 22 19:36:20 2020

@<TRIPOS>MOLECULE
6n9q_1_HL4_CAVITY_N1_8
   92     0     6     0     0
SMALL
NO_CHARGES


@<TRIPOS>ATOM
      1 OG         57.2600    4.7600   18.0600 O.3       1 SER1        0.0000 
      2 OG         56.3500    5.9400   18.2000 O.3       1 SER1        0.0000 
      3 OG         55.4400    7.1300   18.3300 O.3       1 SER1        0.0000 
      4 OG         54.5400    8.3200   18.4700 O.3       1 SER1        0.0000 
      5 OG         56.4000    3.9900   19.0100 O.3       1 SER1        0.0000 
      6 OG         57.1800    6.4400   19.3400 O.3       1 SER1        0.0000 
      7 OG         59.8700    2.6100   21.0300 O.3       1 SER1        0.0000 
      8 OG         59.0000    1.8400   21.9900 O.3       1 SER1        0.0000 
      9 OG         58.1400    1.0700   22.9400 O.3       1 SER1        0.0000 
     10 OG         61.5500    3.8800   21.2300 O.3       1 SER1        0.0000 
     11 OG         61.6000    1.9300   22.0400 O.3       1 SER1        0.0000 
     12 OG         60.7400    1.1600   23.0000 O.3       1 SER1        0.0000 
     13 OG         58.9700    1.5700   24.0900 O.3       1 SER1        0.0000 
     14 O          55.6500    1.8000   16.5800 O.2       2 ALA2        0.0000 
     15 N          58.9400    8.2600   15.3300 N.am      2 ALA2        0.0000 
     16 O          58.9000    7.9900   17.4300 O.2       2 ALA2        0.0000 
     17 N          58.0400    7.2100   18.3900 N.am      2 ALA2        0.0000 
     18 N          57.1300    8.4000   18.5300 N.am      2 ALA2        0.0000 
     19 N          59.7700    6.5300   19.4000 N.am      2 ALA2        0.0000 
     20 N          60.7300    3.3800   20.0800 N.am      2 ALA2        0.0000 
     21 N          59.8200    4.5700   20.2200 N.am      2 ALA2        0.0000 
     22 N          58.9100    5.7600   20.3500 N.am      2 ALA2        0.0000 
     23 NZ         57.2800    0.3000   23.9000 N.4       3 LYS4        0.0000 
     24 NZ         59.0100   -0.3800   24.9100 N.4       3 LYS4        0.0000 
     25 CZ         54.6500    6.9000   15.0800 C.ar      4 PHE5        0.0000 
     26 CZ         54.7000    4.9500   15.9000 C.ar      4 PHE5        0.0000 
     27 CZ         53.7900    6.1300   16.0400 C.ar      4 PHE5        0.0000 
     28 CZ         56.3400    8.1700   15.2700 C.ar      4 PHE5        0.0000 
     29 CZ         55.4800    7.4000   16.2300 C.ar      4 PHE5        0.0000 
     30 CZ         54.5700    8.5900   16.3700 C.ar      4 PHE5        0.0000 
     31 CZ         59.1600    0.7000   16.5000 C.ar      4 PHE5        0.0000 
     32 CZ         55.5200    5.4500   17.0500 C.ar      4 PHE5        0.0000 
     33 CZ         54.6200    6.6300   17.1800 C.ar      4 PHE5        0.0000 
     34 CZ         53.7100    7.8200   17.3200 C.ar      4 PHE5        0.0000 
     35 CZ         58.2900   -0.0700   17.4500 C.ar      4 PHE5        0.0000 
     36 CZ         57.4300   -0.8400   18.4100 C.ar      4 PHE5        0.0000 
     37 CZ         59.9800    1.2000   17.6400 C.ar      4 PHE5        0.0000 
     38 CZ         59.1200    0.4300   18.6000 C.ar      4 PHE5        0.0000 
     39 CZ         58.2600   -0.3400   19.5600 C.ar      4 PHE5        0.0000 
     40 CZ         60.8100    1.7000   18.7900 C.ar      4 PHE5        0.0000 
     41 CZ         59.9000    2.8900   18.9300 C.ar      4 PHE5        0.0000 
     42 CZ         58.0900    5.2600   19.2100 C.ar      4 PHE5        0.0000 
     43 CZ         59.9500    0.9300   19.7500 C.ar      4 PHE5        0.0000 
     44 CZ         58.1300    3.3000   20.0200 C.ar      4 PHE5        0.0000 
     45 CZ         59.0800    0.1600   20.7000 C.ar      4 PHE5        0.0000 
     46 CZ         57.2700    2.5300   20.9800 C.ar      4 PHE5        0.0000 
     47 CZ         58.2200   -0.6100   21.6600 C.ar      4 PHE5        0.0000 
     48 CZ         61.6400    2.2000   19.9400 C.ar      4 PHE5        0.0000 
     49 CZ         61.6800    0.2400   20.7600 C.ar      4 PHE5        0.0000 
     50 CZ         60.7700    1.4300   20.9000 C.ar      4 PHE5        0.0000 
     51 CZ         58.9600    3.8000   21.1700 C.ar      4 PHE5        0.0000 
     52 CZ         59.9100    0.6600   21.8500 C.ar      4 PHE5        0.0000 
     53 CZ         58.1000    3.0300   22.1300 C.ar      4 PHE5        0.0000 
     54 CZ         59.0500   -0.1100   22.8100 C.ar      4 PHE5        0.0000 
     55 CZ         59.1000   -2.0700   23.6300 C.ar      4 PHE5        0.0000 
     56 CZ         62.4600    2.7000   21.0900 C.ar      4 PHE5        0.0000 
     57 CZ         60.6500    5.0700   21.3600 C.ar      4 PHE5        0.0000 
     58 CA         58.2000    3.8400   15.8200 C.3       5 GLY6        0.0000 
     59 CA         57.3900    1.1200   17.5900 C.3       5 GLY6        0.0000 
     60 CA         56.4800    2.3000   17.7300 C.3       5 GLY6        0.0000 
     61 CA         55.5700    3.4900   17.8700 C.3       5 GLY6        0.0000 
     62 CA         58.9800    6.3000   16.1500 C.3       5 GLY6        0.0000 
     63 CA         58.0700    7.4900   16.2800 C.3       5 GLY6        0.0000 
     64 CA         57.1700    8.6700   16.4200 C.3       5 GLY6        0.0000 
     65 CA         59.9400    3.1600   16.8300 C.3       5 GLY6        0.0000 
     66 CA         59.0300    4.3400   16.9600 C.3       5 GLY6        0.0000 
     67 CA         58.1200    5.5300   17.1000 C.3       5 GLY6        0.0000 
     68 CA         56.3000    7.9000   17.3800 C.3       5 GLY6        0.0000 
     69 CA         55.4000    9.0900   17.5100 C.3       5 GLY6        0.0000 
     70 CA         58.2100    1.6200   18.7400 C.3       5 GLY6        0.0000 
     71 CA         57.3000    2.8000   18.8800 C.3       5 GLY6        0.0000 
     72 CA         60.7600    3.6600   17.9700 C.3       5 GLY6        0.0000 
     73 CA         58.9500    6.0300   18.2500 C.3       5 GLY6        0.0000 
     74 CA         58.9900    4.0700   19.0700 C.3       5 GLY6        0.0000 
     75 CA         56.2700    7.6300   19.4800 C.3       5 GLY6        0.0000 
     76 CA         58.1800    1.3400   20.8400 C.3       5 GLY6        0.0000 
     77 CA         57.3200    0.5700   21.8000 C.3       5 GLY6        0.0000 
     78 CA         57.3600   -1.3800   22.6100 C.3       5 GLY6        0.0000 
     79 CA         61.5900    4.1600   19.1200 C.3       5 GLY6        0.0000 
     80 CA         58.1900   -0.8800   23.7600 C.3       5 GLY6        0.0000 
     81 CA         59.8800    0.3900   23.9600 C.3       5 GLY6        0.0000 
     82 DU         55.5600    5.7200   14.9400 H         6 CUB7        0.0000 
     83 DU         55.6100    3.7600   15.7600 H         6 CUB7        0.0000 
     84 DU         57.2500    6.9900   15.1400 H         6 CUB7        0.0000 
     85 DU         57.2900    5.0300   15.9500 H         6 CUB7        0.0000 
     86 DU         58.2500    1.8900   16.6300 H         6 CUB7        0.0000 
     87 DU         57.3400    3.0700   16.7700 H         6 CUB7        0.0000 
     88 DU         56.4300    4.2600   16.9100 H         6 CUB7        0.0000 
     89 DU         57.2100    6.7200   17.2400 H         6 CUB7        0.0000 
     90 DU         59.0700    2.3900   17.7800 H         6 CUB7        0.0000 
     91 DU         58.1700    3.5700   17.9200 H         6 CUB7        0.0000 
     92 DU         59.0400    2.1100   19.8900 H         6 CUB7        0.0000 
@<TRIPOS>BOND
@<TRIPOS>SUBSTRUCTURE
     1 SER1        1 GROUP   
     2 ALA2       14 GROUP   
     3 LYS4       23 GROUP   
     4 PHE5       25 GROUP   
     5 GLY6       58 GROUP   
     6 CUB7       82 GROUP   
@<TRIPOS>SET

