#    Name: 6n9q_1_HL4_CAVITY_N1_4
#    Modification time : Fri May 22 19:36:20 2020

@<TRIPOS>MOLECULE
6n9q_1_HL4_CAVITY_N1_4
   61     0     6     0     0
SMALL
NO_CHARGES


@<TRIPOS>ATOM
      1 OG         57.2600    4.7600   18.0600 O.3       1 SER1        0.0000 
      2 OG         56.4000    3.9900   19.0100 O.3       1 SER1        0.0000 
      3 OG         57.1800    6.4400   19.3400 O.3       1 SER1        0.0000 
      4 OG         59.8700    2.6100   21.0300 O.3       1 SER1        0.0000 
      5 OG         59.0000    1.8400   21.9900 O.3       1 SER1        0.0000 
      6 OG         58.1400    1.0700   22.9400 O.3       1 SER1        0.0000 
      7 OG         61.5500    3.8800   21.2300 O.3       1 SER1        0.0000 
      8 OG         61.6000    1.9300   22.0400 O.3       1 SER1        0.0000 
      9 OG         60.7400    1.1600   23.0000 O.3       1 SER1        0.0000 
     10 OG         58.9700    1.5700   24.0900 O.3       1 SER1        0.0000 
     11 N          59.7700    6.5300   19.4000 N.am      2 ALA2        0.0000 
     12 N          60.7300    3.3800   20.0800 N.am      2 ALA2        0.0000 
     13 N          59.8200    4.5700   20.2200 N.am      2 ALA2        0.0000 
     14 N          58.9100    5.7600   20.3500 N.am      2 ALA2        0.0000 
     15 NZ         57.2800    0.3000   23.9000 N.4       3 LYS4        0.0000 
     16 NZ         59.0100   -0.3800   24.9100 N.4       3 LYS4        0.0000 
     17 CZ         59.1600    0.7000   16.5000 C.ar      4 PHE5        0.0000 
     18 CZ         58.2900   -0.0700   17.4500 C.ar      4 PHE5        0.0000 
     19 CZ         57.4300   -0.8400   18.4100 C.ar      4 PHE5        0.0000 
     20 CZ         59.9800    1.2000   17.6400 C.ar      4 PHE5        0.0000 
     21 CZ         59.1200    0.4300   18.6000 C.ar      4 PHE5        0.0000 
     22 CZ         58.2600   -0.3400   19.5600 C.ar      4 PHE5        0.0000 
     23 CZ         60.8100    1.7000   18.7900 C.ar      4 PHE5        0.0000 
     24 CZ         59.9000    2.8900   18.9300 C.ar      4 PHE5        0.0000 
     25 CZ         58.0900    5.2600   19.2100 C.ar      4 PHE5        0.0000 
     26 CZ         59.9500    0.9300   19.7500 C.ar      4 PHE5        0.0000 
     27 CZ         58.1300    3.3000   20.0200 C.ar      4 PHE5        0.0000 
     28 CZ         59.0800    0.1600   20.7000 C.ar      4 PHE5        0.0000 
     29 CZ         57.2700    2.5300   20.9800 C.ar      4 PHE5        0.0000 
     30 CZ         58.2200   -0.6100   21.6600 C.ar      4 PHE5        0.0000 
     31 CZ         61.6400    2.2000   19.9400 C.ar      4 PHE5        0.0000 
     32 CZ         61.6800    0.2400   20.7600 C.ar      4 PHE5        0.0000 
     33 CZ         60.7700    1.4300   20.9000 C.ar      4 PHE5        0.0000 
     34 CZ         58.9600    3.8000   21.1700 C.ar      4 PHE5        0.0000 
     35 CZ         59.9100    0.6600   21.8500 C.ar      4 PHE5        0.0000 
     36 CZ         58.1000    3.0300   22.1300 C.ar      4 PHE5        0.0000 
     37 CZ         59.0500   -0.1100   22.8100 C.ar      4 PHE5        0.0000 
     38 CZ         59.1000   -2.0700   23.6300 C.ar      4 PHE5        0.0000 
     39 CZ         62.4600    2.7000   21.0900 C.ar      4 PHE5        0.0000 
     40 CZ         60.6500    5.0700   21.3600 C.ar      4 PHE5        0.0000 
     41 CA         57.3900    1.1200   17.5900 C.3       5 GLY6        0.0000 
     42 CA         56.4800    2.3000   17.7300 C.3       5 GLY6        0.0000 
     43 CA         59.9400    3.1600   16.8300 C.3       5 GLY6        0.0000 
     44 CA         59.0300    4.3400   16.9600 C.3       5 GLY6        0.0000 
     45 CA         58.1200    5.5300   17.1000 C.3       5 GLY6        0.0000 
     46 CA         58.2100    1.6200   18.7400 C.3       5 GLY6        0.0000 
     47 CA         57.3000    2.8000   18.8800 C.3       5 GLY6        0.0000 
     48 CA         60.7600    3.6600   17.9700 C.3       5 GLY6        0.0000 
     49 CA         58.9500    6.0300   18.2500 C.3       5 GLY6        0.0000 
     50 CA         58.9900    4.0700   19.0700 C.3       5 GLY6        0.0000 
     51 CA         58.1800    1.3400   20.8400 C.3       5 GLY6        0.0000 
     52 CA         57.3200    0.5700   21.8000 C.3       5 GLY6        0.0000 
     53 CA         57.3600   -1.3800   22.6100 C.3       5 GLY6        0.0000 
     54 CA         61.5900    4.1600   19.1200 C.3       5 GLY6        0.0000 
     55 CA         58.1900   -0.8800   23.7600 C.3       5 GLY6        0.0000 
     56 CA         59.8800    0.3900   23.9600 C.3       5 GLY6        0.0000 
     57 DU         58.2500    1.8900   16.6300 H         6 CUB7        0.0000 
     58 DU         57.3400    3.0700   16.7700 H         6 CUB7        0.0000 
     59 DU         59.0700    2.3900   17.7800 H         6 CUB7        0.0000 
     60 DU         58.1700    3.5700   17.9200 H         6 CUB7        0.0000 
     61 DU         59.0400    2.1100   19.8900 H         6 CUB7        0.0000 
@<TRIPOS>BOND
@<TRIPOS>SUBSTRUCTURE
     1 SER1        1 GROUP   
     2 ALA2       11 GROUP   
     3 LYS4       15 GROUP   
     4 PHE5       17 GROUP   
     5 GLY6       41 GROUP   
     6 CUB7       57 GROUP   
@<TRIPOS>SET

