#    Name: 6n9q_1_HL4
#    Modification time : Fri May 22 19:36:20 2020

@<TRIPOS>MOLECULE
6n9q_1_HL4
   12    12     1     0     0
SMALL
NO_CHARGES


@<TRIPOS>ATOM
      1 C1         59.0920    0.6500   24.3590 C.3       1 HL4305      0.0000 
      2 C2         58.9910    1.8240   25.0950 C.2       1 HL4305      0.0000 
      3 C4         60.0240    0.4880   26.5470 C.3       1 HL4305      0.0000 
      4 C5         59.9530   -0.2430   25.2200 C.3       1 HL4305      0.0000 
      5 O6         58.2860    2.7560   24.7040 O.2       1 HL4305      0.0000 
      6 N7         59.7600    0.9270   23.0800 N.am      1 HL4305      0.0000 
      7 C8         59.0700    1.1610   21.9560 C.2       1 HL4305      0.0000 
      8 O9         57.8420    1.1520   21.8900 O.2       1 HL4305      0.0000 
      9 C10        59.9260    1.4450   20.7200 C.3       1 HL4305      0.0000 
     10 C11        59.1890    2.4240   19.8040 C.3       1 HL4305      0.0000 
     11 C13        59.4510    3.8590   20.2690 C.3       1 HL4305      0.0000 
     12 OAP        59.7370    1.8610   26.2340 O.3       1 HL4305      0.0000 
@<TRIPOS>BOND
     1    1    2 1    
     2    1    4 1    
     3    1    6 1    
     4    2    5 2    
     5    2   12 1    
     6    3    4 1    
     7    3   12 1    
     8    6    7 am   
     9    7    8 2    
    10    7    9 1    
    11    9   10 1    
    12   10   11 1    
@<TRIPOS>SUBSTRUCTURE
     1 HL4305      1 GROUP   
@<TRIPOS>SET

