#    Name: 6br1_5_ACP
#    Modification time : Fri May 22 19:32:02 2020

@<TRIPOS>MOLECULE
6br1_5_ACP
   45    47     1     0     1
SMALL
NO_CHARGES


@<TRIPOS>ATOM
      1 PG          8.1360  -50.3450  -94.3770 P.3       1 ACP402      0.0000 
      2 O1G         7.5100  -51.6210  -94.8910 O.co2     1 ACP402      0.0000 
      3 O2G         7.0810  -49.4920  -93.7090 O.co2     1 ACP402      0.0000 
      4 O3G         9.2190  -50.6840  -93.3770 O.co2     1 ACP402      0.0000 
      5 PB         10.6800  -49.8050  -95.9760 P.3       1 ACP402      0.0000 
      6 O1B        11.4590  -48.5820  -95.5540 O.co2     1 ACP402      0.0000 
      7 O2B        11.0660  -50.9440  -95.0650 O.co2     1 ACP402      0.0000 
      8 C3B         8.8630  -49.4330  -95.8290 C.3       1 ACP402      0.0000 
      9 PA         10.3000  -51.2690  -98.5210 P.3       1 ACP402      0.0000 
     10 O1A        11.1460  -52.5070  -98.7210 O.co2     1 ACP402      0.0000 
     11 O2A         8.9500  -51.6470  -97.9610 O.co2     1 ACP402      0.0000 
     12 O3A        11.0720  -50.1880  -97.5360 O.3       1 ACP402      0.0000 
     13 O5'        10.0660  -50.5380  -99.9770 O.3       1 ACP402      0.0000 
     14 C5'         9.6230  -49.2110  -99.9530 C.3       1 ACP402      0.0000 
     15 C4'         8.8200  -48.9140 -101.2450 C.3       1 ACP402      0.0000 
     16 O4'         9.4850  -49.3220 -102.2900 O.3       1 ACP402      0.0000 
     17 C3'         7.5160  -49.7300 -101.2480 C.3       1 ACP402      0.0000 
     18 O3'         6.5020  -48.9790 -100.7440 O.3       1 ACP402      0.0000 
     19 C2'         7.2770  -50.0580 -102.7350 C.3       1 ACP402      0.0000 
     20 O2'         6.3990  -49.0170 -103.3470 O.3       1 ACP402      0.0000 
     21 C1'         8.4460  -50.0210 -103.3140 C.3       1 ACP402      0.0000 
     22 N9          8.9320  -51.3430 -103.5960 N.pl3     1 ACP402      0.0000 
     23 C8          9.7110  -52.0960 -102.8160 C.2       1 ACP402      0.0000 
     24 N7          9.9410  -53.2450 -103.4550 N.2       1 ACP402      0.0000 
     25 C5          9.3060  -53.1990 -104.6330 C.ar      1 ACP402      0.0000 
     26 C6          9.2150  -54.1090 -105.6600 C.ar      1 ACP402      0.0000 
     27 N6          9.7660  -55.4380 -105.8520 N.pl3     1 ACP402      0.0000 
     28 N1          8.5110  -53.8140 -106.7410 N.ar      1 ACP402      0.0000 
     29 C2          7.8790  -52.6180 -106.8340 C.ar      1 ACP402      0.0000 
     30 N3          7.9680  -51.7240 -105.8220 N.ar      1 ACP402      0.0000 
     31 C4          8.6840  -52.0220 -104.7230 C.ar      1 ACP402      0.0000 
     32 H3B1        8.4110  -49.7110  -96.6410 H         1 ACP402      0.0000 
     33 H3B2        8.7390  -48.4790  -95.7040 H         1 ACP402      0.0000 
     34 H5'1       10.3870  -48.6150  -99.9030 H         1 ACP402      0.0000 
     35 H5'2        9.0540  -49.0730  -99.1800 H         1 ACP402      0.0000 
     36 H4'         8.6240  -47.9660 -101.3190 H         1 ACP402      0.0000 
     37 H3'         7.6280  -50.5470 -100.7360 H         1 ACP402      0.0000 
     38 HO3'        5.8650  -49.4880 -100.5040 H         1 ACP402      0.0000 
     39 H2'         6.8830  -50.9390 -102.8280 H         1 ACP402      0.0000 
     40 HO2'        5.5870  -49.1930 -103.1710 H         1 ACP402      0.0000 
     41 H1'         8.3910  -49.5020 -104.1320 H         1 ACP402      0.0000 
     42 H8         10.0340  -51.8630 -101.9760 H         1 ACP402      0.0000 
     43 HN61       10.3790  -55.7300 -105.3230 H         1 ACP402      0.0000 
     44 HN62        9.4800  -55.9340 -106.4930 H         1 ACP402      0.0000 
     45 H2          7.3830  -52.4130 -107.5940 H         1 ACP402      0.0000 
@<TRIPOS>BOND
     1    1    2 ar   
     2    1    3 ar   
     3    1    4 ar   
     4    1    8 1    
     5    5    6 ar   
     6    5    7 ar   
     7    5    8 1    
     8    5   12 1    
     9    8   32 1    
    10    8   33 1    
    11    9   10 ar   
    12    9   11 ar   
    13    9   12 1    
    14    9   13 1    
    15   13   14 1    
    16   14   15 1    
    17   14   34 1    
    18   14   35 1    
    19   15   16 1    
    20   15   17 1    
    21   15   36 1    
    22   16   21 1    
    23   17   18 1    
    24   17   19 1    
    25   17   37 1    
    26   18   38 1    
    27   19   20 1    
    28   19   21 1    
    29   19   39 1    
    30   21   41 1    
    31   20   40 1    
    32   21   22 1    
    33   22   23 1    
    34   22   31 1    
    35   23   24 2    
    36   23   42 1    
    37   24   25 1    
    38   25   26 ar   
    39   25   31 ar   
    40   26   27 1    
    41   26   28 ar   
    42   27   43 1    
    43   27   44 1    
    44   28   29 ar   
    45   29   30 ar   
    46   29   45 1    
    47   30   31 ar   
@<TRIPOS>SUBSTRUCTURE
     1 ACP402      1 GROUP   
@<TRIPOS>SET
ATOM$ORANGE STATIC     ATOMS   COLORGROUP SYSTEM 
22 8 8 14 14 15 15 17 17 19 19 21 21 23 23 25 25 26 \
26 29 29 31 31 

