#    Name: 6vfs_7_ADP
#    Modification time : Fri May 22 19:32:05 2020

@<TRIPOS>MOLECULE
6vfs_7_ADP
   39    41     1     0     1
SMALL
NO_CHARGES


@<TRIPOS>ATOM
      1 PB        124.7550  157.6940  105.2910 P.3       1 ADP501      0.0000 
      2 O1B       125.8660  157.0370  104.5080 O.co2     1 ADP501      0.0000 
      3 O2B       124.9480  157.6790  106.7860 O.co2     1 ADP501      0.0000 
      4 O3B       124.2970  159.0210  104.7350 O.co2     1 ADP501      0.0000 
      5 PA        122.8350  156.8330  103.5620 P.3       1 ADP501      0.0000 
      6 O1A       123.9480  156.5360  102.5900 O.co2     1 ADP501      0.0000 
      7 O2A       122.0890  158.1400  103.4930 O.co2     1 ADP501      0.0000 
      8 O3A       123.4880  156.7420  105.0260 O.3       1 ADP501      0.0000 
      9 O5'       121.7530  155.6450  103.5220 O.3       1 ADP501      0.0000 
     10 C5'       122.0910  154.2910  103.8000 C.3       1 ADP501      0.0000 
     11 C4'       120.8100  153.4700  103.7490 C.3       1 ADP501      0.0000 
     12 O4'       119.8580  154.0050  104.6710 O.3       1 ADP501      0.0000 
     13 C3'       120.1530  153.4910  102.3760 C.3       1 ADP501      0.0000 
     14 O3'       120.3540  152.2490  101.6970 O.3       1 ADP501      0.0000 
     15 C2'       118.6780  153.7410  102.6290 C.3       1 ADP501      0.0000 
     16 O2'       117.8670  152.6490  102.1850 O.3       1 ADP501      0.0000 
     17 C1'       118.5380  153.8880  104.1340 C.3       1 ADP501      0.0000 
     18 N9        117.7250  155.0790  104.4730 N.pl3     1 ADP501      0.0000 
     19 C8        118.0880  156.0610  105.3190 C.2       1 ADP501      0.0000 
     20 N7        117.1090  156.9930  105.4170 N.2       1 ADP501      0.0000 
     21 C5        116.0970  156.6000  104.6270 C.ar      1 ADP501      0.0000 
     22 C6        114.7660  157.1260  104.2740 C.ar      1 ADP501      0.0000 
     23 N6        114.3420  158.2870  104.8180 N.pl3     1 ADP501      0.0000 
     24 N1        114.0100  156.4160  103.4090 N.ar      1 ADP501      0.0000 
     25 C2        114.4410  155.2570  102.8730 C.ar      1 ADP501      0.0000 
     26 N3        115.6450  154.7240  103.1550 N.ar      1 ADP501      0.0000 
     27 C4        116.5000  155.3340  104.0100 C.ar      1 ADP501      0.0000 
     28 H5'1      122.8150  153.9100  103.0760 H         1 ADP501      0.0000 
     29 H5'2      122.5310  154.2270  104.7970 H         1 ADP501      0.0000 
     30 H4'       121.0450  152.4310  104.0150 H         1 ADP501      0.0000 
     31 H3'       120.5640  154.3220  101.7850 H         1 ADP501      0.0000 
     32 HO3'      120.0070  152.3160  100.7970 H         1 ADP501      0.0000 
     33 H2'       118.3770  154.6720  102.1290 H         1 ADP501      0.0000 
     34 HO2'      117.8500  152.6220  101.2200 H         1 ADP501      0.0000 
     35 H1'       118.0550  152.9870  104.5340 H         1 ADP501      0.0000 
     36 H8        119.0330  156.1050  105.8440 H         1 ADP501      0.0000 
     37 HN61      114.9390  158.7890  105.4600 H         1 ADP501      0.0000 
     38 HN62      113.4370  158.6550  104.5830 H         1 ADP501      0.0000 
     39 H2        113.7910  154.7310  102.1850 H         1 ADP501      0.0000 
@<TRIPOS>BOND
     1    1    2 ar   
     2    1    3 ar   
     3    1    4 ar   
     4    1    8 1    
     5    5    6 ar   
     6    5    7 ar   
     7    5    8 1    
     8    5    9 1    
     9    9   10 1    
    10   10   11 1    
    11   10   28 1    
    12   10   29 1    
    13   11   12 1    
    14   11   13 1    
    15   11   30 1    
    16   12   17 1    
    17   13   14 1    
    18   13   15 1    
    19   13   31 1    
    20   14   32 1    
    21   15   16 1    
    22   15   17 1    
    23   15   33 1    
    24   16   34 1    
    25   17   18 1    
    26   17   35 1    
    27   18   19 1    
    28   18   27 1    
    29   19   20 2    
    30   19   36 1    
    31   20   21 1    
    32   21   22 ar   
    33   21   27 ar   
    34   22   23 1    
    35   22   24 ar   
    36   23   37 1    
    37   23   38 1    
    38   24   25 ar   
    39   25   26 ar   
    40   25   39 1    
    41   26   27 ar   
@<TRIPOS>SUBSTRUCTURE
     1 ADP501      1 GROUP   
@<TRIPOS>SET
ATOM$ORANGE STATIC     ATOMS   COLORGROUP SYSTEM 
20 10 10 11 11 13 13 15 15 17 17 19 19 21 21 22 22 25 \
25 27 27 

