#    Name: 6vfs_1_UNK_UNK_UNK_UNK_UNK_UNK_UNK_CAVITY_N1_12
#    Modification time : Fri May 22 19:31:18 2020

@<TRIPOS>MOLECULE
6vfs_1_UNK_UNK_UNK_UNK_UNK_UNK_UNK_CAVITY_N1_12
   84     0     5     0     0
SMALL
NO_CHARGES


@<TRIPOS>ATOM
      1 OG        156.0800  152.1400   88.8600 O.3       1 SER1        0.0000 
      2 OG        154.7800  150.7300   89.7500 O.3       1 SER1        0.0000 
      3 OG        156.5300  152.5900   90.2200 O.3       1 SER1        0.0000 
      4 OG        155.1000  152.6100   90.6800 O.3       1 SER1        0.0000 
      5 OG        156.6500  151.1600   90.6500 O.3       1 SER1        0.0000 
      6 OG        156.9700  153.0400   91.5800 O.3       1 SER1        0.0000 
      7 OG        155.5400  153.0500   92.0400 O.3       1 SER1        0.0000 
      8 OG        157.0900  151.6100   92.0100 O.3       1 SER1        0.0000 
      9 OG        155.6700  151.6200   92.4700 O.3       1 SER1        0.0000 
     10 OG        157.2900  154.9200   92.5100 O.3       1 SER1        0.0000 
     11 OG        155.8700  154.9300   92.9700 O.3       1 SER1        0.0000 
     12 OG        157.4200  153.4900   92.9400 O.3       1 SER1        0.0000 
     13 OG        157.7400  155.3700   93.8700 O.3       1 SER1        0.0000 
     14 OG        156.3100  155.3800   94.3300 O.3       1 SER1        0.0000 
     15 OG        161.1600  154.3500   94.7400 O.3       1 SER1        0.0000 
     16 N         159.1400  155.4200   88.4300 N.am      2 ALA2        0.0000 
     17 N         158.5200  151.5900   91.5500 N.am      2 ALA2        0.0000 
     18 N         158.3500  159.1900   90.7500 N.am      2 ALA2        0.0000 
     19 N         156.9300  159.2100   91.2100 N.am      2 ALA2        0.0000 
     20 N         160.2700  153.4500   92.0200 N.am      2 ALA2        0.0000 
     21 N         158.8400  153.4700   92.4800 N.am      2 ALA2        0.0000 
     22 N         157.3700  159.6600   92.5700 N.am      2 ALA2        0.0000 
     23 O         155.9400  159.6800   93.0300 O.2       2 ALA2        0.0000 
     24 N         157.4900  158.2300   93.0000 N.am      2 ALA2        0.0000 
     25 N         157.8200  160.1100   93.9300 N.am      2 ALA2        0.0000 
     26 N         159.3700  158.6600   93.9000 N.am      2 ALA2        0.0000 
     27 N         157.9400  158.6800   94.3700 N.am      2 ALA2        0.0000 
     28 CZ        157.2600  154.9800   87.5300 C.ar      3 PHE5        0.0000 
     29 CZ        155.9600  153.5700   88.4300 C.ar      3 PHE5        0.0000 
     30 CZ        157.8300  154.0000   89.3300 C.ar      3 PHE5        0.0000 
     31 CZ        157.9500  152.5700   89.7600 C.ar      3 PHE5        0.0000 
     32 CZ        158.0300  157.3100   89.8200 C.ar      3 PHE5        0.0000 
     33 CZ        158.1500  155.8800   90.2600 C.ar      3 PHE5        0.0000 
     34 CZ        158.4800  157.7600   91.1800 C.ar      3 PHE5        0.0000 
     35 CZ        158.6000  156.3300   91.6200 C.ar      3 PHE5        0.0000 
     36 CZ        158.7200  154.9000   92.0500 C.ar      3 PHE5        0.0000 
     37 CZ        158.9200  158.2100   92.5400 C.ar      3 PHE5        0.0000 
     38 CZ        159.0400  156.7800   92.9800 C.ar      3 PHE5        0.0000 
     39 CZ        159.1700  155.3500   93.4100 C.ar      3 PHE5        0.0000 
     40 CZ        156.3900  160.1300   94.3900 C.ar      3 PHE5        0.0000 
     41 CZ        159.4900  157.2300   94.3400 C.ar      3 PHE5        0.0000 
     42 CZ        159.6100  155.8000   94.7700 C.ar      3 PHE5        0.0000 
     43 CZ        159.8100  159.1100   95.2700 C.ar      3 PHE5        0.0000 
     44 CZ        158.3800  159.1300   95.7300 C.ar      3 PHE5        0.0000 
     45 CA        154.5300  153.5900   88.8900 C.3       4 GLY6        0.0000 
     46 CA        157.5900  156.8600   88.4600 C.3       4 GLY6        0.0000 
     47 CA        159.2600  153.9900   88.8700 C.3       4 GLY6        0.0000 
     48 CA        154.9800  154.0400   90.2500 C.3       4 GLY6        0.0000 
     49 CA        156.3600  160.1900   89.4200 C.3       4 GLY6        0.0000 
     50 CA        154.9300  160.2100   89.8800 C.3       4 GLY6        0.0000 
     51 CA        157.9100  158.7400   89.3900 C.3       4 GLY6        0.0000 
     52 CA        156.4800  158.7600   89.8500 C.3       4 GLY6        0.0000 
     53 CA        159.7000  154.4300   90.2300 C.3       4 GLY6        0.0000 
     54 CA        155.4200  154.4900   91.6100 C.3       4 GLY6        0.0000 
     55 CA        158.4000  153.0200   91.1200 C.3       4 GLY6        0.0000 
     56 CA        156.8000  160.6400   90.7800 C.3       4 GLY6        0.0000 
     57 CA        155.5000  159.2300   91.6700 C.3       4 GLY6        0.0000 
     58 CA        155.6200  157.8000   92.1100 C.3       4 GLY6        0.0000 
     59 CA        156.0700  158.2500   93.4700 C.3       4 GLY6        0.0000 
     60 CA        154.6400  158.2600   93.9300 C.3       4 GLY6        0.0000 
     61 CA        159.2900  153.9200   93.8400 C.3       4 GLY6        0.0000 
     62 CA        158.1800  155.8100   95.2300 C.3       4 GLY6        0.0000 
     63 CA        156.8800  154.4000   96.1200 C.3       4 GLY6        0.0000 
     64 CA        159.9300  157.6800   95.7000 C.3       4 GLY6        0.0000 
     65 CA        158.6300  156.2600   96.5900 C.3       4 GLY6        0.0000 
     66 DU        155.7100  156.4300   87.5600 H         5 CUB7        0.0000 
     67 DU        155.8400  155.0000   88.0000 H         5 CUB7        0.0000 
     68 DU        156.1600  156.8800   88.9200 H         5 CUB7        0.0000 
     69 DU        157.7100  155.4300   88.8900 H         5 CUB7        0.0000 
     70 DU        156.4000  154.0200   89.7900 H         5 CUB7        0.0000 
     71 DU        156.6000  157.3300   90.2800 H         5 CUB7        0.0000 
     72 DU        155.1800  157.3500   90.7400 H         5 CUB7        0.0000 
     73 DU        156.7300  155.9000   90.7200 H         5 CUB7        0.0000 
     74 DU        155.3000  155.9200   91.1800 H         5 CUB7        0.0000 
     75 DU        158.2800  154.4500   90.6900 H         5 CUB7        0.0000 
     76 DU        156.8500  154.4700   91.1500 H         5 CUB7        0.0000 
     77 DU        157.0500  157.7800   91.6400 H         5 CUB7        0.0000 
     78 DU        157.1700  156.3500   92.0800 H         5 CUB7        0.0000 
     79 DU        155.7400  156.3700   92.5400 H         5 CUB7        0.0000 
     80 DU        157.6200  156.8000   93.4400 H         5 CUB7        0.0000 
     81 DU        156.1900  156.8100   93.9000 H         5 CUB7        0.0000 
     82 DU        156.5100  158.6900   94.8300 H         5 CUB7        0.0000 
     83 DU        158.0600  157.2500   94.8000 H         5 CUB7        0.0000 
     84 DU        158.5000  157.6900   96.1600 H         5 CUB7        0.0000 
@<TRIPOS>BOND
@<TRIPOS>SUBSTRUCTURE
     1 SER1        1 GROUP   
     2 ALA2       16 GROUP   
     3 PHE5       28 GROUP   
     4 GLY6       45 GROUP   
     5 CUB7       66 GROUP   
@<TRIPOS>SET

