#    Name: 6vfs_4_ATP
#    Modification time : Fri May 22 19:31:38 2020

@<TRIPOS>MOLECULE
6vfs_4_ATP
   43    45     1     0     1
SMALL
NO_CHARGES


@<TRIPOS>ATOM
      1 PG        185.1950  157.8560   93.3770 P.3       1 ATP501      0.0000 
      2 O1G       185.1200  156.3770   93.0910 O.co2     1 ATP501      0.0000 
      3 O2G       184.8060  158.2380   94.7850 O.co2     1 ATP501      0.0000 
      4 O3G       184.5750  158.7180   92.3020 O.co2     1 ATP501      0.0000 
      5 PB        187.5380  157.7700   91.9240 P.3       1 ATP501      0.0000 
      6 O1B       186.7120  158.2650   90.7630 O.co2     1 ATP501      0.0000 
      7 O2B       187.8850  156.3040   92.0120 O.co2     1 ATP501      0.0000 
      8 O3B       186.7690  158.1850   93.2760 O.3       1 ATP501      0.0000 
      9 PA        189.8170  158.6280   90.6180 P.3       1 ATP501      0.0000 
     10 O1A       188.9360  159.0520   89.4680 O.co2     1 ATP501      0.0000 
     11 O2A       190.5550  157.3150   90.5150 O.co2     1 ATP501      0.0000 
     12 O3A       188.9090  158.6150   91.9490 O.3       1 ATP501      0.0000 
     13 O5'       190.8930  159.7960   90.8890 O.3       1 ATP501      0.0000 
     14 C5'       190.6670  161.1360   90.4510 C.3       1 ATP501      0.0000 
     15 C4'       191.9490  161.9470   90.6200 C.3       1 ATP501      0.0000 
     16 O4'       192.6220  161.4850   91.7960 O.3       1 ATP501      0.0000 
     17 C3'       192.9240  161.7860   89.4610 C.3       1 ATP501      0.0000 
     18 O3'       193.5520  163.0360   89.1550 O.3       1 ATP501      0.0000 
     19 C2'       193.9510  160.8000   89.9700 C.3       1 ATP501      0.0000 
     20 O2'       195.2550  161.0290   89.4270 O.3       1 ATP501      0.0000 
     21 C1'       193.9380  161.0230   91.4720 C.3       1 ATP501      0.0000 
     22 N9        194.2620  159.7770   92.2060 N.pl3     1 ATP501      0.0000 
     23 C8        193.4460  159.1370   93.0680 C.2       1 ATP501      0.0000 
     24 N7        194.0560  158.0420   93.5790 N.2       1 ATP501      0.0000 
     25 C5        195.2820  157.9790   93.0400 C.ar      1 ATP501      0.0000 
     26 C6        196.4320  157.0700   93.1550 C.ar      1 ATP501      0.0000 
     27 N6        196.3420  156.0040   93.9740 N.pl3     1 ATP501      0.0000 
     28 N1        197.5410  157.3380   92.4300 N.ar      1 ATP501      0.0000 
     29 C2        197.6110  158.4080   91.6150 C.ar      1 ATP501      0.0000 
     30 N3        196.5930  159.2800   91.4650 N.ar      1 ATP501      0.0000 
     31 C4        195.4250  159.1250   92.1390 C.ar      1 ATP501      0.0000 
     32 H5'1      189.8760  161.5760   91.0600 H         1 ATP501      0.0000 
     33 H5'2      190.3410  161.1490   89.4090 H         1 ATP501      0.0000 
     34 H4'       191.6860  163.0090   90.7210 H         1 ATP501      0.0000 
     35 H3'       192.4100  161.3860   88.5760 H         1 ATP501      0.0000 
     36 HO3'      194.1840  162.9190   88.4320 H         1 ATP501      0.0000 
     37 H2'       193.6070  159.7810   89.7470 H         1 ATP501      0.0000 
     38 HO2'      195.2450  160.8550   88.4770 H         1 ATP501      0.0000 
     39 H1'       194.6760  161.7970   91.7220 H         1 ATP501      0.0000 
     40 H8        192.4410  159.4520   93.3200 H         1 ATP501      0.0000 
     41 HN61      195.4970  155.8390   94.4990 H         1 ATP501      0.0000 
     42 HN62      197.1180  155.3790   94.0520 H         1 ATP501      0.0000 
     43 H2        198.5260  158.5740   91.0580 H         1 ATP501      0.0000 
@<TRIPOS>BOND
     1    1    2 ar   
     2    1    3 ar   
     3    1    4 ar   
     4    1    8 1    
     5    5    6 ar   
     6    5    7 ar   
     7    5    8 1    
     8    5   12 1    
     9    9   10 ar   
    10    9   11 ar   
    11    9   12 1    
    12    9   13 1    
    13   13   14 1    
    14   14   15 1    
    15   14   32 1    
    16   14   33 1    
    17   15   16 1    
    18   15   17 1    
    19   15   34 1    
    20   16   21 1    
    21   17   18 1    
    22   17   19 1    
    23   17   35 1    
    24   18   36 1    
    25   19   20 1    
    26   19   21 1    
    27   19   37 1    
    28   20   38 1    
    29   21   22 1    
    30   21   39 1    
    31   22   23 1    
    32   22   31 1    
    33   23   24 2    
    34   23   40 1    
    35   24   25 1    
    36   25   26 ar   
    37   25   31 ar   
    38   26   27 1    
    39   26   28 ar   
    40   27   41 1    
    41   27   42 1    
    42   28   29 ar   
    43   29   30 ar   
    44   29   43 1    
    45   30   31 ar   
@<TRIPOS>SUBSTRUCTURE
     1 ATP501      1 GROUP   
@<TRIPOS>SET
ATOM$ORANGE STATIC     ATOMS   COLORGROUP SYSTEM 
20 14 14 15 15 17 17 19 19 21 21 23 23 25 25 26 26 29 \
29 31 31 

