#    Name: 6vfs_3_ATP
#    Modification time : Fri May 22 19:31:30 2020

@<TRIPOS>MOLECULE
6vfs_3_ATP
   43    45     1     0     1
SMALL
NO_CHARGES


@<TRIPOS>ATOM
      1 PG        171.2920  132.0530   92.2680 P.3       1 ATP501      0.0000 
      2 O1G       169.9690  131.4630   92.6920 O.co2     1 ATP501      0.0000 
      3 O2G       171.7280  133.2490   93.0810 O.co2     1 ATP501      0.0000 
      4 O3G       171.4310  132.2400   90.7760 O.co2     1 ATP501      0.0000 
      5 PB        172.3320  129.4930   91.8570 P.3       1 ATP501      0.0000 
      6 O1B       171.6300  129.6820   90.5350 O.co2     1 ATP501      0.0000 
      7 O2B       171.8220  128.4450   92.8160 O.co2     1 ATP501      0.0000 
      8 O3B       172.3760  130.9120   92.6190 O.3       1 ATP501      0.0000 
      9 PA        174.2500  128.0160   90.5030 P.3       1 ATP501      0.0000 
     10 O1A       174.1990  128.6140   89.1180 O.co2     1 ATP501      0.0000 
     11 O2A       173.4060  126.8010   90.8060 O.co2     1 ATP501      0.0000 
     12 O3A       173.8820  129.1690   91.5650 O.3       1 ATP501      0.0000 
     13 O5'       175.7780  127.6420   90.8540 O.3       1 ATP501      0.0000 
     14 C5'       176.8620  128.5430   90.6220 C.3       1 ATP501      0.0000 
     15 C4'       178.1630  127.8630   91.0380 C.3       1 ATP501      0.0000 
     16 O4'       177.9460  127.2140   92.2970 O.3       1 ATP501      0.0000 
     17 C3'       178.6170  126.7870   90.0610 C.3       1 ATP501      0.0000 
     18 O3'       180.0430  126.7960   89.9310 O.3       1 ATP501      0.0000 
     19 C2'       178.1610  125.4920   90.6960 C.3       1 ATP501      0.0000 
     20 O2'       179.0220  124.3920   90.3870 O.3       1 ATP501      0.0000 
     21 C1'       178.1860  125.8070   92.1820 C.3       1 ATP501      0.0000 
     22 N9        177.1700  125.0260   92.9290 N.pl3     1 ATP501      0.0000 
     23 C8        176.1320  125.5390   93.6200 C.2       1 ATP501      0.0000 
     24 N7        175.4100  124.5490   94.2000 N.2       1 ATP501      0.0000 
     25 C5        175.9950  123.3830   93.8820 C.ar      1 ATP501      0.0000 
     26 C6        175.7370  121.9610   94.1710 C.ar      1 ATP501      0.0000 
     27 N6        174.6770  121.6210   94.9340 N.pl3     1 ATP501      0.0000 
     28 N1        176.5800  121.0400   93.6540 N.ar      1 ATP501      0.0000 
     29 C2        177.6340  121.3910   92.8920 C.ar      1 ATP501      0.0000 
     30 N3        177.9240  122.6730   92.5920 N.ar      1 ATP501      0.0000 
     31 C4        177.1590  123.6960   93.0500 C.ar      1 ATP501      0.0000 
     32 H5'1      176.9030  128.8330   89.5700 H         1 ATP501      0.0000 
     33 H5'2      176.7120  129.4440   91.2200 H         1 ATP501      0.0000 
     34 H4'       178.9510  128.6230   91.1290 H         1 ATP501      0.0000 
     35 H3'       178.1380  126.9300   89.0840 H         1 ATP501      0.0000 
     36 HO3'      180.3220  126.0910   89.3300 H         1 ATP501      0.0000 
     37 H2'       177.1300  125.2810   90.3810 H         1 ATP501      0.0000 
     38 HO2'      178.9700  124.1970   89.4420 H         1 ATP501      0.0000 
     39 H1'       179.1840  125.5700   92.5750 H         1 ATP501      0.0000 
     40 H8        175.9010  126.5930   93.7010 H         1 ATP501      0.0000 
     41 HN61      174.0750  122.3390   95.3010 H         1 ATP501      0.0000 
     42 HN62      174.4870  120.6570   95.1330 H         1 ATP501      0.0000 
     43 H2        178.2760  120.6090   92.5050 H         1 ATP501      0.0000 
@<TRIPOS>BOND
     1    1    2 ar   
     2    1    3 ar   
     3    1    4 ar   
     4    1    8 1    
     5    5    6 ar   
     6    5    7 ar   
     7    5    8 1    
     8    5   12 1    
     9    9   10 ar   
    10    9   11 ar   
    11    9   12 1    
    12    9   13 1    
    13   13   14 1    
    14   14   15 1    
    15   14   32 1    
    16   14   33 1    
    17   15   16 1    
    18   15   17 1    
    19   15   34 1    
    20   16   21 1    
    21   17   18 1    
    22   17   19 1    
    23   17   35 1    
    24   18   36 1    
    25   19   20 1    
    26   19   21 1    
    27   19   37 1    
    28   20   38 1    
    29   21   22 1    
    30   21   39 1    
    31   22   23 1    
    32   22   31 1    
    33   23   24 2    
    34   23   40 1    
    35   24   25 1    
    36   25   26 ar   
    37   25   31 ar   
    38   26   27 1    
    39   26   28 ar   
    40   27   41 1    
    41   27   42 1    
    42   28   29 ar   
    43   29   30 ar   
    44   29   43 1    
    45   30   31 ar   
@<TRIPOS>SUBSTRUCTURE
     1 ATP501      1 GROUP   
@<TRIPOS>SET
ATOM$ORANGE STATIC     ATOMS   COLORGROUP SYSTEM 
20 14 14 15 15 17 17 19 19 21 21 23 23 25 25 26 26 29 \
29 31 31 

