#    Name: 6vfs_2_ADP
#    Modification time : Fri May 22 19:31:22 2020

@<TRIPOS>MOLECULE
6vfs_2_ADP
   39    41     1     0     1
SMALL
NO_CHARGES


@<TRIPOS>ATOM
      1 PB        137.6610  126.6630   98.1800 P.3       1 ADP501      0.0000 
      2 O1B       136.7200  127.5900   97.4500 O.co2     1 ADP501      0.0000 
      3 O2B       137.1390  126.1560   99.5030 O.co2     1 ADP501      0.0000 
      4 O3B       139.0880  127.1550   98.2240 O.co2     1 ADP501      0.0000 
      5 PA        138.8950  125.1150   96.1840 P.3       1 ADP501      0.0000 
      6 O1A       138.7290  126.1230   95.0740 O.co2     1 ADP501      0.0000 
      7 O2A       140.1930  125.0560   96.9530 O.co2     1 ADP501      0.0000 
      8 O3A       137.7180  125.3420   97.2600 O.3       1 ADP501      0.0000 
      9 O5'       138.5260  123.6420   95.6360 O.3       1 ADP501      0.0000 
     10 C5'       139.4410  122.5490   95.7220 C.3       1 ADP501      0.0000 
     11 C4'       138.7120  121.3100   96.2360 C.3       1 ADP501      0.0000 
     12 O4'       138.1330  121.5510   97.5260 O.3       1 ADP501      0.0000 
     13 C3'       137.5680  120.8460   95.3370 C.3       1 ADP501      0.0000 
     14 O3'       137.9040  119.6130   94.6930 O.3       1 ADP501      0.0000 
     15 C2'       136.3820  120.6500   96.2670 C.3       1 ADP501      0.0000 
     16 O2'       135.7210  119.4000   96.0470 O.3       1 ADP501      0.0000 
     17 C1'       136.9940  120.6950   97.6580 C.3       1 ADP501      0.0000 
     18 N9        136.0270  121.1500   98.6900 N.pl3     1 ADP501      0.0000 
     19 C8        136.2200  122.1290   99.5980 C.2       1 ADP501      0.0000 
     20 N7        135.1330  122.2570  100.4000 N.2       1 ADP501      0.0000 
     21 C5        134.2320  121.3390  100.0120 C.ar      1 ADP501      0.0000 
     22 C6        132.8770  120.9350  100.4320 C.ar      1 ADP501      0.0000 
     23 N6        132.2600  121.5580  101.4520 N.pl3     1 ADP501      0.0000 
     24 N1        132.2720  119.9270   99.7680 N.ar      1 ADP501      0.0000 
     25 C2        132.8690  119.2910   98.7450 C.ar      1 ADP501      0.0000 
     26 N3        134.1040  119.6110   98.3110 N.ar      1 ADP501      0.0000 
     27 C4        134.8250  120.6030   98.8920 C.ar      1 ADP501      0.0000 
     28 H5'1      140.2570  122.7970   96.4030 H         1 ADP501      0.0000 
     29 H5'2      139.8760  122.3390   94.7420 H         1 ADP501      0.0000 
     30 H4'       139.4420  120.4920   96.3160 H         1 ADP501      0.0000 
     31 H3'       137.3400  121.6200   94.5910 H         1 ADP501      0.0000 
     32 HO3'      137.1900  119.3500   94.0960 H         1 ADP501      0.0000 
     33 H2'       135.6780  121.4850   96.1430 H         1 ADP501      0.0000 
     34 HO2'      135.2510  119.4230   95.2020 H         1 ADP501      0.0000 
     35 H1'       137.3360  119.6850   97.9190 H         1 ADP501      0.0000 
     36 H8        137.1120  122.7370   99.6740 H         1 ADP501      0.0000 
     37 HN61      131.3400  121.2580  101.7050 H         1 ADP501      0.0000 
     38 HN62      132.7130  122.3090  101.9500 H         1 ADP501      0.0000 
     39 H2        132.3330  118.4890   98.2520 H         1 ADP501      0.0000 
@<TRIPOS>BOND
     1    1    2 ar   
     2    1    3 ar   
     3    1    4 ar   
     4    1    8 1    
     5    5    6 ar   
     6    5    7 ar   
     7    5    8 1    
     8    5    9 1    
     9    9   10 1    
    10   10   11 1    
    11   10   28 1    
    12   10   29 1    
    13   11   12 1    
    14   11   13 1    
    15   11   30 1    
    16   12   17 1    
    17   13   14 1    
    18   13   15 1    
    19   13   31 1    
    20   14   32 1    
    21   15   16 1    
    22   15   17 1    
    23   15   33 1    
    24   16   34 1    
    25   17   18 1    
    26   17   35 1    
    27   18   19 1    
    28   18   27 1    
    29   19   20 2    
    30   19   36 1    
    31   20   21 1    
    32   21   22 ar   
    33   21   27 ar   
    34   22   23 1    
    35   22   24 ar   
    36   23   37 1    
    37   23   38 1    
    38   24   25 ar   
    39   25   26 ar   
    40   25   39 1    
    41   26   27 ar   
@<TRIPOS>SUBSTRUCTURE
     1 ADP501      1 GROUP   
@<TRIPOS>SET
ATOM$ORANGE STATIC     ATOMS   COLORGROUP SYSTEM 
20 10 10 11 11 13 13 15 15 17 17 19 19 21 21 22 22 25 \
25 27 27 

