#    Name: 6vfs_1_UNK_UNK_UNK_UNK_UNK_UNK_UNK
#    Modification time : Fri May 22 19:31:16 2020

@<TRIPOS>MOLECULE
6vfs_1_UNK_UNK_UNK_UNK_UNK_UNK_UNK
   63    62     7     0     0
SMALL
NO_CHARGES


@<TRIPOS>ATOM
      1 N         156.4250  159.1270   95.9410 N.4       1 UNK7        0.0000 
      2 CA        157.3140  159.1000   94.7860 C.3       1 UNK7        0.0000 
      3 C         156.5750  158.5570   93.5690 C.2       1 UNK7        0.0000 
      4 O         155.5680  157.8650   93.7100 O.2       1 UNK7        0.0000 
      5 CB        158.5420  158.2610   95.0830 C.3       1 UNK7        0.0000 
      6 HA        157.6040  160.0040   94.5890 H         1 UNK7        0.0000 
      7 HB1       159.1410  158.2990   94.3220 H         1 UNK7        0.0000 
      8 HB2       158.9820  158.6170   95.8710 H         1 UNK7        0.0000 
      9 N         157.0770  158.8660   92.3730 N.am      2 UNK8        0.0000 
     10 CA        156.4040  158.4780   91.1320 C.3       2 UNK8        0.0000 
     11 C         157.4380  157.9850   90.1250 C.2       2 UNK8        0.0000 
     12 O         158.1300  158.7890   89.4940 O.2       2 UNK8        0.0000 
     13 CB        155.6070  159.6410   90.5590 C.3       2 UNK8        0.0000 
     14 H         157.8050  159.3080   92.2520 H         2 UNK8        0.0000 
     15 HA        155.7940  157.7470   91.3180 H         2 UNK8        0.0000 
     16 HB1       155.0150  159.3080   89.8660 H         2 UNK8        0.0000 
     17 HB2       155.0940  160.0490   91.2700 H         2 UNK8        0.0000 
     18 N         157.5270  156.6680   89.9660 N.am      3 UNK9        0.0000 
     19 CA        158.3180  156.1010   88.8850 C.3       3 UNK9        0.0000 
     20 C         157.5950  156.3080   87.5600 C.2       3 UNK9        0.0000 
     21 O         156.3680  156.2100   87.4860 O.2       3 UNK9        0.0000 
     22 CB        158.5600  154.6120   89.1250 C.3       3 UNK9        0.0000 
     23 H         157.1400  156.0850   90.4670 H         3 UNK9        0.0000 
     24 HA        159.1780  156.5480   88.8430 H         3 UNK9        0.0000 
     25 HB1       159.1170  154.2630   88.4120 H         3 UNK9        0.0000 
     26 HB2       159.0010  154.4970   89.9800 H         3 UNK9        0.0000 
     27 N         158.3570  156.6040   86.5100 N.am      4 UNK10       0.0000 
     28 CA        157.8040  156.8180   85.1760 C.3       4 UNK10       0.0000 
     29 C         158.2190  155.6540   84.2880 C.2       4 UNK10       0.0000 
     30 O         159.4050  155.4850   83.9890 O.2       4 UNK10       0.0000 
     31 CB        158.2690  158.1450   84.5850 C.3       4 UNK10       0.0000 
     32 H         159.2130  156.6860   86.5440 H         4 UNK10       0.0000 
     33 HA        156.8350  156.8300   85.2290 H         4 UNK10       0.0000 
     34 HB1       158.7020  157.9740   83.7350 H         4 UNK10       0.0000 
     35 HB2       157.4920  158.7080   84.4480 H         4 UNK10       0.0000 
     36 N         157.2400  154.8650   83.8610 N.am      5 UNK11       0.0000 
     37 CA        157.5080  153.7200   83.0120 C.3       5 UNK11       0.0000 
     38 C         157.7730  154.1670   81.5780 C.2       5 UNK11       0.0000 
     39 O         157.4380  155.2830   81.1720 O.2       5 UNK11       0.0000 
     40 CB        156.3350  152.7410   83.0480 C.3       5 UNK11       0.0000 
     41 H         156.4080  154.9770   84.0490 H         5 UNK11       0.0000 
     42 HA        158.2970  153.2610   83.3380 H         5 UNK11       0.0000 
     43 HB1       156.5350  151.9870   82.4730 H         5 UNK11       0.0000 
     44 HB2       156.2070  152.4390   83.9610 H         5 UNK11       0.0000 
     45 N         158.3910  153.2750   80.8100 N.am      6 UNK12       0.0000 
     46 CA        158.6520  153.4910   79.3920 C.3       6 UNK12       0.0000 
     47 C         157.7730  152.5240   78.6120 C.2       6 UNK12       0.0000 
     48 O         157.9510  151.3050   78.7020 O.2       6 UNK12       0.0000 
     49 CB        160.1270  153.2830   79.0630 C.3       6 UNK12       0.0000 
     50 H         158.6730  152.5140   81.0950 H         6 UNK12       0.0000 
     51 HA        158.4080  154.3990   79.1500 H         6 UNK12       0.0000 
     52 HB1       160.2690  153.4800   78.1240 H         6 UNK12       0.0000 
     53 HB2       160.6610  153.8780   79.6120 H         6 UNK12       0.0000 
     54 N         156.8270  153.0650   77.8540 N.am      7 UNK13       0.0000 
     55 CA        155.8900  152.2380   77.1080 C.3       7 UNK13       0.0000 
     56 C         155.3280  152.9870   75.9100 C.2       7 UNK13       0.0000 
     57 O         154.7400  154.0580   76.0600 O.2       7 UNK13       0.0000 
     58 CB        154.7690  151.7830   78.0110 C.3       7 UNK13       0.0000 
     59 OXT       155.4370  152.5350   74.7710 O.co2     7 UNK13       0.0000 
     60 H         156.7040  153.9100   77.7560 H         7 UNK13       0.0000 
     61 HA        156.3550  151.4500   76.7830 H         7 UNK13       0.0000 
     62 HB1       153.9260  151.8720   77.5410 H         7 UNK13       0.0000 
     63 HB2       154.9160  150.8600   78.2380 H         7 UNK13       0.0000 
@<TRIPOS>BOND
     1    1    2 1    
     2    2    3 1    
     3    2    5 1    
     4    2    6 1    
     5    3    4 2    
     6    3    9 du   
     7    5    7 1    
     8    5    8 1    
     9    9   10 1    
    10   10   11 1    
    11    9   14 1    
    12   10   13 1    
    13   10   15 1    
    14   11   12 2    
    15   11   18 du   
    16   13   16 1    
    17   13   17 1    
    18   18   19 1    
    19   19   20 1    
    20   18   23 1    
    21   19   22 1    
    22   19   24 1    
    23   20   21 2    
    24   20   27 du   
    25   22   25 1    
    26   22   26 1    
    27   27   28 1    
    28   28   29 1    
    29   27   32 1    
    30   28   31 1    
    31   28   33 1    
    32   29   30 2    
    33   29   36 du   
    34   31   34 1    
    35   31   35 1    
    36   36   37 1    
    37   37   38 1    
    38   36   41 1    
    39   37   40 1    
    40   37   42 1    
    41   38   39 2    
    42   38   45 du   
    43   40   43 1    
    44   40   44 1    
    45   45   46 1    
    46   46   47 1    
    47   45   50 1    
    48   46   49 1    
    49   46   51 1    
    50   47   48 2    
    51   47   54 du   
    52   49   52 1    
    53   49   53 1    
    54   54   55 1    
    55   55   56 1    
    56   54   60 1    
    57   55   58 1    
    58   55   61 1    
    59   56   57 2    
    60   56   59 ar   
    61   58   62 1    
    62   58   63 1    
@<TRIPOS>SUBSTRUCTURE
     1 UNK7        1 RESIDUE 
     2 UNK8        9 RESIDUE 
     3 UNK9       18 RESIDUE 
     4 UNK10      27 RESIDUE 
     5 UNK11      36 RESIDUE 
     6 UNK12      45 RESIDUE 
     7 UNK13      54 RESIDUE 
@<TRIPOS>SET

