#    Name: 6vfs_5_ATP
#    Modification time : Fri May 22 19:31:47 2020

@<TRIPOS>MOLECULE
6vfs_5_ATP
   43    45     1     0     1
SMALL
NO_CHARGES


@<TRIPOS>ATOM
      1 PG        170.1470  183.1910   94.8060 P.3       1 ATP501      0.0000 
      2 O1G       171.2590  182.3670   94.2030 O.co2     1 ATP501      0.0000 
      3 O2G       170.0880  183.1380   96.3130 O.co2     1 ATP501      0.0000 
      4 O3G       168.8100  183.0130   94.1270 O.co2     1 ATP501      0.0000 
      5 PB        170.9090  185.0170   92.9030 P.3       1 ATP501      0.0000 
      6 O1B       169.7790  184.4630   92.0700 O.co2     1 ATP501      0.0000 
      7 O2B       172.3180  184.5440   92.6410 O.co2     1 ATP501      0.0000 
      8 O3B       170.5610  184.7060   94.4430 O.3       1 ATP501      0.0000 
      9 PA        171.1750  187.2300   91.2890 P.3       1 ATP501      0.0000 
     10 O1A       170.2310  186.5620   90.3190 O.co2     1 ATP501      0.0000 
     11 O2A       172.6580  187.1550   91.0180 O.co2     1 ATP501      0.0000 
     12 O3A       170.8860  186.6200   92.7530 O.3       1 ATP501      0.0000 
     13 O5'       170.7800  188.7860   91.4130 O.3       1 ATP501      0.0000 
     14 C5'       169.4300  189.2450   91.4230 C.3       1 ATP501      0.0000 
     15 C4'       169.4520  190.7650   91.5320 C.3       1 ATP501      0.0000 
     16 O4'       170.4540  191.1280   92.4880 O.3       1 ATP501      0.0000 
     17 C3'       169.8190  191.4610   90.2280 C.3       1 ATP501      0.0000 
     18 O3'       169.0090  192.6280   90.0490 O.3       1 ATP501      0.0000 
     19 C2'       171.2690  191.8580   90.4020 C.3       1 ATP501      0.0000 
     20 O2'       171.6010  193.0610   89.7020 O.3       1 ATP501      0.0000 
     21 C1'       171.3750  192.0540   91.9030 C.3       1 ATP501      0.0000 
     22 N9        172.7450  191.8490   92.4320 N.pl3     1 ATP501      0.0000 
     23 C8        173.0860  190.9750   93.4010 C.2       1 ATP501      0.0000 
     24 N7        174.4080  191.0600   93.6770 N.2       1 ATP501      0.0000 
     25 C5        174.9200  192.0080   92.8800 C.ar      1 ATP501      0.0000 
     26 C6        176.2540  192.5840   92.6710 C.ar      1 ATP501      0.0000 
     27 N6        177.2820  192.1190   93.4060 N.pl3     1 ATP501      0.0000 
     28 N1        176.3970  193.5600   91.7470 N.ar      1 ATP501      0.0000 
     29 C2        175.3520  194.0070   91.0230 C.ar      1 ATP501      0.0000 
     30 N3        174.1030  193.5200   91.1670 N.ar      1 ATP501      0.0000 
     31 C4        173.8270  192.5390   92.0640 C.ar      1 ATP501      0.0000 
     32 H5'1      168.9150  188.8210   92.2880 H         1 ATP501      0.0000 
     33 H5'2      168.9000  188.9320   90.5210 H         1 ATP501      0.0000 
     34 H4'       168.4640  191.1170   91.8630 H         1 ATP501      0.0000 
     35 H3'       169.7020  190.7740   89.3790 H         1 ATP501      0.0000 
     36 HO3'      169.2630  193.0860   89.2360 H         1 ATP501      0.0000 
     37 H2'       171.9160  191.0280   90.0840 H         1 ATP501      0.0000 
     38 HO2'      171.5110  192.9180   88.7500 H         1 ATP501      0.0000 
     39 H1'       171.0590  193.0790   92.1400 H         1 ATP501      0.0000 
     40 H8        172.4030  190.2940   93.8920 H         1 ATP501      0.0000 
     41 HN61      178.1940  192.5000   93.2660 H         1 ATP501      0.0000 
     42 HN62      177.1320  191.3880   94.0870 H         1 ATP501      0.0000 
     43 H2        175.5250  194.7920   90.2950 H         1 ATP501      0.0000 
@<TRIPOS>BOND
     1    1    2 ar   
     2    1    3 ar   
     3    1    4 ar   
     4    1    8 1    
     5    5    6 ar   
     6    5    7 ar   
     7    5    8 1    
     8    5   12 1    
     9    9   10 ar   
    10    9   11 ar   
    11    9   12 1    
    12    9   13 1    
    13   13   14 1    
    14   14   15 1    
    15   14   32 1    
    16   14   33 1    
    17   15   16 1    
    18   15   17 1    
    19   15   34 1    
    20   16   21 1    
    21   17   18 1    
    22   17   19 1    
    23   17   35 1    
    24   18   36 1    
    25   19   20 1    
    26   19   21 1    
    27   19   37 1    
    28   20   38 1    
    29   21   22 1    
    30   21   39 1    
    31   22   23 1    
    32   22   31 1    
    33   23   24 2    
    34   23   40 1    
    35   24   25 1    
    36   25   26 ar   
    37   25   31 ar   
    38   26   27 1    
    39   26   28 ar   
    40   27   41 1    
    41   27   42 1    
    42   28   29 ar   
    43   29   30 ar   
    44   29   43 1    
    45   30   31 ar   
@<TRIPOS>SUBSTRUCTURE
     1 ATP501      1 GROUP   
@<TRIPOS>SET
ATOM$ORANGE STATIC     ATOMS   COLORGROUP SYSTEM 
20 14 14 15 15 17 17 19 19 21 21 23 23 25 25 26 26 29 \
29 31 31 

