#    Name: 6vfs_6_ATP
#    Modification time : Fri May 22 19:31:56 2020

@<TRIPOS>MOLECULE
6vfs_6_ATP
   43    45     1     0     1
SMALL
NO_CHARGES


@<TRIPOS>ATOM
      1 PG        140.5680  182.9330   99.8280 P.3       1 ATP501      0.0000 
      2 O1G       141.9090  183.6250   99.8240 O.co2     1 ATP501      0.0000 
      3 O2G       140.1120  182.4740  101.1920 O.co2     1 ATP501      0.0000 
      4 O3G       140.4170  181.8850   98.7510 O.co2     1 ATP501      0.0000 
      5 PB        139.3700  184.5910   97.9020 P.3       1 ATP501      0.0000 
      6 O1B       139.4110  183.3860   96.9940 O.co2     1 ATP501      0.0000 
      7 O2B       140.3520  185.7140   97.6730 O.co2     1 ATP501      0.0000 
      8 O3B       139.5080  184.0820   99.4260 O.3       1 ATP501      0.0000 
      9 PA        137.3160  185.7820   96.4480 P.3       1 ATP501      0.0000 
     10 O1A       137.2440  184.6360   95.4680 O.co2     1 ATP501      0.0000 
     11 O2A       138.1140  187.0060   96.0720 O.co2     1 ATP501      0.0000 
     12 O3A       137.8820  185.2090   97.8440 O.3       1 ATP501      0.0000 
     13 O5'       135.8150  186.2610   96.7940 O.3       1 ATP501      0.0000 
     14 C5'       134.6930  185.3820   96.7000 C.3       1 ATP501      0.0000 
     15 C4'       133.3970  186.1870   96.7830 C.3       1 ATP501      0.0000 
     16 O4'       133.5700  187.2560   97.7220 O.3       1 ATP501      0.0000 
     17 C3'       132.9940  186.8190   95.4560 C.3       1 ATP501      0.0000 
     18 O3'       131.5950  186.6350   95.2140 O.3       1 ATP501      0.0000 
     19 C2'       133.3010  188.2920   95.6210 C.3       1 ATP501      0.0000 
     20 O2'       132.3600  189.1280   94.9400 O.3       1 ATP501      0.0000 
     21 C1'       133.2420  188.5130   97.1210 C.3       1 ATP501      0.0000 
     22 N9        134.1970  189.5690   97.5340 N.pl3     1 ATP501      0.0000 
     23 C8        135.2350  189.4010   98.3780 C.2       1 ATP501      0.0000 
     24 N7        135.9020  190.5660   98.5530 N.2       1 ATP501      0.0000 
     25 C5        135.2830  191.4980   97.8130 C.ar      1 ATP501      0.0000 
     26 C6        135.4820  192.9330   97.5510 C.ar      1 ATP501      0.0000 
     27 N6        136.5060  193.5750   98.1460 N.pl3     1 ATP501      0.0000 
     28 N1        134.6250  193.5590   96.7160 N.ar      1 ATP501      0.0000 
     29 C2        133.6050  192.9050   96.1270 C.ar      1 ATP501      0.0000 
     30 N3        133.3690  191.5920   96.3250 N.ar      1 ATP501      0.0000 
     31 C4        134.1550  190.8470   97.1430 C.ar      1 ATP501      0.0000 
     32 H5'1      134.7320  184.6740   97.5300 H         1 ATP501      0.0000 
     33 H5'2      134.7280  184.8130   95.7690 H         1 ATP501      0.0000 
     34 H4'       132.5890  185.5200   97.1150 H         1 ATP501      0.0000 
     35 H3'       133.5850  186.3940   94.6340 H         1 ATP501      0.0000 
     36 HO3'      131.3530  187.0360   94.3670 H         1 ATP501      0.0000 
     37 H2'       134.3230  188.4860   95.2650 H         1 ATP501      0.0000 
     38 HO2'      132.4570  189.0130   93.9860 H         1 ATP501      0.0000 
     39 H1'       132.2210  188.8080   97.4000 H         1 ATP501      0.0000 
     40 H8        135.5010  188.4660   98.8530 H         1 ATP501      0.0000 
     41 HN61      137.1260  193.0750   98.7660 H         1 ATP501      0.0000 
     42 HN62      136.6460  194.5500   97.9660 H         1 ATP501      0.0000 
     43 H2        132.9490  193.4590   95.4660 H         1 ATP501      0.0000 
@<TRIPOS>BOND
     1    1    2 ar   
     2    1    3 ar   
     3    1    4 ar   
     4    1    8 1    
     5    5    6 ar   
     6    5    7 ar   
     7    5    8 1    
     8    5   12 1    
     9    9   10 ar   
    10    9   11 ar   
    11    9   12 1    
    12    9   13 1    
    13   13   14 1    
    14   14   15 1    
    15   14   32 1    
    16   14   33 1    
    17   15   16 1    
    18   15   17 1    
    19   15   34 1    
    20   16   21 1    
    21   17   18 1    
    22   17   19 1    
    23   17   35 1    
    24   18   36 1    
    25   19   20 1    
    26   19   21 1    
    27   19   37 1    
    28   20   38 1    
    29   21   22 1    
    30   21   39 1    
    31   22   23 1    
    32   22   31 1    
    33   23   24 2    
    34   23   40 1    
    35   24   25 1    
    36   25   26 ar   
    37   25   31 ar   
    38   26   27 1    
    39   26   28 ar   
    40   27   41 1    
    41   27   42 1    
    42   28   29 ar   
    43   29   30 ar   
    44   29   43 1    
    45   30   31 ar   
@<TRIPOS>SUBSTRUCTURE
     1 ATP501      1 GROUP   
@<TRIPOS>SET
ATOM$ORANGE STATIC     ATOMS   COLORGROUP SYSTEM 
20 14 14 15 15 17 17 19 19 21 21 23 23 25 25 26 26 29 \
29 31 31 

