#    Name: 5wzw_1_U8D
#    Modification time : Fri May 22 19:16:30 2020

@<TRIPOS>MOLECULE
5wzw_1_U8D
   30    32     1     0     0
SMALL
NO_CHARGES


@<TRIPOS>ATOM
      1 N1         14.2090   20.0130   12.5660 N.pl3     1 U8D209      0.0000 
      2 C2         13.8590   19.2280   13.5940 C.2       1 U8D209      0.0000 
      3 C3         14.4350   18.0510   13.4370 C.2       1 U8D209      0.0000 
      4 C4         15.1590   18.0710   12.3170 C.ar      1 U8D209      0.0000 
      5 C5         15.9210   17.1330   11.7320 C.ar      1 U8D209      0.0000 
      6 C6         16.6030   17.3990   10.5420 C.ar      1 U8D209      0.0000 
      7 C7         16.4600   18.6690    9.9790 C.ar      1 U8D209      0.0000 
      8 C8         15.6530   19.6100   10.6300 C.ar      1 U8D209      0.0000 
      9 C9         15.0250   19.2980   11.7780 C.ar      1 U8D209      0.0000 
     10 C10        12.9540   19.6010   14.7540 C.3       1 U8D209      0.0000 
     11 C11        14.3010   16.8450   14.3880 C.3       1 U8D209      0.0000 
     12 O12        17.3810   16.4410    9.9370 O.3       1 U8D209      0.0000 
     13 C13        13.8150   21.4070   12.3220 C.3       1 U8D209      0.0000 
     14 C14        10.8990   21.9150    9.2890 C.ar      1 U8D209      0.0000 
     15 C15        11.6560   22.9800    9.7500 C.ar      1 U8D209      0.0000 
     16 C16        12.6060   22.7760   10.7500 C.ar      1 U8D209      0.0000 
     17 C17        12.8240   21.5050   11.3050 C.ar      1 U8D209      0.0000 
     18 C18        12.0410   20.4340   10.8280 C.ar      1 U8D209      0.0000 
     19 C19        11.0950   20.6430    9.8230 C.ar      1 U8D209      0.0000 
     20 C20        11.6150   18.9410   14.4330 C.3       1 U8D209      0.0000 
     21 C21        15.6590   16.4820   14.9960 C.2       1 U8D209      0.0000 
     22 O22        16.6150   17.2450   14.9390 O.2       1 U8D209      0.0000 
     23 N23        15.7140   15.3070   15.5740 N.am      1 U8D209      0.0000 
     24 C24        18.5940   16.0860   10.6510 C.3       1 U8D209      0.0000 
     25 C25        19.1840   14.9060    9.8990 C.3       1 U8D209      0.0000 
     26 P26        21.2940   14.6930   11.8050 P.3       1 U8D209      0.0000 
     27 O27        21.8840   13.3990   12.1780 O.co2     1 U8D209      0.0000 
     28 O28        21.9020   15.4450   10.6910 O.co2     1 U8D209      0.0000 
     29 O29        20.5760   15.4470   12.8480 O.co2     1 U8D209      0.0000 
     30 C30        19.8120   13.9720   10.9290 C.3       1 U8D209      0.0000 
@<TRIPOS>BOND
     1   17   18 ar   
     2   18   19 ar   
     3   21   22 2    
     4   21   23 am   
     5   24   25 1    
     6   25   30 1    
     7   26   27 ar   
     8   26   28 ar   
     9   26   29 ar   
    10   26   30 1    
    11    1    2 1    
    12    1    9 1    
    13    1   13 1    
    14    2    3 2    
    15    2   10 1    
    16    3    4 1    
    17    3   11 1    
    18    4    5 ar   
    19    4    9 ar   
    20    5    6 ar   
    21    6    7 ar   
    22    6   12 1    
    23    7    8 ar   
    24    8    9 ar   
    25   10   20 1    
    26   11   21 1    
    27   12   24 1    
    28   13   17 1    
    29   14   15 ar   
    30   14   19 ar   
    31   15   16 ar   
    32   16   17 ar   
@<TRIPOS>SUBSTRUCTURE
     1 U8D209      1 GROUP   
@<TRIPOS>SET

