#    Name: 5n0u_1_SAH_CAVITY_N1_6
#    Modification time : Fri May 22 19:14:58 2020

@<TRIPOS>MOLECULE
5n0u_1_SAH_CAVITY_N1_6
  116     0     5     0     0
SMALL
NO_CHARGES


@<TRIPOS>ATOM
      1 OG        -84.7500   28.8300   24.6700 O.3       1 SER1        0.0000 
      2 OG        -82.9300   27.7800   24.4100 O.3       1 SER1        0.0000 
      3 OG        -84.3900   28.8200   27.2400 O.3       1 SER1        0.0000 
      4 OG        -83.3000   28.8300   26.2100 O.3       1 SER1        0.0000 
      5 OG        -81.8400   28.8200   27.7500 O.3       1 SER1        0.0000 
      6 OG        -78.2200   36.2800   22.9000 O.3       1 SER1        0.0000 
      7 OG        -78.2200   37.3200   27.2800 O.3       1 SER1        0.0000 
      8 OG        -77.4900   38.3700   28.0600 O.3       1 SER1        0.0000 
      9 N         -86.5800   29.8900   24.9400 N.am      2 ALA2        0.0000 
     10 N         -85.4900   29.9000   23.9100 N.am      2 ALA2        0.0000 
     11 O         -81.8400   27.7800   23.3700 O.2       2 ALA2        0.0000 
     12 O         -81.4900   28.8600   21.5800 O.2       2 ALA2        0.0000 
     13 O         -81.1300   29.9300   19.7800 O.2       2 ALA2        0.0000 
     14 N         -80.4000   28.8600   20.5500 N.am      2 ALA2        0.0000 
     15 N         -85.1200   29.8800   26.4800 N.am      2 ALA2        0.0000 
     16 N         -84.0300   29.8900   25.4500 N.am      2 ALA2        0.0000 
     17 O         -82.9400   29.9000   24.4200 O.2       2 ALA2        0.0000 
     18 O         -81.1200   28.8400   24.1500 O.2       2 ALA2        0.0000 
     19 O         -80.0300   28.8500   23.1200 O.2       2 ALA2        0.0000 
     20 N         -84.3900   30.9400   27.2500 N.am      2 ALA2        0.0000 
     21 N         -83.3000   30.9500   26.2200 N.am      2 ALA2        0.0000 
     22 N         -82.9400   32.0200   24.4300 N.am      2 ALA2        0.0000 
     23 O         -82.2100   30.9600   25.1900 O.2       2 ALA2        0.0000 
     24 O         -82.5800   33.0900   22.6300 O.2       2 ALA2        0.0000 
     25 O         -80.3900   29.9000   24.9300 O.2       2 ALA2        0.0000 
     26 O         -79.3000   29.9100   23.9000 O.2       2 ALA2        0.0000 
     27 N         -77.4800   28.8500   23.6300 N.am      2 ALA2        0.0000 
     28 N         -84.0400   34.1300   25.4700 N.am      2 ALA2        0.0000 
     29 N         -83.3100   33.0700   26.2400 N.am      2 ALA2        0.0000 
     30 O         -82.2200   33.0800   25.2000 O.2       2 ALA2        0.0000 
     31 O         -81.4800   32.0100   25.9700 O.2       2 ALA2        0.0000 
     32 O         -81.1300   33.0900   24.1700 O.2       2 ALA2        0.0000 
     33 O         -80.3900   32.0200   24.9400 O.2       2 ALA2        0.0000 
     34 O         -79.6600   30.9600   25.7000 O.2       2 ALA2        0.0000 
     35 N         -77.8400   29.9000   25.4400 N.am      2 ALA2        0.0000 
     36 N         -76.7500   29.9100   24.4100 N.am      2 ALA2        0.0000 
     37 N         -83.3100   35.1900   26.2500 N.am      2 ALA2        0.0000 
     38 O         -80.4000   34.1400   24.9500 O.2       2 ALA2        0.0000 
     39 N         -78.9400   32.0200   26.4800 N.am      2 ALA2        0.0000 
     40 N         -78.2100   30.9500   27.2400 N.am      2 ALA2        0.0000 
     41 O         -79.3100   34.1500   23.9200 O.2       2 ALA2        0.0000 
     42 N         -78.5800   33.0900   24.6800 N.am      2 ALA2        0.0000 
     43 N         -77.1200   30.9600   26.2100 N.am      2 ALA2        0.0000 
     44 N         -76.3900   29.9000   26.9800 N.am      2 ALA2        0.0000 
     45 N         -78.2200   34.1600   22.8900 N.am      2 ALA2        0.0000 
     46 N         -84.4000   37.3000   27.2900 N.am      2 ALA2        0.0000 
     47 N         -83.6700   36.2400   28.0500 N.am      2 ALA2        0.0000 
     48 N         -83.3100   37.3100   26.2600 N.am      2 ALA2        0.0000 
     49 N         -82.5800   36.2500   27.0200 N.am      2 ALA2        0.0000 
     50 N         -78.5800   35.2100   24.7000 N.am      2 ALA2        0.0000 
     51 N         -77.8500   34.1400   25.4600 N.am      2 ALA2        0.0000 
     52 N         -77.4900   35.2200   23.6700 N.am      2 ALA2        0.0000 
     53 O         -83.6800   38.3600   28.0700 O.2       2 ALA2        0.0000 
     54 O         -82.5900   38.3700   27.0400 O.2       2 ALA2        0.0000 
     55 N         -77.1300   37.3200   26.2500 N.am      2 ALA2        0.0000 
     56 N         -76.4000   38.3800   27.0200 N.am      2 ALA2        0.0000 
     57 CZ        -82.5800   34.1300   27.0100 C.ar      3 PHE5        0.0000 
     58 CZ        -81.8500   33.0600   27.7800 C.ar      3 PHE5        0.0000 
     59 CZ        -81.1200   32.0000   28.5400 C.ar      3 PHE5        0.0000 
     60 CZ        -80.7600   33.0700   26.7500 C.ar      3 PHE5        0.0000 
     61 CZ        -80.0300   32.0100   27.5100 C.ar      3 PHE5        0.0000 
     62 CZ        -81.1300   35.2100   24.1900 C.ar      3 PHE5        0.0000 
     63 CZ        -80.0400   35.2100   23.1500 C.ar      3 PHE5        0.0000 
     64 CZ        -81.8500   35.1900   27.7900 C.ar      3 PHE5        0.0000 
     65 CZ        -82.2200   37.3200   25.2300 C.ar      3 PHE5        0.0000 
     66 CZ        -81.4900   36.2600   25.9900 C.ar      3 PHE5        0.0000 
     67 CZ        -80.7600   35.1900   26.7600 C.ar      3 PHE5        0.0000 
     68 CZ        -80.0300   34.1300   27.5200 C.ar      3 PHE5        0.0000 
     69 CZ        -79.3000   33.0700   28.2900 C.ar      3 PHE5        0.0000 
     70 CZ        -80.4000   36.2600   24.9600 C.ar      3 PHE5        0.0000 
     71 CZ        -78.9400   34.1400   26.4900 C.ar      3 PHE5        0.0000 
     72 CZ        -79.3100   36.2700   23.9300 C.ar      3 PHE5        0.0000 
     73 CZ        -80.0300   36.2500   27.5300 C.ar      3 PHE5        0.0000 
     74 CZ        -78.9400   36.2600   26.5000 C.ar      3 PHE5        0.0000 
     75 CZ        -78.2100   35.1900   27.2700 C.ar      3 PHE5        0.0000 
     76 CA        -86.2100   29.8800   27.5100 C.3       4 GLY6        0.0000 
     77 CA        -81.8600   34.1500   23.4100 C.3       4 GLY6        0.0000 
     78 CA        -80.7700   34.1600   22.3800 C.3       4 GLY6        0.0000 
     79 CA        -76.0200   28.8500   25.1700 C.3       4 GLY6        0.0000 
     80 CA        -80.3900   30.9400   29.3100 C.3       4 GLY6        0.0000 
     81 CA        -82.2200   35.2000   25.2200 C.3       4 GLY6        0.0000 
     82 CA        -79.3000   30.9400   28.2800 C.3       4 GLY6        0.0000 
     83 CA        -75.3000   29.9000   25.9500 C.3       4 GLY6        0.0000 
     84 CA        -78.2100   33.0700   27.2600 C.3       4 GLY6        0.0000 
     85 CA        -77.4800   32.0100   28.0200 C.3       4 GLY6        0.0000 
     86 CA        -76.3900   32.0200   26.9900 C.3       4 GLY6        0.0000 
     87 CA        -82.9400   37.3000   28.8300 C.3       4 GLY6        0.0000 
     88 CA        -81.8600   37.3100   27.8000 C.3       4 GLY6        0.0000 
     89 CA        -81.5000   38.3800   26.0000 C.3       4 GLY6        0.0000 
     90 CA        -80.7700   37.3100   26.7700 C.3       4 GLY6        0.0000 
     91 CA        -79.6800   37.3200   25.7400 C.3       4 GLY6        0.0000 
     92 CA        -77.4800   34.1300   28.0300 C.3       4 GLY6        0.0000 
     93 CA        -78.5900   37.3300   24.7100 C.3       4 GLY6        0.0000 
     94 CA        -77.8600   36.2700   25.4700 C.3       4 GLY6        0.0000 
     95 CA        -77.1200   35.2000   26.2400 C.3       4 GLY6        0.0000 
     96 CA        -76.7700   36.2700   24.4400 C.3       4 GLY6        0.0000 
     97 CA        -76.4000   36.2600   27.0100 C.3       4 GLY6        0.0000 
     98 CA        -75.6700   37.3200   27.7900 C.3       4 GLY6        0.0000 
     99 DU        -82.2100   28.8300   25.1800 H         5 CUB7        0.0000 
    100 DU        -83.6600   29.8800   28.0200 H         5 CUB7        0.0000 
    101 DU        -82.5700   29.8800   26.9900 H         5 CUB7        0.0000 
    102 DU        -81.4800   29.8900   25.9600 H         5 CUB7        0.0000 
    103 DU        -80.7500   28.8300   26.7200 H         5 CUB7        0.0000 
    104 DU        -79.6600   28.8400   25.6900 H         5 CUB7        0.0000 
    105 DU        -78.5700   28.8400   24.6600 H         5 CUB7        0.0000 
    106 DU        -82.2000   29.8700   29.5600 H         5 CUB7        0.0000 
    107 DU        -82.5700   32.0100   27.0000 H         5 CUB7        0.0000 
    108 DU        -81.8400   30.9400   27.7600 H         5 CUB7        0.0000 
    109 DU        -81.1100   29.8800   28.5300 H         5 CUB7        0.0000 
    110 DU        -80.7500   30.9500   26.7300 H         5 CUB7        0.0000 
    111 DU        -80.0200   29.8900   27.5000 H         5 CUB7        0.0000 
    112 DU        -78.9300   29.8900   26.4700 H         5 CUB7        0.0000 
    113 DU        -81.4900   34.1400   25.9800 H         5 CUB7        0.0000 
    114 DU        -79.6700   33.0800   25.7200 H         5 CUB7        0.0000 
    115 DU        -77.4800   29.8900   28.0100 H         5 CUB7        0.0000 
    116 DU        -79.6700   35.2000   25.7300 H         5 CUB7        0.0000 
@<TRIPOS>BOND
@<TRIPOS>SUBSTRUCTURE
     1 SER1        1 GROUP   
     2 ALA2        9 GROUP   
     3 PHE5       57 GROUP   
     4 GLY6       76 GROUP   
     5 CUB7       99 GROUP   
@<TRIPOS>SET

