#    Name: 5n0u_1_SAH
#    Modification time : Fri May 22 19:14:56 2020

@<TRIPOS>MOLECULE
5n0u_1_SAH
   26    28     1     0     0
SMALL
NO_CHARGES


@<TRIPOS>ATOM
      1 N         -84.7640   36.0590   27.5700 N.4       1 SAH901      0.0000 
      2 CA        -83.3850   36.4770   27.2830 C.3       1 SAH901      0.0000 
      3 CB        -82.8560   35.8520   25.9810 C.3       1 SAH901      0.0000 
      4 CG        -82.8020   34.3360   25.9920 C.3       1 SAH901      0.0000 
      5 SD        -82.0500   33.6660   24.5080 S.3       1 SAH901      0.0000 
      6 C         -83.3200   37.9740   27.1590 C.2       1 SAH901      0.0000 
      7 O         -82.3710   38.5280   26.5870 O.co2     1 SAH901      0.0000 
      8 OXT       -84.2090   38.6850   27.6300 O.co2     1 SAH901      0.0000 
      9 C5'       -80.3300   33.8680   24.8420 C.3       1 SAH901      0.0000 
     10 C4'       -79.7000   34.8560   23.8330 C.3       1 SAH901      0.0000 
     11 O4'       -79.7760   36.1940   24.3820 O.3       1 SAH901      0.0000 
     12 C3'       -78.2120   34.6610   23.5470 C.3       1 SAH901      0.0000 
     13 O3'       -77.9320   33.7820   22.4470 O.3       1 SAH901      0.0000 
     14 C2'       -77.6930   36.0600   23.2730 C.3       1 SAH901      0.0000 
     15 O2'       -77.8780   36.4470   21.8930 O.3       1 SAH901      0.0000 
     16 C1'       -78.5610   36.9090   24.2010 C.3       1 SAH901      0.0000 
     17 N9        -77.8570   37.0270   25.4920 N.pl3     1 SAH901      0.0000 
     18 C8        -78.0620   36.3060   26.6140 C.2       1 SAH901      0.0000 
     19 N7        -77.2200   36.6990   27.6020 N.2       1 SAH901      0.0000 
     20 C5        -76.4520   37.6810   27.0870 C.ar      1 SAH901      0.0000 
     21 C6        -75.3520   38.5160   27.5740 C.ar      1 SAH901      0.0000 
     22 N6        -74.9200   38.3520   28.8450 N.pl3     1 SAH901      0.0000 
     23 N1        -74.8430   39.4360   26.7360 N.ar      1 SAH901      0.0000 
     24 C2        -75.2860   39.5960   25.4640 C.ar      1 SAH901      0.0000 
     25 N3        -76.2770   38.8380   24.9440 N.ar      1 SAH901      0.0000 
     26 C4        -76.8820   37.9030   25.7060 C.ar      1 SAH901      0.0000 
@<TRIPOS>BOND
     1    1    2 1    
     2    2    3 1    
     3    2    6 1    
     4    3    4 1    
     5    4    5 1    
     6    5    9 1    
     7    6    7 ar   
     8    6    8 ar   
     9    9   10 1    
    10   10   11 1    
    11   10   12 1    
    12   11   16 1    
    13   12   13 1    
    14   12   14 1    
    15   14   15 1    
    16   14   16 1    
    17   16   17 1    
    18   17   18 1    
    19   17   26 1    
    20   18   19 2    
    21   19   20 1    
    22   20   21 ar   
    23   20   26 ar   
    24   21   22 1    
    25   21   23 ar   
    26   23   24 ar   
    27   24   25 ar   
    28   25   26 ar   
@<TRIPOS>SUBSTRUCTURE
     1 SAH901      1 GROUP   
@<TRIPOS>SET

