#    Name: 5n0u_1_SAH_CAVITY_N1_4
#    Modification time : Fri May 22 19:14:58 2020

@<TRIPOS>MOLECULE
5n0u_1_SAH_CAVITY_N1_4
   75     0     5     0     0
SMALL
NO_CHARGES


@<TRIPOS>ATOM
      1 OG        -78.2200   36.2800   22.9000 O.3       1 SER1        0.0000 
      2 OG        -78.2200   37.3200   27.2800 O.3       1 SER1        0.0000 
      3 OG        -77.4900   38.3700   28.0600 O.3       1 SER1        0.0000 
      4 O         -82.9400   29.9000   24.4200 O.2       2 ALA2        0.0000 
      5 N         -84.3900   30.9400   27.2500 N.am      2 ALA2        0.0000 
      6 N         -83.3000   30.9500   26.2200 N.am      2 ALA2        0.0000 
      7 N         -82.9400   32.0200   24.4300 N.am      2 ALA2        0.0000 
      8 O         -82.2100   30.9600   25.1900 O.2       2 ALA2        0.0000 
      9 O         -82.5800   33.0900   22.6300 O.2       2 ALA2        0.0000 
     10 O         -80.3900   29.9000   24.9300 O.2       2 ALA2        0.0000 
     11 N         -84.0400   34.1300   25.4700 N.am      2 ALA2        0.0000 
     12 N         -83.3100   33.0700   26.2400 N.am      2 ALA2        0.0000 
     13 O         -82.2200   33.0800   25.2000 O.2       2 ALA2        0.0000 
     14 O         -81.4800   32.0100   25.9700 O.2       2 ALA2        0.0000 
     15 O         -81.1300   33.0900   24.1700 O.2       2 ALA2        0.0000 
     16 O         -80.3900   32.0200   24.9400 O.2       2 ALA2        0.0000 
     17 O         -79.6600   30.9600   25.7000 O.2       2 ALA2        0.0000 
     18 N         -83.3100   35.1900   26.2500 N.am      2 ALA2        0.0000 
     19 O         -80.4000   34.1400   24.9500 O.2       2 ALA2        0.0000 
     20 N         -78.9400   32.0200   26.4800 N.am      2 ALA2        0.0000 
     21 O         -79.3100   34.1500   23.9200 O.2       2 ALA2        0.0000 
     22 N         -78.5800   33.0900   24.6800 N.am      2 ALA2        0.0000 
     23 N         -78.2200   34.1600   22.8900 N.am      2 ALA2        0.0000 
     24 N         -84.4000   37.3000   27.2900 N.am      2 ALA2        0.0000 
     25 N         -83.6700   36.2400   28.0500 N.am      2 ALA2        0.0000 
     26 N         -83.3100   37.3100   26.2600 N.am      2 ALA2        0.0000 
     27 N         -82.5800   36.2500   27.0200 N.am      2 ALA2        0.0000 
     28 N         -78.5800   35.2100   24.7000 N.am      2 ALA2        0.0000 
     29 N         -77.8500   34.1400   25.4600 N.am      2 ALA2        0.0000 
     30 N         -77.4900   35.2200   23.6700 N.am      2 ALA2        0.0000 
     31 O         -83.6800   38.3600   28.0700 O.2       2 ALA2        0.0000 
     32 O         -82.5900   38.3700   27.0400 O.2       2 ALA2        0.0000 
     33 N         -77.1300   37.3200   26.2500 N.am      2 ALA2        0.0000 
     34 N         -76.4000   38.3800   27.0200 N.am      2 ALA2        0.0000 
     35 CZ        -82.5800   34.1300   27.0100 C.ar      3 PHE5        0.0000 
     36 CZ        -81.8500   33.0600   27.7800 C.ar      3 PHE5        0.0000 
     37 CZ        -81.1200   32.0000   28.5400 C.ar      3 PHE5        0.0000 
     38 CZ        -80.7600   33.0700   26.7500 C.ar      3 PHE5        0.0000 
     39 CZ        -80.0300   32.0100   27.5100 C.ar      3 PHE5        0.0000 
     40 CZ        -81.1300   35.2100   24.1900 C.ar      3 PHE5        0.0000 
     41 CZ        -80.0400   35.2100   23.1500 C.ar      3 PHE5        0.0000 
     42 CZ        -81.8500   35.1900   27.7900 C.ar      3 PHE5        0.0000 
     43 CZ        -82.2200   37.3200   25.2300 C.ar      3 PHE5        0.0000 
     44 CZ        -81.4900   36.2600   25.9900 C.ar      3 PHE5        0.0000 
     45 CZ        -80.7600   35.1900   26.7600 C.ar      3 PHE5        0.0000 
     46 CZ        -80.0300   34.1300   27.5200 C.ar      3 PHE5        0.0000 
     47 CZ        -79.3000   33.0700   28.2900 C.ar      3 PHE5        0.0000 
     48 CZ        -80.4000   36.2600   24.9600 C.ar      3 PHE5        0.0000 
     49 CZ        -78.9400   34.1400   26.4900 C.ar      3 PHE5        0.0000 
     50 CZ        -79.3100   36.2700   23.9300 C.ar      3 PHE5        0.0000 
     51 CZ        -80.0300   36.2500   27.5300 C.ar      3 PHE5        0.0000 
     52 CZ        -78.9400   36.2600   26.5000 C.ar      3 PHE5        0.0000 
     53 CZ        -78.2100   35.1900   27.2700 C.ar      3 PHE5        0.0000 
     54 CA        -81.8600   34.1500   23.4100 C.3       4 GLY6        0.0000 
     55 CA        -80.7700   34.1600   22.3800 C.3       4 GLY6        0.0000 
     56 CA        -82.2200   35.2000   25.2200 C.3       4 GLY6        0.0000 
     57 CA        -78.2100   33.0700   27.2600 C.3       4 GLY6        0.0000 
     58 CA        -82.9400   37.3000   28.8300 C.3       4 GLY6        0.0000 
     59 CA        -81.8600   37.3100   27.8000 C.3       4 GLY6        0.0000 
     60 CA        -81.5000   38.3800   26.0000 C.3       4 GLY6        0.0000 
     61 CA        -80.7700   37.3100   26.7700 C.3       4 GLY6        0.0000 
     62 CA        -79.6800   37.3200   25.7400 C.3       4 GLY6        0.0000 
     63 CA        -77.4800   34.1300   28.0300 C.3       4 GLY6        0.0000 
     64 CA        -78.5900   37.3300   24.7100 C.3       4 GLY6        0.0000 
     65 CA        -77.8600   36.2700   25.4700 C.3       4 GLY6        0.0000 
     66 CA        -77.1200   35.2000   26.2400 C.3       4 GLY6        0.0000 
     67 CA        -76.7700   36.2700   24.4400 C.3       4 GLY6        0.0000 
     68 CA        -76.4000   36.2600   27.0100 C.3       4 GLY6        0.0000 
     69 CA        -75.6700   37.3200   27.7900 C.3       4 GLY6        0.0000 
     70 DU        -82.5700   32.0100   27.0000 H         5 CUB7        0.0000 
     71 DU        -81.8400   30.9400   27.7600 H         5 CUB7        0.0000 
     72 DU        -80.7500   30.9500   26.7300 H         5 CUB7        0.0000 
     73 DU        -81.4900   34.1400   25.9800 H         5 CUB7        0.0000 
     74 DU        -79.6700   33.0800   25.7200 H         5 CUB7        0.0000 
     75 DU        -79.6700   35.2000   25.7300 H         5 CUB7        0.0000 
@<TRIPOS>BOND
@<TRIPOS>SUBSTRUCTURE
     1 SER1        1 GROUP   
     2 ALA2        4 GROUP   
     3 PHE5       35 GROUP   
     4 GLY6       54 GROUP   
     5 CUB7       70 GROUP   
@<TRIPOS>SET

