#    Name: 6rkw_1_ANP
#    Modification time : Fri May 22 19:28:54 2020

@<TRIPOS>MOLECULE
6rkw_1_ANP
   31    33     1     0     1
SMALL
NO_CHARGES


@<TRIPOS>ATOM
      1 PG        161.0680  179.1770  230.0170 P.3       1 ANP901      0.0000 
      2 O1G       161.5560  179.7690  228.7330 O.co2     1 ANP901      0.0000 
      3 O2G       159.5690  178.7180  229.8390 O.co2     1 ANP901      0.0000 
      4 O3G       161.9630  177.9290  230.3920 O.co2     1 ANP901      0.0000 
      5 PB        159.6400  180.8910  231.6430 P.3       1 ANP901      0.0000 
      6 O1B       159.1970  181.8680  230.6050 O.co2     1 ANP901      0.0000 
      7 O2B       158.6400  179.6980  231.6890 O.co2     1 ANP901      0.0000 
      8 N3B       161.1700  180.3210  231.2610 N.3       1 ANP901      0.0000 
      9 PA        160.9650  182.3850  233.4880 P.3       1 ANP901      0.0000 
     10 O1A       161.9820  181.4780  234.0690 O.co2     1 ANP901      0.0000 
     11 O2A       161.4470  183.1720  232.2660 O.co2     1 ANP901      0.0000 
     12 O3A       159.6720  181.5850  233.0370 O.3       1 ANP901      0.0000 
     13 O5'       160.4540  183.3450  234.6360 O.3       1 ANP901      0.0000 
     14 C5'       160.0680  182.8290  235.9260 C.3       1 ANP901      0.0000 
     15 C4'       158.9450  183.6790  236.4620 C.3       1 ANP901      0.0000 
     16 O4'       159.4440  184.9960  236.7760 O.3       1 ANP901      0.0000 
     17 C3'       157.7870  183.9070  235.4980 C.3       1 ANP901      0.0000 
     18 O3'       156.8260  182.8620  235.5930 O.3       1 ANP901      0.0000 
     19 C2'       157.2240  185.2470  235.9710 C.3       1 ANP901      0.0000 
     20 O2'       156.3260  185.0870  237.0630 O.3       1 ANP901      0.0000 
     21 C1'       158.4920  185.9820  236.4180 C.3       1 ANP901      0.0000 
     22 N9        159.0780  186.8340  235.3890 N.pl3     1 ANP901      0.0000 
     23 C8        160.2490  186.6210  234.7090 C.2       1 ANP901      0.0000 
     24 N7        160.5360  187.5530  233.8340 N.2       1 ANP901      0.0000 
     25 C5        159.4770  188.4420  233.9410 C.ar      1 ANP901      0.0000 
     26 C6        159.1800  189.6490  233.2790 C.ar      1 ANP901      0.0000 
     27 N6        159.9560  190.1900  232.3370 N.pl3     1 ANP901      0.0000 
     28 N1        158.0400  190.2890  233.6230 N.ar      1 ANP901      0.0000 
     29 C2        157.2590  189.7520  234.5650 C.ar      1 ANP901      0.0000 
     30 N3        157.4360  188.6230  235.2570 N.ar      1 ANP901      0.0000 
     31 C4        158.5710  188.0100  234.8950 C.ar      1 ANP901      0.0000 
@<TRIPOS>BOND
     1    1    2 ar   
     2    1    3 ar   
     3    1    4 ar   
     4    1    8 1    
     5    5    6 ar   
     6    5    7 ar   
     7    5    8 1    
     8    5   12 1    
     9    9   10 ar   
    10    9   11 ar   
    11    9   12 1    
    12    9   13 1    
    13   13   14 1    
    14   14   15 1    
    15   15   16 1    
    16   15   17 1    
    17   16   21 1    
    18   17   18 1    
    19   17   19 1    
    20   19   20 1    
    21   19   21 1    
    22   21   22 1    
    23   22   23 1    
    24   22   31 1    
    25   23   24 2    
    26   24   25 1    
    27   25   26 ar   
    28   25   31 ar   
    29   26   27 1    
    30   26   28 ar   
    31   28   29 ar   
    32   29   30 ar   
    33   30   31 ar   
@<TRIPOS>SUBSTRUCTURE
     1 ANP901      1 GROUP   
@<TRIPOS>SET
ATOM$ORANGE STATIC     ATOMS   COLORGROUP SYSTEM 
20 14 14 15 15 17 17 19 19 21 21 23 23 25 25 26 26 29 \
29 31 31 

