#    Name: 6rkw_2_ANP
#    Modification time : Fri May 22 19:29:05 2020

@<TRIPOS>MOLECULE
6rkw_2_ANP
   31    33     1     0     1
SMALL
NO_CHARGES


@<TRIPOS>ATOM
      1 PG        170.6130  161.0860  233.2710 P.3       1 ANP901      0.0000 
      2 O1G       170.0510  160.7600  231.9240 O.co2     1 ANP901      0.0000 
      3 O2G       172.0850  161.6270  233.1120 O.co2     1 ANP901      0.0000 
      4 O3G       169.7200  162.1960  233.9580 O.co2     1 ANP901      0.0000 
      5 PB        172.1200  159.4630  234.9330 P.3       1 ANP901      0.0000 
      6 O1B       172.9530  158.5920  234.0520 O.co2     1 ANP901      0.0000 
      7 O2B       172.8280  160.8360  235.1240 O.co2     1 ANP901      0.0000 
      8 N3B       170.6110  159.6960  234.2380 N.3       1 ANP901      0.0000 
      9 PA        170.5030  158.7160  236.9700 P.3       1 ANP901      0.0000 
     10 O1A       170.2040  159.9650  237.7080 O.co2     1 ANP901      0.0000 
     11 O2A       169.5170  158.3970  235.8420 O.co2     1 ANP901      0.0000 
     12 O3A       171.9450  158.7730  236.3170 O.3       1 ANP901      0.0000 
     13 O5'       170.5770  157.5380  238.0210 O.3       1 ANP901      0.0000 
     14 C5'       170.7010  157.8030  239.4310 C.3       1 ANP901      0.0000 
     15 C4'       171.8430  156.9820  239.9730 C.3       1 ANP901      0.0000 
     16 O4'       171.3950  155.6310  240.2040 O.3       1 ANP901      0.0000 
     17 C3'       173.0410  156.8500  239.0420 C.3       1 ANP901      0.0000 
     18 O3'       173.9390  157.9420  239.2060 O.3       1 ANP901      0.0000 
     19 C2'       173.6630  155.5270  239.4920 C.3       1 ANP901      0.0000 
     20 O2'       174.5360  155.7020  240.6020 O.3       1 ANP901      0.0000 
     21 C1'       172.4290  154.7120  239.8980 C.3       1 ANP901      0.0000 
     22 N9        171.9480  153.8070  238.8600 N.pl3     1 ANP901      0.0000 
     23 C8        171.1620  154.1240  237.7830 C.2       1 ANP901      0.0000 
     24 N7        170.8790  153.1050  237.0070 N.2       1 ANP901      0.0000 
     25 C5        171.5270  152.0400  237.6180 C.ar      1 ANP901      0.0000 
     26 C6        171.6200  150.6740  237.2890 C.ar      1 ANP901      0.0000 
     27 N6        171.0370  150.1250  236.2210 N.pl3     1 ANP901      0.0000 
     28 N1        172.3450  149.8800  238.1100 N.ar      1 ANP901      0.0000 
     29 C2        172.9300  150.4250  239.1810 C.ar      1 ANP901      0.0000 
     30 N3        172.9120  151.6960  239.5900 N.ar      1 ANP901      0.0000 
     31 C4        172.1880  152.4580  238.7590 C.ar      1 ANP901      0.0000 
@<TRIPOS>BOND
     1    1    2 ar   
     2    1    3 ar   
     3    1    4 ar   
     4    1    8 1    
     5    5    6 ar   
     6    5    7 ar   
     7    5    8 1    
     8    5   12 1    
     9    9   10 ar   
    10    9   11 ar   
    11    9   12 1    
    12    9   13 1    
    13   13   14 1    
    14   14   15 1    
    15   15   16 1    
    16   15   17 1    
    17   16   21 1    
    18   17   18 1    
    19   17   19 1    
    20   19   20 1    
    21   19   21 1    
    22   21   22 1    
    23   22   23 1    
    24   22   31 1    
    25   23   24 2    
    26   24   25 1    
    27   25   26 ar   
    28   25   31 ar   
    29   26   27 1    
    30   26   28 ar   
    31   28   29 ar   
    32   29   30 ar   
    33   30   31 ar   
@<TRIPOS>SUBSTRUCTURE
     1 ANP901      1 GROUP   
@<TRIPOS>SET
ATOM$ORANGE STATIC     ATOMS   COLORGROUP SYSTEM 
20 14 14 15 15 17 17 19 19 21 21 23 23 25 25 26 26 29 \
29 31 31 

