#    Name: 6uko_1_ADP_CAVITY_N1_6
#    Modification time : Fri May 22 19:25:45 2020

@<TRIPOS>MOLECULE
6uko_1_ADP_CAVITY_N1_6
   56     0     6     0     0
SMALL
NO_CHARGES


@<TRIPOS>ATOM
      1 OG        -50.5300  -58.6900   16.0100 O.3       1 SER1        0.0000 
      2 OG        -51.6300  -58.5500   17.0100 O.3       1 SER1        0.0000 
      3 OG        -53.8400  -58.2700   19.0300 O.3       1 SER1        0.0000 
      4 OG        -51.9100  -57.4200   18.7900 O.3       1 SER1        0.0000 
      5 OG        -52.4200  -58.3900   20.6000 O.3       1 SER1        0.0000 
      6 OG        -53.5300  -58.2500   21.6000 O.3       1 SER1        0.0000 
      7 OG        -51.6000  -57.4000   21.3600 O.3       1 SER1        0.0000 
      8 N         -58.2300  -62.1100   16.9700 N.am      2 ALA2        0.0000 
      9 N         -57.4100  -61.1200   17.7400 N.am      2 ALA2        0.0000 
     10 N         -54.6000  -62.5100   16.5300 N.am      2 ALA2        0.0000 
     11 O         -56.8100  -62.2300   18.5400 O.2       2 ALA2        0.0000 
     12 N         -54.0100  -63.6200   17.3400 N.am      2 ALA2        0.0000 
     13 N         -55.9900  -61.2400   19.3100 N.am      2 ALA2        0.0000 
     14 N         -55.1700  -60.2400   20.0700 N.am      2 ALA2        0.0000 
     15 O         -55.6800  -61.2200   21.8900 O.2       2 ALA2        0.0000 
     16 O         -54.8600  -60.2200   22.6500 O.2       2 ALA2        0.0000 
     17 N         -49.7100  -57.6900   16.7700 N.am      2 ALA2        0.0000 
     18 N         -50.8100  -57.5500   17.7800 N.am      2 ALA2        0.0000 
     19 OD1       -56.3000  -61.2600   16.7300 O.co2     3 ASP3        0.0000 
     20 OD1       -54.9800  -59.2900   15.6800 O.co2     3 ASP3        0.0000 
     21 OD1       -54.3800  -60.4000   16.4900 O.co2     3 ASP3        0.0000 
     22 OD1       -55.4800  -60.2600   17.5000 O.co2     3 ASP3        0.0000 
     23 OD1       -54.1500  -58.2900   16.4500 O.co2     3 ASP3        0.0000 
     24 OD1       -54.6600  -59.2700   18.2600 O.co2     3 ASP3        0.0000 
     25 NZ        -47.1800  -57.9500   17.3400 N.4       4 LYS4        0.0000 
     26 NZ        -46.5900  -59.0600   18.1500 N.4       4 LYS4        0.0000 
     27 CA        -56.5300  -63.3700   16.7700 C.3       5 GLY6        0.0000 
     28 CA        -56.9000  -60.1400   15.9200 C.3       5 GLY6        0.0000 
     29 CA        -55.7100  -62.3700   17.5400 C.3       5 GLY6        0.0000 
     30 CA        -53.7800  -61.5100   17.3000 C.3       5 GLY6        0.0000 
     31 CA        -54.8900  -61.3800   18.3000 C.3       5 GLY6        0.0000 
     32 CA        -53.1900  -62.6300   18.1100 C.3       5 GLY6        0.0000 
     33 CA        -54.2900  -62.4900   19.1100 C.3       5 GLY6        0.0000 
     34 CA        -52.4500  -59.5400   16.2500 C.3       5 GLY6        0.0000 
     35 CA        -53.5600  -59.4100   17.2600 C.3       5 GLY6        0.0000 
     36 CA        -54.0700  -60.3800   19.0700 C.3       5 GLY6        0.0000 
     37 CA        -53.4700  -61.4900   19.8800 C.3       5 GLY6        0.0000 
     38 CA        -54.5700  -61.3600   20.8800 C.3       5 GLY6        0.0000 
     39 CA        -53.3300  -57.3000   17.2100 C.3       5 GLY6        0.0000 
     40 CA        -52.7400  -58.4100   18.0200 C.3       5 GLY6        0.0000 
     41 CA        -49.9300  -59.8000   16.8200 C.3       5 GLY6        0.0000 
     42 CA        -53.2400  -59.3900   19.8300 C.3       5 GLY6        0.0000 
     43 CA        -52.6500  -60.5000   20.6400 C.3       5 GLY6        0.0000 
     44 CA        -53.7500  -60.3600   21.6500 C.3       5 GLY6        0.0000 
     45 CA        -53.1600  -61.4700   22.4600 C.3       5 GLY6        0.0000 
     46 CA        -49.1100  -58.8100   17.5800 C.3       5 GLY6        0.0000 
     47 CA        -50.2100  -58.6700   18.5900 C.3       5 GLY6        0.0000 
     48 CA        -51.3200  -58.5300   19.5900 C.3       5 GLY6        0.0000 
     49 CA        -48.5100  -59.9200   18.3900 C.3       5 GLY6        0.0000 
     50 CA        -51.8300  -59.5000   21.4100 C.3       5 GLY6        0.0000 
     51 CA        -48.2900  -57.8100   18.3500 C.3       5 GLY6        0.0000 
     52 CA        -47.6900  -58.9300   19.1600 C.3       5 GLY6        0.0000 
     53 CA        -51.0100  -58.5100   22.1700 C.3       5 GLY6        0.0000 
     54 DU        -55.2000  -61.4000   15.7300 H         6 CUB7        0.0000 
     55 DU        -54.3500  -59.2500   20.8400 H         6 CUB7        0.0000 
     56 DU        -52.9300  -59.3700   22.4100 H         6 CUB7        0.0000 
@<TRIPOS>BOND
@<TRIPOS>SUBSTRUCTURE
     1 SER1        1 GROUP   
     2 ALA2        8 GROUP   
     3 ASP3       19 GROUP   
     4 LYS4       25 GROUP   
     5 GLY6       27 GROUP   
     6 CUB7       54 GROUP   
@<TRIPOS>SET

