#    Name: 6uko_1_ADP_CAVITY_N1_4
#    Modification time : Fri May 22 19:25:45 2020

@<TRIPOS>MOLECULE
6uko_1_ADP_CAVITY_N1_4
   28     0     5     0     0
SMALL
NO_CHARGES


@<TRIPOS>ATOM
      1 OG        -53.8400  -58.2700   19.0300 O.3       1 SER1        0.0000 
      2 OG        -51.9100  -57.4200   18.7900 O.3       1 SER1        0.0000 
      3 OG        -52.4200  -58.3900   20.6000 O.3       1 SER1        0.0000 
      4 OG        -53.5300  -58.2500   21.6000 O.3       1 SER1        0.0000 
      5 OG        -51.6000  -57.4000   21.3600 O.3       1 SER1        0.0000 
      6 O         -56.8100  -62.2300   18.5400 O.2       2 ALA2        0.0000 
      7 N         -55.9900  -61.2400   19.3100 N.am      2 ALA2        0.0000 
      8 N         -55.1700  -60.2400   20.0700 N.am      2 ALA2        0.0000 
      9 O         -55.6800  -61.2200   21.8900 O.2       2 ALA2        0.0000 
     10 O         -54.8600  -60.2200   22.6500 O.2       2 ALA2        0.0000 
     11 N         -50.8100  -57.5500   17.7800 N.am      2 ALA2        0.0000 
     12 OD1       -55.4800  -60.2600   17.5000 O.co2     3 ASP3        0.0000 
     13 OD1       -54.6600  -59.2700   18.2600 O.co2     3 ASP3        0.0000 
     14 CA        -54.8900  -61.3800   18.3000 C.3       4 GLY6        0.0000 
     15 CA        -54.2900  -62.4900   19.1100 C.3       4 GLY6        0.0000 
     16 CA        -54.0700  -60.3800   19.0700 C.3       4 GLY6        0.0000 
     17 CA        -53.4700  -61.4900   19.8800 C.3       4 GLY6        0.0000 
     18 CA        -54.5700  -61.3600   20.8800 C.3       4 GLY6        0.0000 
     19 CA        -53.2400  -59.3900   19.8300 C.3       4 GLY6        0.0000 
     20 CA        -52.6500  -60.5000   20.6400 C.3       4 GLY6        0.0000 
     21 CA        -53.7500  -60.3600   21.6500 C.3       4 GLY6        0.0000 
     22 CA        -53.1600  -61.4700   22.4600 C.3       4 GLY6        0.0000 
     23 CA        -50.2100  -58.6700   18.5900 C.3       4 GLY6        0.0000 
     24 CA        -51.3200  -58.5300   19.5900 C.3       4 GLY6        0.0000 
     25 CA        -51.8300  -59.5000   21.4100 C.3       4 GLY6        0.0000 
     26 CA        -51.0100  -58.5100   22.1700 C.3       4 GLY6        0.0000 
     27 DU        -54.3500  -59.2500   20.8400 H         5 CUB7        0.0000 
     28 DU        -52.9300  -59.3700   22.4100 H         5 CUB7        0.0000 
@<TRIPOS>BOND
@<TRIPOS>SUBSTRUCTURE
     1 SER1        1 GROUP   
     2 ALA2        6 GROUP   
     3 ASP3       12 GROUP   
     4 GLY6       14 GROUP   
     5 CUB7       27 GROUP   
@<TRIPOS>SET

