#    Name: 6uko_6_ADP_CAVITY_N1_6
#    Modification time : Fri May 22 19:26:13 2020

@<TRIPOS>MOLECULE
6uko_6_ADP_CAVITY_N1_6
   52     0     6     0     0
SMALL
NO_CHARGES


@<TRIPOS>ATOM
      1 OG         -4.4900  -50.6100  -26.2900 O.3       1 SER1        0.0000 
      2 OG         -3.9000  -51.7200  -25.4800 O.3       1 SER1        0.0000 
      3 OG         -5.0000  -51.5800  -24.4700 O.3       1 SER1        0.0000 
      4 OG         -3.3000  -52.8400  -24.6700 O.3       1 SER1        0.0000 
      5 OG         -3.6700  -49.6100  -25.5200 O.3       1 SER1        0.0000 
      6 OG         -2.2500  -49.7300  -23.9500 O.3       1 SER1        0.0000 
      7 N          -2.7000  -53.9500  -23.8600 N.am      2 ALA2        0.0000 
      8 N          -7.6700  -45.9900  -25.9400 N.am      2 ALA2        0.0000 
      9 N          -6.9800  -49.2000  -22.5100 N.am      2 ALA2        0.0000 
     10 N          -2.4800  -51.8400  -23.9100 N.am      2 ALA2        0.0000 
     11 N          -5.1500  -46.2500  -25.3700 N.am      2 ALA2        0.0000 
     12 O          -3.7300  -46.3700  -23.8000 O.2       2 ALA2        0.0000 
     13 OD1        -6.7900  -48.2400  -26.9000 O.co2     3 ASP3        0.0000 
     14 OD1        -5.0900  -49.4900  -27.1000 O.co2     3 ASP3        0.0000 
     15 OD1        -6.1900  -49.3600  -26.0900 O.co2     3 ASP3        0.0000 
     16 OD1        -5.3700  -48.3600  -25.3300 O.co2     3 ASP3        0.0000 
     17 OD1        -4.7800  -49.4700  -24.5200 O.co2     3 ASP3        0.0000 
     18 OD1        -4.5500  -47.3700  -24.5600 O.co2     3 ASP3        0.0000 
     19 OD1        -7.2700  -48.0600  -20.7400 O.co2     3 ASP3        0.0000 
     20 NZ         -4.5200  -46.2100  -20.2100 N.4       4 LYS4        0.0000 
     21 CA         -7.3900  -47.1300  -27.7100 C.3       5 GLY6        0.0000 
     22 CA         -4.4000  -52.7000  -23.6600 C.3       5 GLY6        0.0000 
     23 CA         -3.8100  -53.8100  -22.8600 C.3       5 GLY6        0.0000 
     24 CA         -7.0700  -47.1100  -25.1300 C.3       5 GLY6        0.0000 
     25 CA         -8.1800  -46.9700  -24.1200 C.3       5 GLY6        0.0000 
     26 CA         -6.4800  -48.2200  -24.3200 C.3       5 GLY6        0.0000 
     27 CA         -7.5800  -48.0800  -23.3100 C.3       5 GLY6        0.0000 
     28 CA         -5.8800  -49.3400  -23.5100 C.3       5 GLY6        0.0000 
     29 CA         -3.0700  -50.7300  -24.7100 C.3       5 GLY6        0.0000 
     30 CA         -4.1800  -50.5900  -23.7100 C.3       5 GLY6        0.0000 
     31 CA         -1.8800  -52.9500  -23.1000 C.3       5 GLY6        0.0000 
     32 CA         -1.2900  -54.0700  -22.2900 C.3       5 GLY6        0.0000 
     33 CA         -2.3900  -53.9300  -21.2800 C.3       5 GLY6        0.0000 
     34 CA         -6.2500  -46.1100  -24.3600 C.3       5 GLY6        0.0000 
     35 CA         -5.6500  -47.2300  -23.5500 C.3       5 GLY6        0.0000 
     36 CA         -5.0600  -48.3400  -22.7500 C.3       5 GLY6        0.0000 
     37 CA         -6.1600  -48.2000  -21.7400 C.3       5 GLY6        0.0000 
     38 CA         -5.5700  -49.3200  -20.9300 C.3       5 GLY6        0.0000 
     39 CA         -1.6600  -50.8500  -23.1400 C.3       5 GLY6        0.0000 
     40 CA         -1.0600  -51.9600  -22.3300 C.3       5 GLY6        0.0000 
     41 CA         -4.8300  -46.2300  -22.7900 C.3       5 GLY6        0.0000 
     42 CA         -4.2400  -47.3500  -21.9800 C.3       5 GLY6        0.0000 
     43 CA         -5.3400  -47.2100  -20.9800 C.3       5 GLY6        0.0000 
     44 CA         -2.5400  -48.6000  -22.1800 C.3       5 GLY6        0.0000 
     45 CA         -3.6400  -48.4600  -21.1700 C.3       5 GLY6        0.0000 
     46 CA         -4.7400  -48.3200  -20.1700 C.3       5 GLY6        0.0000 
     47 CA         -4.0100  -45.2400  -22.0200 C.3       5 GLY6        0.0000 
     48 DU         -7.8900  -48.1000  -25.8900 H         6 CUB7        0.0000 
     49 DU         -7.3000  -49.2200  -25.0800 H         6 CUB7        0.0000 
     50 DU         -5.6000  -50.4700  -25.2800 H         6 CUB7        0.0000 
     51 DU         -3.9500  -48.4800  -23.7500 H         6 CUB7        0.0000 
     52 DU         -3.1300  -47.4800  -22.9900 H         6 CUB7        0.0000 
@<TRIPOS>BOND
@<TRIPOS>SUBSTRUCTURE
     1 SER1        1 GROUP   
     2 ALA2        7 GROUP   
     3 ASP3       13 GROUP   
     4 LYS4       20 GROUP   
     5 GLY6       21 GROUP   
     6 CUB7       48 GROUP   
@<TRIPOS>SET

