#    Name: 6uko_3_ADP_CAVITY_N1_4
#    Modification time : Fri May 22 19:25:59 2020

@<TRIPOS>MOLECULE
6uko_3_ADP_CAVITY_N1_4
   67     0     5     0     0
SMALL
NO_CHARGES


@<TRIPOS>ATOM
      1 OG        -38.9300 -127.3800    4.6600 O.3       1 SER1        0.0000 
      2 OG        -37.0000 -126.5200    4.4200 O.3       1 SER1        0.0000 
      3 OG        -38.1100 -126.3800    5.4200 O.3       1 SER1        0.0000 
      4 OG        -36.2700 -123.4400    2.5600 O.3       1 SER1        0.0000 
      5 OG        -35.6700 -124.5500    3.3700 O.3       1 SER1        0.0000 
      6 OG        -35.0800 -125.6600    4.1800 O.3       1 SER1        0.0000 
      7 OG        -36.1800 -125.5300    5.1800 O.3       1 SER1        0.0000 
      8 OG        -37.1500 -121.1900    3.5200 O.3       1 SER1        0.0000 
      9 OG        -35.4500 -122.4400    3.3300 O.3       1 SER1        0.0000 
     10 OG        -34.8500 -123.5600    4.1300 O.3       1 SER1        0.0000 
     11 OG        -34.2600 -124.6700    4.9400 O.3       1 SER1        0.0000 
     12 OG        -35.3600 -124.5300    5.9500 O.3       1 SER1        0.0000 
     13 OG        -36.4700 -124.3900    6.9500 O.3       1 SER1        0.0000 
     14 OG        -35.7300 -121.3100    5.1000 O.3       1 SER1        0.0000 
     15 N         -39.4700 -129.5100    2.1200 N.am      2 ALA2        0.0000 
     16 O         -40.5700 -129.3700    3.1300 O.2       2 ALA2        0.0000 
     17 N         -41.0800 -130.3400    4.9400 N.am      2 ALA2        0.0000 
     18 N         -38.6500 -128.5100    2.8900 N.am      2 ALA2        0.0000 
     19 N         -37.8300 -127.5200    3.6500 N.am      2 ALA2        0.0000 
     20 N         -40.0300 -127.2400    5.6600 N.am      2 ALA2        0.0000 
     21 N         -37.2300 -128.6300    4.4600 N.am      2 ALA2        0.0000 
     22 N         -35.4800 -123.5900   -1.0200 N.am      2 ALA2        0.0000 
     23 O         -36.5000 -125.5500    2.6000 O.2       2 ALA2        0.0000 
     24 O         -35.9000 -126.6600    3.4100 O.2       2 ALA2        0.0000 
     25 O         -34.2000 -127.9100    3.2200 O.2       2 ALA2        0.0000 
     26 N         -37.5100 -127.5000    6.2300 N.am      2 ALA2        0.0000 
     27 O         -33.4700 -124.8300    1.3600 O.2       2 ALA2        0.0000 
     28 O         -34.5700 -124.6900    2.3600 O.2       2 ALA2        0.0000 
     29 O         -32.8700 -125.9400    2.1700 O.2       2 ALA2        0.0000 
     30 O         -33.9700 -125.8000    3.1700 O.2       2 ALA2        0.0000 
     31 O         -33.3800 -126.9200    3.9800 O.2       2 ALA2        0.0000 
     32 N         -35.5900 -126.6400    5.9900 N.am      2 ALA2        0.0000 
     33 N         -36.6900 -126.5000    7.0000 N.am      2 ALA2        0.0000 
     34 OD1       -38.4200 -126.4000    2.8400 O.co2     3 ASP3        0.0000 
     35 OD1       -35.9900 -124.5700    0.7900 O.co2     3 ASP3        0.0000 
     36 OD1       -35.7600 -122.4600    0.7500 O.co2     3 ASP3        0.0000 
     37 OD1       -36.8700 -122.3200    1.7500 O.co2     3 ASP3        0.0000 
     38 OD1       -35.1700 -123.5800    1.5500 O.co2     3 ASP3        0.0000 
     39 CA        -39.9800 -130.4800    3.9400 C.3       4 GLY6        0.0000 
     40 CA        -40.3500 -127.2600    3.0800 C.3       4 GLY6        0.0000 
     41 CA        -40.8600 -128.2300    4.9000 C.3       4 GLY6        0.0000 
     42 CA        -38.0500 -129.6200    3.7000 C.3       4 GLY6        0.0000 
     43 CA        -39.1600 -129.4900    4.7000 C.3       4 GLY6        0.0000 
     44 CA        -40.2600 -129.3500    5.7100 C.3       4 GLY6        0.0000 
     45 CA        -39.5300 -126.2600    3.8500 C.3       4 GLY6        0.0000 
     46 CA        -36.1300 -128.7700    3.4600 C.3       4 GLY6        0.0000 
     47 CA        -38.3300 -128.4900    5.4700 C.3       4 GLY6        0.0000 
     48 CA        -35.3000 -127.7700    4.2200 C.3       4 GLY6        0.0000 
     49 CA        -36.4100 -127.6300    5.2300 C.3       4 GLY6        0.0000 
     50 CA        -34.6600 -122.6000   -0.2600 C.3       4 GLY6        0.0000 
     51 CA        -34.4800 -126.7800    4.9900 C.3       4 GLY6        0.0000 
     52 CA        -32.7300 -121.7400   -0.5000 C.3       4 GLY6        0.0000 
     53 CA        -33.8400 -121.6000    0.5100 C.3       4 GLY6        0.0000 
     54 CA        -34.9400 -121.4700    1.5100 C.3       4 GLY6        0.0000 
     55 CA        -36.0500 -121.3300    2.5200 C.3       4 GLY6        0.0000 
     56 CA        -33.2400 -122.7200    1.3100 C.3       4 GLY6        0.0000 
     57 CA        -34.7700 -125.6400    6.7600 C.3       4 GLY6        0.0000 
     58 CA        -36.3300 -120.1900    4.2900 C.3       4 GLY6        0.0000 
     59 CA        -32.4200 -121.7200    2.0800 C.3       4 GLY6        0.0000 
     60 CA        -33.5200 -121.5900    3.0800 C.3       4 GLY6        0.0000 
     61 CA        -32.9300 -122.7000    3.8900 C.3       4 GLY6        0.0000 
     62 DU        -39.7500 -128.3700    3.8900 H         5 CUB7        0.0000 
     63 DU        -34.3500 -122.5800    2.3200 H         5 CUB7        0.0000 
     64 DU        -32.6400 -123.8300    2.1200 H         5 CUB7        0.0000 
     65 DU        -33.7500 -123.6900    3.1300 H         5 CUB7        0.0000 
     66 DU        -33.1500 -124.8100    3.9400 H         5 CUB7        0.0000 
     67 DU        -34.0300 -122.5600    4.9000 H         5 CUB7        0.0000 
@<TRIPOS>BOND
@<TRIPOS>SUBSTRUCTURE
     1 SER1        1 GROUP   
     2 ALA2       15 GROUP   
     3 ASP3       34 GROUP   
     4 GLY6       39 GROUP   
     5 CUB7       62 GROUP   
@<TRIPOS>SET

