#    Name: 6uko_4_ADP
#    Modification time : Fri May 22 19:26:05 2020

@<TRIPOS>MOLECULE
6uko_4_ADP
   39    41     1     0     1
SMALL
NO_CHARGES


@<TRIPOS>ATOM
      1 PB         -5.8460 -120.0130  -14.7920 P.3       1 ADP1800     0.0000 
      2 O1B        -7.0960 -119.1720  -14.7570 O.co2     1 ADP1800     0.0000 
      3 O2B        -6.1090 -121.5030  -14.7450 O.co2     1 ADP1800     0.0000 
      4 O3B        -4.7650 -119.5280  -13.8530 O.co2     1 ADP1800     0.0000 
      5 PA         -5.6490 -118.4160  -17.0940 P.3       1 ADP1800     0.0000 
      6 O1A        -7.1470 -118.4130  -17.3030 O.co2     1 ADP1800     0.0000 
      7 O2A        -5.0130 -117.2450  -16.3850 O.co2     1 ADP1800     0.0000 
      8 O3A        -5.2710 -119.7570  -16.2780 O.3       1 ADP1800     0.0000 
      9 O5'        -4.9000 -118.6170  -18.5130 O.3       1 ADP1800     0.0000 
     10 C5'        -4.3120 -117.4990  -19.1860 C.3       1 ADP1800     0.0000 
     11 C4'        -3.9140 -117.8280  -20.6320 C.3       1 ADP1800     0.0000 
     12 O4'        -3.5810 -119.2120  -20.7740 O.3       1 ADP1800     0.0000 
     13 C3'        -4.9860 -117.5190  -21.6750 C.3       1 ADP1800     0.0000 
     14 O3'        -4.4330 -116.6350  -22.6590 O.3       1 ADP1800     0.0000 
     15 C2'        -5.3770 -118.8590  -22.2830 C.3       1 ADP1800     0.0000 
     16 O2'        -5.6280 -118.8250  -23.6960 O.3       1 ADP1800     0.0000 
     17 C1'        -4.2200 -119.7820  -21.9210 C.3       1 ADP1800     0.0000 
     18 N9         -4.6910 -121.1430  -21.5810 N.pl3     1 ADP1800     0.0000 
     19 C8         -4.7280 -121.6470  -20.3330 C.2       1 ADP1800     0.0000 
     20 N7         -5.1950 -122.9150  -20.3520 N.2       1 ADP1800     0.0000 
     21 C5         -5.4720 -123.2350  -21.6230 C.ar      1 ADP1800     0.0000 
     22 C6         -5.9900 -124.4310  -22.3100 C.ar      1 ADP1800     0.0000 
     23 N6         -6.3070 -125.5150  -21.5710 N.pl3     1 ADP1800     0.0000 
     24 N1         -6.1370 -124.3890  -23.6550 N.ar      1 ADP1800     0.0000 
     25 C2         -5.8000 -123.2810  -24.3530 C.ar      1 ADP1800     0.0000 
     26 N3         -5.3200 -122.1570  -23.7810 N.ar      1 ADP1800     0.0000 
     27 C4         -5.1310 -122.0700  -22.4410 C.ar      1 ADP1800     0.0000 
     28 H5'1       -3.4250 -117.1770  -18.6370 H         1 ADP1800     0.0000 
     29 H5'2       -5.0240 -116.6710  -19.1910 H         1 ADP1800     0.0000 
     30 H4'        -3.0480 -117.1800  -20.8230 H         1 ADP1800     0.0000 
     31 H3'        -5.8680 -117.0200  -21.2500 H         1 ADP1800     0.0000 
     32 HO3'       -5.1340 -116.3350  -23.2530 H         1 ADP1800     0.0000 
     33 H2'        -6.3450 -119.2010  -21.8900 H         1 ADP1800     0.0000 
     34 HO2'       -4.8690 -118.4330  -24.1490 H         1 ADP1800     0.0000 
     35 H1'        -3.5480 -119.8640  -22.7860 H         1 ADP1800     0.0000 
     36 H8         -4.4260 -121.1120  -19.4410 H         1 ADP1800     0.0000 
     37 HN61       -6.1840 -125.4970  -20.5690 H         1 ADP1800     0.0000 
     38 HN62       -6.6660 -126.3370  -22.0190 H         1 ADP1800     0.0000 
     39 H2         -5.9220 -123.2970  -25.4290 H         1 ADP1800     0.0000 
@<TRIPOS>BOND
     1    1    2 ar   
     2    1    3 ar   
     3    1    4 ar   
     4    1    8 1    
     5    5    6 ar   
     6    5    7 ar   
     7    5    8 1    
     8    5    9 1    
     9    9   10 1    
    10   10   11 1    
    11   10   28 1    
    12   10   29 1    
    13   11   12 1    
    14   11   13 1    
    15   11   30 1    
    16   12   17 1    
    17   13   14 1    
    18   13   15 1    
    19   13   31 1    
    20   14   32 1    
    21   15   16 1    
    22   15   17 1    
    23   15   33 1    
    24   16   34 1    
    25   17   18 1    
    26   17   35 1    
    27   18   19 1    
    28   18   27 1    
    29   19   20 2    
    30   19   36 1    
    31   20   21 1    
    32   21   22 ar   
    33   21   27 ar   
    34   22   23 1    
    35   22   24 ar   
    36   23   37 1    
    37   23   38 1    
    38   24   25 ar   
    39   25   26 ar   
    40   25   39 1    
    41   26   27 ar   
@<TRIPOS>SUBSTRUCTURE
     1 ADP1800     1 GROUP   
@<TRIPOS>SET
ATOM$ORANGE STATIC     ATOMS   COLORGROUP SYSTEM 
20 10 10 11 11 13 13 15 15 17 17 19 19 21 21 22 22 25 \
25 27 27 

