#    Name: 6uko_2_ADP
#    Modification time : Fri May 22 19:25:51 2020

@<TRIPOS>MOLECULE
6uko_2_ADP
   39    41     1     0     1
SMALL
NO_CHARGES


@<TRIPOS>ATOM
      1 PB        -54.7620  -92.7670   27.1450 P.3       1 ADP1800     0.0000 
      2 O1B       -54.4790  -92.0280   25.8650 O.co2     1 ADP1800     0.0000 
      3 O2B       -55.8890  -92.1800   27.9660 O.co2     1 ADP1800     0.0000 
      4 O3B       -53.5060  -93.0940   27.9230 O.co2     1 ADP1800     0.0000 
      5 PA        -55.0330  -94.7420   25.1630 P.3       1 ADP1800     0.0000 
      6 O1A       -55.6160  -93.7690   24.1590 O.co2     1 ADP1800     0.0000 
      7 O2A       -53.5540  -95.0530   25.1580 O.co2     1 ADP1800     0.0000 
      8 O3A       -55.3650  -94.1760   26.6370 O.3       1 ADP1800     0.0000 
      9 O5'       -55.8440  -96.1450   25.1040 O.3       1 ADP1800     0.0000 
     10 C5'       -55.2630  -97.3080   24.5000 C.3       1 ADP1800     0.0000 
     11 C4'       -56.2780  -98.4360   24.2430 C.3       1 ADP1800     0.0000 
     12 O4'       -57.3710  -98.3750   25.1650 O.3       1 ADP1800     0.0000 
     13 C3'       -56.8930  -98.4380   22.8450 C.3       1 ADP1800     0.0000 
     14 O3'       -56.6380  -99.7190   22.2510 O.3       1 ADP1800     0.0000 
     15 C2'       -58.3810  -98.1730   23.0340 C.3       1 ADP1800     0.0000 
     16 O2'       -59.2420  -98.9470   22.1800 O.3       1 ADP1800     0.0000 
     17 C1'       -58.6340  -98.4960   24.4990 C.3       1 ADP1800     0.0000 
     18 N9        -59.5860  -97.5500   25.1310 N.pl3     1 ADP1800     0.0000 
     19 C8        -59.2240  -96.6340   26.0480 C.2       1 ADP1800     0.0000 
     20 N7        -60.2990  -95.9320   26.4600 N.2       1 ADP1800     0.0000 
     21 C5        -61.3780  -96.3880   25.8180 C.ar      1 ADP1800     0.0000 
     22 C6        -62.8150  -96.0510   25.8240 C.ar      1 ADP1800     0.0000 
     23 N6        -63.2680  -95.0560   26.6250 N.pl3     1 ADP1800     0.0000 
     24 N1        -63.6340  -96.7570   25.0080 N.ar      1 ADP1800     0.0000 
     25 C2        -63.1470  -97.7470   24.2270 C.ar      1 ADP1800     0.0000 
     26 N3        -61.8430  -98.0950   24.1810 N.ar      1 ADP1800     0.0000 
     27 C4        -60.9140  -97.4710   24.9450 C.ar      1 ADP1800     0.0000 
     28 H5'1      -54.4730  -97.6870   25.1520 H         1 ADP1800     0.0000 
     29 H5'2      -54.8060  -97.0220   23.5510 H         1 ADP1800     0.0000 
     30 H4'       -55.6830  -99.3520   24.3690 H         1 ADP1800     0.0000 
     31 H3'       -56.4680  -97.6770   22.1760 H         1 ADP1800     0.0000 
     32 HO3'      -56.8890  -99.6960   21.3170 H         1 ADP1800     0.0000 
     33 H2'       -58.6230  -97.1380   22.7550 H         1 ADP1800     0.0000 
     34 HO2'      -58.9910  -99.8790   22.2300 H         1 ADP1800     0.0000 
     35 H1'       -59.0710  -99.5030   24.5630 H         1 ADP1800     0.0000 
     36 H8        -58.2120  -96.4820   26.4040 H         1 ADP1800     0.0000 
     37 HN61      -62.6310  -94.5440   27.2190 H         1 ADP1800     0.0000 
     38 HN62      -64.2510  -94.8310   26.6210 H         1 ADP1800     0.0000 
     39 H2        -63.8440  -98.2920   23.6020 H         1 ADP1800     0.0000 
@<TRIPOS>BOND
     1    1    2 ar   
     2    1    3 ar   
     3    1    4 ar   
     4    1    8 1    
     5    5    6 ar   
     6    5    7 ar   
     7    5    8 1    
     8    5    9 1    
     9    9   10 1    
    10   10   11 1    
    11   10   28 1    
    12   10   29 1    
    13   11   12 1    
    14   11   13 1    
    15   11   30 1    
    16   12   17 1    
    17   13   14 1    
    18   13   15 1    
    19   13   31 1    
    20   14   32 1    
    21   15   16 1    
    22   15   17 1    
    23   15   33 1    
    24   16   34 1    
    25   17   18 1    
    26   17   35 1    
    27   18   19 1    
    28   18   27 1    
    29   19   20 2    
    30   19   36 1    
    31   20   21 1    
    32   21   22 ar   
    33   21   27 ar   
    34   22   23 1    
    35   22   24 ar   
    36   23   37 1    
    37   23   38 1    
    38   24   25 ar   
    39   25   26 ar   
    40   25   39 1    
    41   26   27 ar   
@<TRIPOS>SUBSTRUCTURE
     1 ADP1800     1 GROUP   
@<TRIPOS>SET
ATOM$ORANGE STATIC     ATOMS   COLORGROUP SYSTEM 
20 10 10 11 11 13 13 15 15 17 17 19 19 21 21 22 22 25 \
25 27 27 

