#    Name: 6uko_3_ADP
#    Modification time : Fri May 22 19:25:58 2020

@<TRIPOS>MOLECULE
6uko_3_ADP
   39    41     1     0     1
SMALL
NO_CHARGES


@<TRIPOS>ATOM
      1 PB        -36.0310 -122.5670    9.7990 P.3       1 ADP1800     0.0000 
      2 O1B       -36.4860 -121.2590    9.2130 O.co2     1 ADP1800     0.0000 
      3 O2B       -37.1410 -123.3220   10.4920 O.co2     1 ADP1800     0.0000 
      4 O3B       -34.7390 -122.4690   10.5810 O.co2     1 ADP1800     0.0000 
      5 PA        -35.4290 -122.7720    7.0720 P.3       1 ADP1800     0.0000 
      6 O1A       -36.6910 -122.0520    6.6500 O.co2     1 ADP1800     0.0000 
      7 O2A       -34.1200 -122.0330    7.2080 O.co2     1 ADP1800     0.0000 
      8 O3A       -35.7330 -123.4690    8.4930 O.3       1 ADP1800     0.0000 
      9 O5'       -35.2050 -123.9990    6.0450 O.3       1 ADP1800     0.0000 
     10 C5'       -34.2040 -123.9050    5.0250 C.3       1 ADP1800     0.0000 
     11 C4'       -34.3580 -124.9850    3.9430 C.3       1 ADP1800     0.0000 
     12 O4'       -35.0020 -126.1520    4.4730 O.3       1 ADP1800     0.0000 
     13 C3'       -35.1740 -124.5500    2.7260 C.3       1 ADP1800     0.0000 
     14 O3'       -34.4100 -124.7460    1.5310 O.3       1 ADP1800     0.0000 
     15 C2'       -36.4010 -125.4390    2.7140 C.3       1 ADP1800     0.0000 
     16 O2'       -36.7770 -125.8450    1.3930 O.3       1 ADP1800     0.0000 
     17 C1'       -36.0530 -126.6140    3.6130 C.3       1 ADP1800     0.0000 
     18 N9        -37.2310 -127.0040    4.4300 N.pl3     1 ADP1800     0.0000 
     19 C8        -37.3270 -126.7870    5.7560 C.2       1 ADP1800     0.0000 
     20 N7        -38.5030 -127.2570    6.2320 N.2       1 ADP1800     0.0000 
     21 C5        -39.1850 -127.7910    5.2090 C.ar      1 ADP1800     0.0000 
     22 C6        -40.5000 -128.4520    5.0570 C.ar      1 ADP1800     0.0000 
     23 N6        -41.2920 -128.6100    6.1450 N.pl3     1 ADP1800     0.0000 
     24 N1        -40.8670 -128.8750    3.8220 N.ar      1 ADP1800     0.0000 
     25 C2        -40.0410 -128.7040    2.7640 C.ar      1 ADP1800     0.0000 
     26 N3        -38.8320 -128.1040    2.8420 N.ar      1 ADP1800     0.0000 
     27 C4        -38.3430 -127.6360    4.0180 C.ar      1 ADP1800     0.0000 
     28 H5'1      -33.2180 -123.9990    5.4840 H         1 ADP1800     0.0000 
     29 H5'2      -34.2640 -122.9210    4.5570 H         1 ADP1800     0.0000 
     30 H4'       -33.3280 -125.1930    3.6210 H         1 ADP1800     0.0000 
     31 H3'       -35.4430 -123.4850    2.7710 H         1 ADP1800     0.0000 
     32 HO3'      -34.8600 -124.3240    0.7870 H         1 ADP1800     0.0000 
     33 H2'       -37.2900 -124.9050    3.0780 H         1 ADP1800     0.0000 
     34 HO2'      -37.7130 -125.6480    1.2500 H         1 ADP1800     0.0000 
     35 H1'       -35.7510 -127.4840    3.0140 H         1 ADP1800     0.0000 
     36 H8        -36.5670 -126.3040    6.3580 H         1 ADP1800     0.0000 
     37 HN61      -40.9840 -128.2780    7.0480 H         1 ADP1800     0.0000 
     38 HN62      -42.1890 -129.0590    6.0490 H         1 ADP1800     0.0000 
     39 H2        -40.3670 -129.0690    1.7980 H         1 ADP1800     0.0000 
@<TRIPOS>BOND
     1    1    2 ar   
     2    1    3 ar   
     3    1    4 ar   
     4    1    8 1    
     5    5    6 ar   
     6    5    7 ar   
     7    5    8 1    
     8    5    9 1    
     9    9   10 1    
    10   10   11 1    
    11   10   28 1    
    12   10   29 1    
    13   11   12 1    
    14   11   13 1    
    15   11   30 1    
    16   12   17 1    
    17   13   14 1    
    18   13   15 1    
    19   13   31 1    
    20   14   32 1    
    21   15   16 1    
    22   15   17 1    
    23   15   33 1    
    24   16   34 1    
    25   17   18 1    
    26   17   35 1    
    27   18   19 1    
    28   18   27 1    
    29   19   20 2    
    30   19   36 1    
    31   20   21 1    
    32   21   22 ar   
    33   21   27 ar   
    34   22   23 1    
    35   22   24 ar   
    36   23   37 1    
    37   23   38 1    
    38   24   25 ar   
    39   25   26 ar   
    40   25   39 1    
    41   26   27 ar   
@<TRIPOS>SUBSTRUCTURE
     1 ADP1800     1 GROUP   
@<TRIPOS>SET
ATOM$ORANGE STATIC     ATOMS   COLORGROUP SYSTEM 
20 10 10 11 11 13 13 15 15 17 17 19 19 21 21 22 22 25 \
25 27 27 

