#    Name: 6uko_2_ADP_CAVITY_N1_4
#    Modification time : Fri May 22 19:25:52 2020

@<TRIPOS>MOLECULE
6uko_2_ADP_CAVITY_N1_4
   19     0     4     0     0
SMALL
NO_CHARGES


@<TRIPOS>ATOM
      1 OG        -57.0700  -95.2400   20.5700 O.3       1 SER1        0.0000 
      2 OG        -56.4800  -96.3500   21.3800 O.3       1 SER1        0.0000 
      3 O         -56.1100  -99.5700   22.2400 O.2       2 ALA2        0.0000 
      4 OD1       -57.0200  -98.4800   18.8500 O.co2     3 ASP3        0.0000 
      5 OD1       -57.5200  -99.4500   20.6600 O.co2     3 ASP3        0.0000 
      6 CA        -57.2400 -100.5900   18.8900 C.3       4 GLY6        0.0000 
      7 CA        -55.3200  -99.7300   18.6500 C.3       4 GLY6        0.0000 
      8 CA        -56.4200  -99.5900   19.6600 C.3       4 GLY6        0.0000 
      9 CA        -56.1900  -97.4800   19.6100 C.3       4 GLY6        0.0000 
     10 CA        -56.7000  -98.4600   21.4300 C.3       4 GLY6        0.0000 
     11 CA        -55.0000  -99.7100   21.2300 C.3       4 GLY6        0.0000 
     12 CA        -55.8800  -97.4600   22.1900 C.3       4 GLY6        0.0000 
     13 CA        -55.2800  -98.5800   23.0000 C.3       4 GLY6        0.0000 
     14 CA        -55.1500  -94.3800   20.3300 C.3       4 GLY6        0.0000 
     15 CA        -55.0600  -96.4700   22.9600 C.3       4 GLY6        0.0000 
     16 CA        -54.3300  -93.3900   21.1000 C.3       4 GLY6        0.0000 
     17 CA        -53.7300  -94.5000   21.9100 C.3       4 GLY6        0.0000 
     18 CA        -52.9100  -93.5000   22.6700 C.3       4 GLY6        0.0000 
     19 CA        -51.2100  -94.7600   22.4800 C.3       4 GLY6        0.0000 
@<TRIPOS>BOND
@<TRIPOS>SUBSTRUCTURE
     1 SER1        1 GROUP   
     2 ALA2        3 GROUP   
     3 ASP3        4 GROUP   
     4 GLY6        6 GROUP   
@<TRIPOS>SET

