#    Name: 6uko_7_ADP
#    Modification time : Fri May 22 19:26:19 2020

@<TRIPOS>MOLECULE
6uko_7_ADP
   39    41     1     0     1
SMALL
NO_CHARGES


@<TRIPOS>ATOM
      1 PB        -24.0830  -36.0030   -0.0200 P.3       1 ADP1800     0.0000 
      2 O1B       -24.3500  -37.1950   -0.8950 O.co2     1 ADP1800     0.0000 
      3 O2B       -23.4430  -34.8390   -0.7390 O.co2     1 ADP1800     0.0000 
      4 O3B       -23.4430  -36.3700    1.3000 O.co2     1 ADP1800     0.0000 
      5 PA        -26.8170  -36.4810    0.2370 P.3       1 ADP1800     0.0000 
      6 O1A       -26.9810  -36.8950   -1.2140 O.co2     1 ADP1800     0.0000 
      7 O2A       -26.5890  -37.5030    1.3240 O.co2     1 ADP1800     0.0000 
      8 O3A       -25.5660  -35.4710    0.3230 O.3       1 ADP1800     0.0000 
      9 O5'       -28.0820  -35.5790    0.6880 O.3       1 ADP1800     0.0000 
     10 C5'       -29.0800  -36.1290    1.5570 C.3       1 ADP1800     0.0000 
     11 C4'       -30.3550  -35.2800    1.5780 C.3       1 ADP1800     0.0000 
     12 O4'       -30.0560  -33.9130    1.2950 O.3       1 ADP1800     0.0000 
     13 C3'       -31.4160  -35.7260    0.5760 C.3       1 ADP1800     0.0000 
     14 O3'       -32.6450  -35.9560    1.2800 O.3       1 ADP1800     0.0000 
     15 C2'       -31.5470  -34.5850   -0.4210 C.3       1 ADP1800     0.0000 
     16 O2'       -32.8980  -34.3480   -0.8450 O.3       1 ADP1800     0.0000 
     17 C1'       -30.9400  -33.3860    0.3010 C.3       1 ADP1800     0.0000 
     18 N9        -30.1420  -32.5210   -0.6030 N.pl3     1 ADP1800     0.0000 
     19 C8        -28.7940  -32.4650   -0.5830 C.2       1 ADP1800     0.0000 
     20 N7        -28.3410  -31.5870   -1.5050 N.2       1 ADP1800     0.0000 
     21 C5        -29.4000  -31.0630   -2.1330 C.ar      1 ADP1800     0.0000 
     22 C6        -29.5850  -30.0740   -3.2110 C.ar      1 ADP1800     0.0000 
     23 N6        -28.4910  -29.5080   -3.7660 N.pl3     1 ADP1800     0.0000 
     24 N1        -30.8460  -29.7790   -3.6020 N.ar      1 ADP1800     0.0000 
     25 C2        -31.9080  -30.3730   -3.0150 C.ar      1 ADP1800     0.0000 
     26 N3        -31.8010  -31.2860   -2.0230 N.ar      1 ADP1800     0.0000 
     27 C4        -30.5940  -31.6720   -1.5390 C.ar      1 ADP1800     0.0000 
     28 H5'1      -28.6760  -36.1960    2.5700 H         1 ADP1800     0.0000 
     29 H5'2      -29.3260  -37.1400    1.2260 H         1 ADP1800     0.0000 
     30 H4'       -30.7590  -35.4040    2.5920 H         1 ADP1800     0.0000 
     31 H3'       -31.1590  -36.6600    0.0580 H         1 ADP1800     0.0000 
     32 HO3'      -33.2920  -36.3500    0.6790 H         1 ADP1800     0.0000 
     33 H2'       -31.0350  -34.8110   -1.3660 H         1 ADP1800     0.0000 
     34 HO2'      -33.4460  -34.1430   -0.0760 H         1 ADP1800     0.0000 
     35 H1'       -31.7620  -32.7830    0.7100 H         1 ADP1800     0.0000 
     36 H8        -28.1630  -33.0440    0.0800 H         1 ADP1800     0.0000 
     37 HN61      -27.5750  -29.7690   -3.4320 H         1 ADP1800     0.0000 
     38 HN62      -28.5870  -28.8330   -4.5040 H         1 ADP1800     0.0000 
     39 H2        -32.8990  -30.1040   -3.3570 H         1 ADP1800     0.0000 
@<TRIPOS>BOND
     1    1    2 ar   
     2    1    3 ar   
     3    1    4 ar   
     4    1    8 1    
     5    5    6 ar   
     6    5    7 ar   
     7    5    8 1    
     8    5    9 1    
     9    9   10 1    
    10   10   11 1    
    11   10   28 1    
    12   10   29 1    
    13   11   12 1    
    14   11   13 1    
    15   11   30 1    
    16   12   17 1    
    17   13   14 1    
    18   13   15 1    
    19   13   31 1    
    20   14   32 1    
    21   15   16 1    
    22   15   17 1    
    23   15   33 1    
    24   16   34 1    
    25   17   18 1    
    26   17   35 1    
    27   18   19 1    
    28   18   27 1    
    29   19   20 2    
    30   19   36 1    
    31   20   21 1    
    32   21   22 ar   
    33   21   27 ar   
    34   22   23 1    
    35   22   24 ar   
    36   23   37 1    
    37   23   38 1    
    38   24   25 ar   
    39   25   26 ar   
    40   25   39 1    
    41   26   27 ar   
@<TRIPOS>SUBSTRUCTURE
     1 ADP1800     1 GROUP   
@<TRIPOS>SET
ATOM$ORANGE STATIC     ATOMS   COLORGROUP SYSTEM 
20 10 10 11 11 13 13 15 15 17 17 19 19 21 21 22 22 25 \
25 27 27 

