#    Name: 6uko_7_ADP_CAVITY_N1_8
#    Modification time : Fri May 22 19:26:20 2020

@<TRIPOS>MOLECULE
6uko_7_ADP_CAVITY_N1_8
   93     0     6     0     0
SMALL
NO_CHARGES


@<TRIPOS>ATOM
      1 OG        -31.2600  -35.4600    0.4000 O.3       1 SER1        0.0000 
      2 OG        -29.5600  -36.7100    0.2100 O.3       1 SER1        0.0000 
      3 OG        -25.5600  -40.3300    0.6200 O.3       1 SER1        0.0000 
      4 OG        -29.4200  -32.5200   -2.4600 O.3       1 SER1        0.0000 
      5 OG        -30.5300  -32.3800   -1.4500 O.3       1 SER1        0.0000 
      6 OG        -29.9300  -33.4900   -0.6500 O.3       1 SER1        0.0000 
      7 OG        -29.3300  -34.6100    0.1600 O.3       1 SER1        0.0000 
      8 OG        -26.5300  -36.0000   -1.0400 O.3       1 SER1        0.0000 
      9 OG        -27.6300  -35.8600   -0.0300 O.3       1 SER1        0.0000 
     10 OG        -28.7400  -35.7200    0.9700 O.3       1 SER1        0.0000 
     11 N         -35.3400  -29.7500   -2.6300 N.am      2 ALA2        0.0000 
     12 N         -34.7500  -30.8700   -1.8200 N.am      2 ALA2        0.0000 
     13 N         -31.8500  -34.3500   -0.4000 N.am      2 ALA2        0.0000 
     14 N         -32.3100  -29.0400   -3.8800 N.am      2 ALA2        0.0000 
     15 N         -33.4200  -28.9000   -2.8700 N.am      2 ALA2        0.0000 
     16 O         -30.6100  -30.2900   -4.0800 O.2       2 ALA2        0.0000 
     17 N         -31.7200  -30.1500   -3.0700 N.am      2 ALA2        0.0000 
     18 N         -32.8200  -30.0100   -2.0700 N.am      2 ALA2        0.0000 
     19 N         -33.9300  -29.8700   -1.0600 N.am      2 ALA2        0.0000 
     20 N         -32.2300  -31.1300   -1.2600 N.am      2 ALA2        0.0000 
     21 N         -33.3300  -30.9900   -0.2500 N.am      2 ALA2        0.0000 
     22 N         -31.6300  -32.2400   -0.4500 N.am      2 ALA2        0.0000 
     23 N         -31.0300  -33.3500    0.3600 N.am      2 ALA2        0.0000 
     24 O         -30.4400  -34.4700    1.1700 O.2       2 ALA2        0.0000 
     25 O         -31.5400  -34.3300    2.1700 O.2       2 ALA2        0.0000 
     26 O         -30.9500  -35.4400    2.9800 O.2       2 ALA2        0.0000 
     27 O         -24.8300  -37.2500   -1.2400 O.2       2 ALA2        0.0000 
     28 N         -31.4900  -28.0400   -3.1100 N.am      2 ALA2        0.0000 
     29 N         -29.7900  -29.2900   -3.3100 N.am      2 ALA2        0.0000 
     30 N         -28.0900  -30.5500   -3.5100 N.am      2 ALA2        0.0000 
     31 N         -29.2000  -30.4100   -2.5000 N.am      2 ALA2        0.0000 
     32 N         -32.5100  -29.9900    0.5100 N.am      2 ALA2        0.0000 
     33 N         -28.6000  -31.5200   -1.6900 N.am      2 ALA2        0.0000 
     34 N         -31.9100  -31.1100    1.3200 N.am      2 ALA2        0.0000 
     35 O         -28.0000  -32.6400   -0.8900 O.2       2 ALA2        0.0000 
     36 N         -29.1100  -32.5000    0.1200 N.am      2 ALA2        0.0000 
     37 O         -27.4100  -33.7500   -0.0800 O.2       2 ALA2        0.0000 
     38 N         -28.5100  -33.6100    0.9300 N.am      2 ALA2        0.0000 
     39 O         -30.7200  -33.3300    2.9400 O.2       2 ALA2        0.0000 
     40 O         -24.6000  -35.1400   -1.2800 O.2       2 ALA2        0.0000 
     41 O         -25.7100  -35.0000   -0.2700 O.2       2 ALA2        0.0000 
     42 N         -28.9700  -28.3000   -2.5500 N.am      2 ALA2        0.0000 
     43 N         -28.3700  -29.4100   -1.7400 N.am      2 ALA2        0.0000 
     44 O         -29.3900  -31.3600    1.8900 O.2       2 ALA2        0.0000 
     45 N         -28.7900  -32.4800    2.7000 N.am      2 ALA2        0.0000 
     46 O         -23.6900  -36.2300    2.1100 O.2       2 ALA2        0.0000 
     47 O         -24.8000  -36.1000    3.1100 O.2       2 ALA2        0.0000 
     48 OD1       -32.5400  -31.1500   -3.8400 O.co2     3 ASP3        0.0000 
     49 OD1       -33.6400  -31.0100   -2.8300 O.co2     3 ASP3        0.0000 
     50 OD1       -31.1200  -31.2600   -2.2600 O.co2     3 ASP3        0.0000 
     51 OD1       -25.3400  -38.2200    0.5800 O.co2     3 ASP3        0.0000 
     52 OD1       -24.7400  -39.3400    1.3900 O.co2     3 ASP3        0.0000 
     53 OD1       -25.8400  -39.2000    2.3900 O.co2     3 ASP3        0.0000 
     54 OD1       -24.1400  -40.4500    2.1900 O.co2     3 ASP3        0.0000 
     55 OD1       -24.0100  -36.2500   -0.4700 O.co2     3 ASP3        0.0000 
     56 OD1       -24.5100  -37.2300    1.3400 O.co2     3 ASP3        0.0000 
     57 OD1       -25.0200  -38.2100    3.1600 O.co2     3 ASP3        0.0000 
     58 CZ        -34.5200  -28.7600   -1.8700 C.ar      4 PHE5        0.0000 
     59 CA        -30.6600  -36.5800    1.2100 C.3       5 GLY6        0.0000 
     60 CA        -26.7500  -38.1100   -1.0000 C.3       5 GLY6        0.0000 
     61 CA        -27.8600  -37.9700    0.0100 C.3       5 GLY6        0.0000 
     62 CA        -26.1600  -39.2200   -0.1900 C.3       5 GLY6        0.0000 
     63 CA        -27.2600  -39.0800    0.8200 C.3       5 GLY6        0.0000 
     64 CA        -26.6600  -40.2000    1.6300 C.3       5 GLY6        0.0000 
     65 CA        -30.0200  -31.4000   -3.2700 C.3       5 GLY6        0.0000 
     66 CA        -25.9300  -37.1100   -0.2300 C.3       5 GLY6        0.0000 
     67 CA        -28.1400  -36.8300    1.7800 C.3       5 GLY6        0.0000 
     68 CA        -29.2400  -36.6900    2.7900 C.3       5 GLY6        0.0000 
     69 CA        -27.5400  -37.9500    2.5900 C.3       5 GLY6        0.0000 
     70 CA        -30.9000  -29.1600   -2.3100 C.3       5 GLY6        0.0000 
     71 CA        -32.0000  -29.0200   -1.3000 C.3       5 GLY6        0.0000 
     72 CA        -33.1000  -28.8800   -0.2900 C.3       5 GLY6        0.0000 
     73 CA        -30.3000  -30.2700   -1.5000 C.3       5 GLY6        0.0000 
     74 CA        -31.4000  -30.1300   -0.4900 C.3       5 GLY6        0.0000 
     75 CA        -29.7000  -31.3800   -0.6900 C.3       5 GLY6        0.0000 
     76 CA        -30.8100  -31.2400    0.3200 C.3       5 GLY6        0.0000 
     77 CA        -31.3200  -32.2200    2.1300 C.3       5 GLY6        0.0000 
     78 CA        -26.8100  -34.8600    0.7300 C.3       5 GLY6        0.0000 
     79 CA        -27.9200  -34.7200    1.7400 C.3       5 GLY6        0.0000 
     80 CA        -30.1200  -34.4500    3.7500 C.3       5 GLY6        0.0000 
     81 CA        -25.1100  -36.1200    0.5300 C.3       5 GLY6        0.0000 
     82 CA        -26.2100  -35.9800    1.5400 C.3       5 GLY6        0.0000 
     83 CA        -27.3200  -35.8400    2.5500 C.3       5 GLY6        0.0000 
     84 CA        -25.6200  -37.0900    2.3500 C.3       5 GLY6        0.0000 
     85 CA        -29.3000  -33.4500    4.5100 C.3       5 GLY6        0.0000 
     86 DU        -29.8400  -35.5800    1.9800 H         6 CUB7        0.0000 
     87 DU        -27.0400  -36.9700    0.7700 H         6 CUB7        0.0000 
     88 DU        -26.4400  -38.0900    1.5800 H         6 CUB7        0.0000 
     89 DU        -30.2100  -32.3600    1.1300 H         6 CUB7        0.0000 
     90 DU        -29.6200  -33.4700    1.9300 H         6 CUB7        0.0000 
     91 DU        -29.0200  -34.5900    2.7400 H         6 CUB7        0.0000 
     92 DU        -28.4200  -35.7000    3.5500 H         6 CUB7        0.0000 
     93 DU        -26.7200  -36.9500    3.3500 H         6 CUB7        0.0000 
@<TRIPOS>BOND
@<TRIPOS>SUBSTRUCTURE
     1 SER1        1 GROUP   
     2 ALA2       11 GROUP   
     3 ASP3       48 GROUP   
     4 PHE5       58 GROUP   
     5 GLY6       59 GROUP   
     6 CUB7       86 GROUP   
@<TRIPOS>SET

