#    Name: 6uko_6_ADP_CAVITY_N1_4
#    Modification time : Fri May 22 19:26:13 2020

@<TRIPOS>MOLECULE
6uko_6_ADP_CAVITY_N1_4
   21     0     5     0     0
SMALL
NO_CHARGES


@<TRIPOS>ATOM
      1 OG         -3.6700  -49.6100  -25.5200 O.3       1 SER1        0.0000 
      2 OG         -2.2500  -49.7300  -23.9500 O.3       1 SER1        0.0000 
      3 N          -2.4800  -51.8400  -23.9100 N.am      2 ALA2        0.0000 
      4 N          -5.1500  -46.2500  -25.3700 N.am      2 ALA2        0.0000 
      5 O          -3.7300  -46.3700  -23.8000 O.2       2 ALA2        0.0000 
      6 OD1        -5.3700  -48.3600  -25.3300 O.co2     3 ASP3        0.0000 
      7 OD1        -4.5500  -47.3700  -24.5600 O.co2     3 ASP3        0.0000 
      8 CA         -3.0700  -50.7300  -24.7100 C.3       4 GLY6        0.0000 
      9 CA         -1.8800  -52.9500  -23.1000 C.3       4 GLY6        0.0000 
     10 CA         -6.2500  -46.1100  -24.3600 C.3       4 GLY6        0.0000 
     11 CA         -5.6500  -47.2300  -23.5500 C.3       4 GLY6        0.0000 
     12 CA         -5.0600  -48.3400  -22.7500 C.3       4 GLY6        0.0000 
     13 CA         -1.6600  -50.8500  -23.1400 C.3       4 GLY6        0.0000 
     14 CA         -1.0600  -51.9600  -22.3300 C.3       4 GLY6        0.0000 
     15 CA         -4.8300  -46.2300  -22.7900 C.3       4 GLY6        0.0000 
     16 CA         -4.2400  -47.3500  -21.9800 C.3       4 GLY6        0.0000 
     17 CA         -2.5400  -48.6000  -22.1800 C.3       4 GLY6        0.0000 
     18 CA         -3.6400  -48.4600  -21.1700 C.3       4 GLY6        0.0000 
     19 CA         -4.0100  -45.2400  -22.0200 C.3       4 GLY6        0.0000 
     20 DU         -3.9500  -48.4800  -23.7500 H         5 CUB7        0.0000 
     21 DU         -3.1300  -47.4800  -22.9900 H         5 CUB7        0.0000 
@<TRIPOS>BOND
@<TRIPOS>SUBSTRUCTURE
     1 SER1        1 GROUP   
     2 ALA2        3 GROUP   
     3 ASP3        6 GROUP   
     4 GLY6        8 GROUP   
     5 CUB7       20 GROUP   
@<TRIPOS>SET

