#    Name: 6uko_1_ADP
#    Modification time : Fri May 22 19:25:43 2020

@<TRIPOS>MOLECULE
6uko_1_ADP
   39    41     1     0     1
SMALL
NO_CHARGES


@<TRIPOS>ATOM
      1 PB        -49.2650  -54.2670   23.0390 P.3       1 ADP1800     0.0000 
      2 O1B       -48.8810  -54.5560   21.6150 O.co2     1 ADP1800     0.0000 
      3 O2B       -49.6190  -52.8200   23.2870 O.co2     1 ADP1800     0.0000 
      4 O3B       -48.3170  -54.8980   24.0330 O.co2     1 ADP1800     0.0000 
      5 PA        -51.0540  -56.2280   22.2180 P.3       1 ADP1800     0.0000 
      6 O1A       -51.1060  -55.6770   20.8150 O.co2     1 ADP1800     0.0000 
      7 O2A       -50.1140  -57.3650   22.5370 O.co2     1 ADP1800     0.0000 
      8 O3A       -50.6860  -55.0100   23.2030 O.3       1 ADP1800     0.0000 
      9 O5'       -52.5460  -56.6720   22.6390 O.3       1 ADP1800     0.0000 
     10 C5'       -52.8700  -58.0630   22.6150 C.3       1 ADP1800     0.0000 
     11 C4'       -54.3780  -58.3160   22.7080 C.3       1 ADP1800     0.0000 
     12 O4'       -55.0150  -57.2420   23.4040 O.3       1 ADP1800     0.0000 
     13 C3'       -55.0840  -58.4540   21.3590 C.3       1 ADP1800     0.0000 
     14 O3'       -55.7580  -59.7130   21.2730 O.3       1 ADP1800     0.0000 
     15 C2'       -56.0660  -57.2990   21.2730 C.3       1 ADP1800     0.0000 
     16 O2'       -57.2910  -57.7350   20.6610 O.3       1 ADP1800     0.0000 
     17 C1'       -56.1840  -56.7960   22.7120 C.3       1 ADP1800     0.0000 
     18 N9        -56.2290  -55.3130   22.7530 N.pl3     1 ADP1800     0.0000 
     19 C8        -55.1870  -54.5460   23.1290 C.2       1 ADP1800     0.0000 
     20 N7        -55.5160  -53.2360   23.0680 N.2       1 ADP1800     0.0000 
     21 C5        -56.7790  -53.1440   22.6320 C.ar      1 ADP1800     0.0000 
     22 C6        -57.7120  -52.0330   22.3620 C.ar      1 ADP1800     0.0000 
     23 N6        -57.2940  -50.7570   22.5470 N.pl3     1 ADP1800     0.0000 
     24 N1        -58.9560  -52.3410   21.9240 N.ar      1 ADP1800     0.0000 
     25 C2        -59.3360  -53.6280   21.7590 C.ar      1 ADP1800     0.0000 
     26 N3        -58.5270  -54.6830   21.9930 N.ar      1 ADP1800     0.0000 
     27 C4        -57.2550  -54.5160   22.4260 C.ar      1 ADP1800     0.0000 
     28 H5'1      -52.3730  -58.5600   23.4500 H         1 ADP1800     0.0000 
     29 H5'2      -52.4910  -58.5020   21.6890 H         1 ADP1800     0.0000 
     30 H4'       -54.4700  -59.2730   23.2410 H         1 ADP1800     0.0000 
     31 H3'       -54.3700  -58.4270   20.5230 H         1 ADP1800     0.0000 
     32 HO3'      -56.0480  -59.8630   20.3630 H         1 ADP1800     0.0000 
     33 H2'       -55.7500  -56.4700   20.6240 H         1 ADP1800     0.0000 
     34 HO2'      -57.9680  -57.8520   21.3420 H         1 ADP1800     0.0000 
     35 H1'       -57.1100  -57.1850   23.1580 H         1 ADP1800     0.0000 
     36 H8        -54.2210  -54.9260   23.4370 H         1 ADP1800     0.0000 
     37 HN61      -56.3550  -50.5740   22.8720 H         1 ADP1800     0.0000 
     38 HN62      -57.9230  -49.9920   22.3600 H         1 ADP1800     0.0000 
     39 H2        -60.3460  -53.8240   21.4210 H         1 ADP1800     0.0000 
@<TRIPOS>BOND
     1    1    2 ar   
     2    1    3 ar   
     3    1    4 ar   
     4    1    8 1    
     5    5    6 ar   
     6    5    7 ar   
     7    5    8 1    
     8    5    9 1    
     9    9   10 1    
    10   10   11 1    
    11   10   28 1    
    12   10   29 1    
    13   11   12 1    
    14   11   13 1    
    15   11   30 1    
    16   12   17 1    
    17   13   14 1    
    18   13   15 1    
    19   13   31 1    
    20   14   32 1    
    21   15   16 1    
    22   15   17 1    
    23   15   33 1    
    24   16   34 1    
    25   17   18 1    
    26   17   35 1    
    27   18   19 1    
    28   18   27 1    
    29   19   20 2    
    30   19   36 1    
    31   20   21 1    
    32   21   22 ar   
    33   21   27 ar   
    34   22   23 1    
    35   22   24 ar   
    36   23   37 1    
    37   23   38 1    
    38   24   25 ar   
    39   25   26 ar   
    40   25   39 1    
    41   26   27 ar   
@<TRIPOS>SUBSTRUCTURE
     1 ADP1800     1 GROUP   
@<TRIPOS>SET
ATOM$ORANGE STATIC     ATOMS   COLORGROUP SYSTEM 
20 10 10 11 11 13 13 15 15 17 17 19 19 21 21 22 22 25 \
25 27 27 

