#    Name: 6uko_6_ADP
#    Modification time : Fri May 22 19:26:12 2020

@<TRIPOS>MOLECULE
6uko_6_ADP
   39    41     1     0     1
SMALL
NO_CHARGES


@<TRIPOS>ATOM
      1 PB          3.6840  -50.7350  -23.0040 P.3       1 ADP1800     0.0000 
      2 O1B         4.7630  -50.6640  -24.0620 O.co2     1 ADP1800     0.0000 
      3 O2B         2.6880  -51.8420  -23.2140 O.co2     1 ADP1800     0.0000 
      4 O3B         4.1770  -50.6640  -21.5780 O.co2     1 ADP1800     0.0000 
      5 PA          1.2140  -49.4100  -23.0730 P.3       1 ADP1800     0.0000 
      6 O1A         0.6500  -50.3950  -24.0750 O.co2     1 ADP1800     0.0000 
      7 O2A         0.9400  -49.6150  -21.6020 O.co2     1 ADP1800     0.0000 
      8 O3A         2.8160  -49.3960  -23.2590 O.3       1 ADP1800     0.0000 
      9 O5'         0.7460  -47.9120  -23.4700 O.3       1 ADP1800     0.0000 
     10 C5'        -0.3130  -47.2750  -22.7450 C.3       1 ADP1800     0.0000 
     11 C4'        -0.8370  -46.0100  -23.4410 C.3       1 ADP1800     0.0000 
     12 O4'         0.1860  -45.3960  -24.2290 O.3       1 ADP1800     0.0000 
     13 C3'        -2.0320  -46.2360  -24.3650 C.3       1 ADP1800     0.0000 
     14 O3'        -3.1020  -45.3730  -23.9570 O.3       1 ADP1800     0.0000 
     15 C2'        -1.5500  -45.8940  -25.7660 C.3       1 ADP1800     0.0000 
     16 O2'        -2.5280  -45.2070  -26.5620 O.3       1 ADP1800     0.0000 
     17 C1'        -0.2960  -45.0600  -25.5350 C.3       1 ADP1800     0.0000 
     18 N9          0.7640  -45.3730  -26.5220 N.pl3     1 ADP1800     0.0000 
     19 C8          1.8820  -46.0680  -26.2350 C.2       1 ADP1800     0.0000 
     20 N7          2.6610  -46.1840  -27.3330 N.2       1 ADP1800     0.0000 
     21 C5          2.0480  -45.5580  -28.3460 C.ar      1 ADP1800     0.0000 
     22 C6          2.3530  -45.3200  -29.7710 C.ar      1 ADP1800     0.0000 
     23 N6          3.5000  -45.8060  -30.2970 N.pl3     1 ADP1800     0.0000 
     24 N1          1.4570  -44.6190  -30.5060 N.ar      1 ADP1800     0.0000 
     25 C2          0.3220  -44.1420  -29.9530 C.ar      1 ADP1800     0.0000 
     26 N3         -0.0110  -44.3280  -28.6580 N.ar      1 ADP1800     0.0000 
     27 C4          0.7950  -45.0150  -27.8120 C.ar      1 ADP1800     0.0000 
     28 H5'1        0.0480  -47.0090  -21.7490 H         1 ADP1800     0.0000 
     29 H5'2       -1.1370  -47.9820  -22.6260 H         1 ADP1800     0.0000 
     30 H4'        -1.1580  -45.3640  -22.6110 H         1 ADP1800     0.0000 
     31 H3'        -2.4090  -47.2670  -24.3290 H         1 ADP1800     0.0000 
     32 HO3'       -3.8990  -45.5880  -24.4620 H         1 ADP1800     0.0000 
     33 H2'        -1.3550  -46.7990  -26.3590 H         1 ADP1800     0.0000 
     34 HO2'       -2.7840  -44.3860  -26.1200 H         1 ADP1800     0.0000 
     35 H1'        -0.5560  -43.9970  -25.6380 H         1 ADP1800     0.0000 
     36 H8          2.1220  -46.4760  -25.2610 H         1 ADP1800     0.0000 
     37 HN61        4.1440  -46.3270  -29.7190 H         1 ADP1800     0.0000 
     38 HN62        3.7090  -45.6460  -31.2670 H         1 ADP1800     0.0000 
     39 H2         -0.3580  -43.5800  -30.5810 H         1 ADP1800     0.0000 
@<TRIPOS>BOND
     1    1    2 ar   
     2    1    3 ar   
     3    1    4 ar   
     4    1    8 1    
     5    5    6 ar   
     6    5    7 ar   
     7    5    8 1    
     8    5    9 1    
     9    9   10 1    
    10   10   11 1    
    11   10   28 1    
    12   10   29 1    
    13   11   12 1    
    14   11   13 1    
    15   11   30 1    
    16   12   17 1    
    17   13   14 1    
    18   13   15 1    
    19   13   31 1    
    20   14   32 1    
    21   15   16 1    
    22   15   17 1    
    23   15   33 1    
    24   16   34 1    
    25   17   18 1    
    26   17   35 1    
    27   18   19 1    
    28   18   27 1    
    29   19   20 2    
    30   19   36 1    
    31   20   21 1    
    32   21   22 ar   
    33   21   27 ar   
    34   22   23 1    
    35   22   24 ar   
    36   23   37 1    
    37   23   38 1    
    38   24   25 ar   
    39   25   26 ar   
    40   25   39 1    
    41   26   27 ar   
@<TRIPOS>SUBSTRUCTURE
     1 ADP1800     1 GROUP   
@<TRIPOS>SET
ATOM$ORANGE STATIC     ATOMS   COLORGROUP SYSTEM 
20 10 10 11 11 13 13 15 15 17 17 19 19 21 21 22 22 25 \
25 27 27 

