#    Name: 6uko_2_ADP_CAVITY_N1_6
#    Modification time : Fri May 22 19:25:52 2020

@<TRIPOS>MOLECULE
6uko_2_ADP_CAVITY_N1_6
   52     0     6     0     0
SMALL
NO_CHARGES


@<TRIPOS>ATOM
      1 OG        -56.5700  -94.2600   18.7600 O.3       1 SER1        0.0000 
      2 OG        -57.0700  -95.2400   20.5700 O.3       1 SER1        0.0000 
      3 OG        -56.4800  -96.3500   21.3800 O.3       1 SER1        0.0000 
      4 OG        -54.6400  -93.4000   18.5200 O.3       1 SER1        0.0000 
      5 OG        -55.7400  -93.2700   19.5300 O.3       1 SER1        0.0000 
      6 OG        -53.8200  -92.4100   19.2800 O.3       1 SER1        0.0000 
      7 N         -58.6600 -100.4700   17.3200 N.am      2 ALA2        0.0000 
      8 N         -54.8100  -98.7600   16.8400 N.am      2 ALA2        0.0000 
      9 O         -56.1100  -99.5700   22.2400 O.2       2 ALA2        0.0000 
     10 O         -51.5200  -94.7800   19.9000 O.2       2 ALA2        0.0000 
     11 OD1       -58.4300  -98.3600   17.2700 O.co2     3 ASP3        0.0000 
     12 OD1       -57.8400  -99.4700   18.0800 O.co2     3 ASP3        0.0000 
     13 OD1       -57.6100  -97.3700   18.0400 O.co2     3 ASP3        0.0000 
     14 OD1       -57.0200  -98.4800   18.8500 O.co2     3 ASP3        0.0000 
     15 OD1       -57.5200  -99.4500   20.6600 O.co2     3 ASP3        0.0000 
     16 OD1       -57.3900  -95.2600   18.0000 O.co2     3 ASP3        0.0000 
     17 OD1       -58.4900  -95.1200   19.0000 O.co2     3 ASP3        0.0000 
     18 OD1       -56.7900  -96.3700   18.8000 O.co2     3 ASP3        0.0000 
     19 NZ        -53.0000  -91.4200   20.0500 N.4       4 LYS4        0.0000 
     20 NZ        -52.4000  -92.5300   20.8600 N.4       4 LYS4        0.0000 
     21 NZ        -49.8800  -92.7900   21.4300 N.4       4 LYS4        0.0000 
     22 NZ        -50.9800  -92.6500   22.4300 N.4       4 LYS4        0.0000 
     23 NZ        -48.4600  -92.9100   23.0000 N.4       4 LYS4        0.0000 
     24 CA        -59.2500  -99.3600   16.5100 C.3       5 GLY6        0.0000 
     25 CA        -56.7300  -99.6100   17.0800 C.3       5 GLY6        0.0000 
     26 CA        -56.1400 -100.7300   17.8900 C.3       5 GLY6        0.0000 
     27 CA        -57.2400 -100.5900   18.8900 C.3       5 GLY6        0.0000 
     28 CA        -58.2100  -96.2500   17.2300 C.3       5 GLY6        0.0000 
     29 CA        -55.9100  -98.6200   17.8400 C.3       5 GLY6        0.0000 
     30 CA        -55.3200  -99.7300   18.6500 C.3       5 GLY6        0.0000 
     31 CA        -56.4200  -99.5900   19.6600 C.3       5 GLY6        0.0000 
     32 CA        -55.6900  -96.5100   17.8000 C.3       5 GLY6        0.0000 
     33 CA        -56.1900  -97.4800   19.6100 C.3       5 GLY6        0.0000 
     34 CA        -56.7000  -98.4600   21.4300 C.3       5 GLY6        0.0000 
     35 CA        -55.0000  -99.7100   21.2300 C.3       5 GLY6        0.0000 
     36 CA        -54.8600  -95.5100   18.5600 C.3       5 GLY6        0.0000 
     37 CA        -55.9700  -95.3800   19.5700 C.3       5 GLY6        0.0000 
     38 CA        -55.8800  -97.4600   22.1900 C.3       5 GLY6        0.0000 
     39 CA        -55.2800  -98.5800   23.0000 C.3       5 GLY6        0.0000 
     40 CA        -54.0400  -94.5200   19.3300 C.3       5 GLY6        0.0000 
     41 CA        -55.1500  -94.3800   20.3300 C.3       5 GLY6        0.0000 
     42 CA        -55.0600  -96.4700   22.9600 C.3       5 GLY6        0.0000 
     43 CA        -54.3300  -93.3900   21.1000 C.3       5 GLY6        0.0000 
     44 CA        -52.6300  -94.6400   20.9000 C.3       5 GLY6        0.0000 
     45 CA        -53.7300  -94.5000   21.9100 C.3       5 GLY6        0.0000 
     46 CA        -50.7000  -93.7800   20.6600 C.3       5 GLY6        0.0000 
     47 CA        -52.9100  -93.5000   22.6700 C.3       5 GLY6        0.0000 
     48 CA        -51.2100  -94.7600   22.4800 C.3       5 GLY6        0.0000 
     49 DU        -56.5100  -97.5000   17.0300 H         6 CUB7        0.0000 
     50 DU        -53.2200  -93.5200   20.0900 H         6 CUB7        0.0000 
     51 DU        -51.8000  -93.6400   21.6700 H         6 CUB7        0.0000 
     52 DU        -49.2800  -93.9000   22.2300 H         6 CUB7        0.0000 
@<TRIPOS>BOND
@<TRIPOS>SUBSTRUCTURE
     1 SER1        1 GROUP   
     2 ALA2        7 GROUP   
     3 ASP3       11 GROUP   
     4 LYS4       19 GROUP   
     5 GLY6       24 GROUP   
     6 CUB7       49 GROUP   
@<TRIPOS>SET

