#    Name: 6em6_1_ADP
#    Modification time : Fri May 22 19:24:16 2020

@<TRIPOS>MOLECULE
6em6_1_ADP
   39    41     1     0     1
SMALL
NO_CHARGES


@<TRIPOS>ATOM
      1 PB         -4.1670   16.2480   -7.4400 P.3       1 ADP401      0.0000 
      2 O1B        -3.2850   15.6890   -8.5150 O.co2     1 ADP401      0.0000 
      3 O2B        -3.9260   15.7690   -6.0250 O.co2     1 ADP401      0.0000 
      4 O3B        -4.3330   17.7590   -7.5300 O.co2     1 ADP401      0.0000 
      5 PA         -6.2570   14.7340   -9.0120 P.3       1 ADP401      0.0000 
      6 O1A        -5.3700   14.5210  -10.2180 O.co2     1 ADP401      0.0000 
      7 O2A        -7.6690   15.1770   -9.2630 O.co2     1 ADP401      0.0000 
      8 O3A        -5.6620   15.7140   -7.8610 O.3       1 ADP401      0.0000 
      9 O5'        -6.3340   13.3110   -8.2340 O.3       1 ADP401      0.0000 
     10 C5'        -5.2170   12.4330   -8.1420 C.3       1 ADP401      0.0000 
     11 C4'        -5.7330   11.0060   -8.0450 C.3       1 ADP401      0.0000 
     12 O4'        -6.5540   10.8520   -6.8940 O.3       1 ADP401      0.0000 
     13 C3'        -6.6160   10.6240   -9.2160 C.3       1 ADP401      0.0000 
     14 O3'        -5.8460   10.2440  -10.3660 O.3       1 ADP401      0.0000 
     15 C2'        -7.4280    9.5020   -8.6090 C.3       1 ADP401      0.0000 
     16 O2'        -6.6610    8.3030   -8.5240 O.3       1 ADP401      0.0000 
     17 C1'        -7.6560    9.9990   -7.1910 C.3       1 ADP401      0.0000 
     18 N9         -8.9030   10.7760   -7.1430 N.pl3     1 ADP401      0.0000 
     19 C8         -9.0280   12.1280   -7.1340 C.2       1 ADP401      0.0000 
     20 N7        -10.3220   12.4880   -7.0950 N.2       1 ADP401      0.0000 
     21 C5        -11.0220   11.3320   -7.0780 C.ar      1 ADP401      0.0000 
     22 C6        -12.4320   11.0140   -7.0570 C.ar      1 ADP401      0.0000 
     23 N6        -13.2870   12.0360   -7.0230 N.pl3     1 ADP401      0.0000 
     24 N1        -12.8000    9.7210   -7.0510 N.ar      1 ADP401      0.0000 
     25 C2        -11.8890    8.7280   -7.0910 C.ar      1 ADP401      0.0000 
     26 N3        -10.5600    8.9370   -7.1220 N.ar      1 ADP401      0.0000 
     27 C4        -10.1020   10.2200   -7.1200 C.ar      1 ADP401      0.0000 
     28 H5'1       -4.5830   12.5420   -9.0250 H         1 ADP401      0.0000 
     29 H5'2       -4.6220   12.6770   -7.2590 H         1 ADP401      0.0000 
     30 H4'        -4.8790   10.3160   -7.9980 H         1 ADP401      0.0000 
     31 H3'        -7.2810   11.4640   -9.4580 H         1 ADP401      0.0000 
     32 HO3'       -6.4430   10.0080  -11.0890 H         1 ADP401      0.0000 
     33 H2'        -8.3800    9.3620   -9.1410 H         1 ADP401      0.0000 
     34 HO2'       -6.3980    8.0240   -9.4120 H         1 ADP401      0.0000 
     35 H1'        -7.6940    9.1470   -6.4980 H         1 ADP401      0.0000 
     36 H8         -8.1970   12.8230   -7.1470 H         1 ADP401      0.0000 
     37 HN61      -12.9410   12.9850   -7.0210 H         1 ADP401      0.0000 
     38 HN62      -14.2820   11.8610   -6.9970 H         1 ADP401      0.0000 
     39 H2        -12.2460    7.7060   -7.0890 H         1 ADP401      0.0000 
@<TRIPOS>BOND
     1    1    2 ar   
     2    1    3 ar   
     3    1    4 ar   
     4    1    8 1    
     5    5    6 ar   
     6    5    7 ar   
     7    5    8 1    
     8    5    9 1    
     9    9   10 1    
    10   10   11 1    
    11   10   28 1    
    12   10   29 1    
    13   11   12 1    
    14   11   13 1    
    15   11   30 1    
    16   12   17 1    
    17   13   14 1    
    18   13   15 1    
    19   13   31 1    
    20   14   32 1    
    21   15   16 1    
    22   15   17 1    
    23   15   33 1    
    24   16   34 1    
    25   17   18 1    
    26   17   35 1    
    27   18   19 1    
    28   18   27 1    
    29   19   20 2    
    30   19   36 1    
    31   20   21 1    
    32   21   22 ar   
    33   21   27 ar   
    34   22   23 1    
    35   22   24 ar   
    36   23   37 1    
    37   23   38 1    
    38   24   25 ar   
    39   25   26 ar   
    40   25   39 1    
    41   26   27 ar   
@<TRIPOS>SUBSTRUCTURE
     1 ADP401      1 GROUP   
@<TRIPOS>SET
ATOM$ORANGE STATIC     ATOMS   COLORGROUP SYSTEM 
20 10 10 11 11 13 13 15 15 17 17 19 19 21 21 22 22 25 \
25 27 27 

