#    Name: 6pbm_2_NAP
#    Modification time : Fri May 22 19:30:23 2020

@<TRIPOS>MOLECULE
6pbm_2_NAP
   73    77     1     0     1
SMALL
NO_CHARGES


@<TRIPOS>ATOM
      1 PA        -80.4050   30.5520   27.5130 P.3       1 NAP501      0.0000 
      2 O1A       -80.6180   32.0270   27.6350 O.co2     1 NAP501      0.0000 
      3 O2A       -81.4890   29.7330   26.8040 O.co2     1 NAP501      0.0000 
      4 O5B       -80.4170   29.8950   29.0270 O.3       1 NAP501      0.0000 
      5 C5B       -79.6230   30.4500   30.0300 C.3       1 NAP501      0.0000 
      6 C4B       -80.4200   30.0350   31.3100 C.3       1 NAP501      0.0000 
      7 O4B       -79.6620   30.2450   32.3910 O.3       1 NAP501      0.0000 
      8 C3B       -81.7280   30.8870   31.4440 C.3       1 NAP501      0.0000 
      9 O3B       -82.7620   30.1520   31.9550 O.3       1 NAP501      0.0000 
     10 C2B       -81.1520   32.0080   32.3570 C.3       1 NAP501      0.0000 
     11 O2B       -82.2970   32.6600   33.0480 O.3       1 NAP501      0.0000 
     12 C1B       -80.3890   31.3940   33.2690 C.3       1 NAP501      0.0000 
     13 N9A       -79.3040   32.1450   33.8060 N.pl3     1 NAP501      0.0000 
     14 C8A       -78.5560   33.1300   33.3310 C.2       1 NAP501      0.0000 
     15 N7A       -77.6760   33.4950   34.2480 N.2       1 NAP501      0.0000 
     16 C5A       -77.8740   32.7320   35.3380 C.ar      1 NAP501      0.0000 
     17 C6A       -77.2220   32.7290   36.5530 C.ar      1 NAP501      0.0000 
     18 N6A       -76.1320   33.5990   36.9340 N.pl3     1 NAP501      0.0000 
     19 N1A       -77.5690   31.8410   37.4850 N.ar      1 NAP501      0.0000 
     20 C2A       -78.5930   30.9890   37.2190 C.ar      1 NAP501      0.0000 
     21 N3A       -79.2560   31.0050   36.0210 N.ar      1 NAP501      0.0000 
     22 C4A       -78.8650   31.8800   35.0730 C.ar      1 NAP501      0.0000 
     23 O3        -78.8710   30.2910   27.0000 O.3       1 NAP501      0.0000 
     24 PN        -78.4900   28.9060   26.1880 P.3       1 NAP501      0.0000 
     25 O1N       -78.9930   29.0550   24.7520 O.co2     1 NAP501      0.0000 
     26 O2N       -79.0080   27.7040   26.8930 O.co2     1 NAP501      0.0000 
     27 O5D       -76.8560   28.9530   26.0960 O.3       1 NAP501      0.0000 
     28 C5D       -76.1080   28.8210   27.3120 C.3       1 NAP501      0.0000 
     29 C4D       -74.6810   29.3740   26.9260 C.3       1 NAP501      0.0000 
     30 O4D       -74.2430   28.5370   26.0170 O.3       1 NAP501      0.0000 
     31 C3D       -74.9060   30.7650   26.3460 C.3       1 NAP501      0.0000 
     32 O3D       -74.0040   31.7200   26.6870 O.3       1 NAP501      0.0000 
     33 C2D       -74.7270   30.4700   24.8110 C.3       1 NAP501      0.0000 
     34 O2D       -74.1620   31.7240   24.1850 O.3       1 NAP501      0.0000 
     35 C1D       -73.9230   29.4250   24.7330 C.3       1 NAP501      0.0000 
     36 N1N       -74.2560   28.6730   23.5170 N.pl3     1 NAP501      0.0000 
     37 C2N       -75.5110   28.1930   23.2560 C.ar      1 NAP501      0.0000 
     38 C3N       -75.7920   27.5500   22.0710 C.ar      1 NAP501      0.0000 
     39 C7N       -77.1740   27.0200   21.7410 C.2       1 NAP501      0.0000 
     40 O7N       -77.3460   26.4310   20.7190 O.2       1 NAP501      0.0000 
     41 N7N       -78.2830   27.2470   22.6340 N.am      1 NAP501      0.0000 
     42 C4N       -74.8140   27.3550   21.1500 C.ar      1 NAP501      0.0000 
     43 C5N       -73.5670   27.8090   21.4040 C.ar      1 NAP501      0.0000 
     44 C6N       -73.2800   28.4760   22.5820 C.ar      1 NAP501      0.0000 
     45 P2B       -82.6500   34.1790   32.5460 P.3       1 NAP501      0.0000 
     46 O1X       -81.4230   35.0230   32.7000 O.co2     1 NAP501      0.0000 
     47 O2X       -83.0540   34.0770   31.0860 O.co2     1 NAP501      0.0000 
     48 O3X       -83.7580   34.6640   33.4580 O.co2     1 NAP501      0.0000 
     49 H51A      -78.7300   30.0700   30.0280 H         1 NAP501      0.0000 
     50 H52A      -79.5630   31.4140   29.9450 H         1 NAP501      0.0000 
     51 H4B       -80.6820   29.1010   31.2870 H         1 NAP501      0.0000 
     52 H3B       -82.0960   31.2490   30.6220 H         1 NAP501      0.0000 
     53 HO3A      -82.9750   29.5410   31.4030 H         1 NAP501      0.0000 
     54 H2B       -80.6140   32.6310   31.8430 H         1 NAP501      0.0000 
     55 H1B       -80.9850   31.1260   33.9850 H         1 NAP501      0.0000 
     56 H8A       -78.6370   33.5070   32.4840 H         1 NAP501      0.0000 
     57 H61A      -75.7780   33.5280   37.7140 H         1 NAP501      0.0000 
     58 H62A      -75.8380   34.1870   36.3800 H         1 NAP501      0.0000 
     59 H2A       -78.8510   30.3770   37.8700 H         1 NAP501      0.0000 
     60 H51N      -76.5040   29.3490   28.0220 H         1 NAP501      0.0000 
     61 H52N      -76.0570   27.8920   27.5880 H         1 NAP501      0.0000 
     62 H4D       -74.0160   29.4590   27.6260 H         1 NAP501      0.0000 
     63 H3D       -75.7740   31.0820   26.6410 H         1 NAP501      0.0000 
     64 HO3N      -74.2410   32.4650   26.3530 H         1 NAP501      0.0000 
     65 H2D       -75.5520   30.2140   24.3700 H         1 NAP501      0.0000 
     66 HO2N      -74.7720   32.3150   24.1330 H         1 NAP501      0.0000 
     67 H1D       -72.9930   29.7000   24.7440 H         1 NAP501      0.0000 
     68 H2N       -76.1840   28.3030   23.8890 H         1 NAP501      0.0000 
     69 H71N      -79.0620   26.9390   22.4390 H         1 NAP501      0.0000 
     70 H72N      -78.1650   27.6900   23.3610 H         1 NAP501      0.0000 
     71 H4N       -75.0000   26.9130   20.3530 H         1 NAP501      0.0000 
     72 H5N       -72.8920   27.6710   20.7790 H         1 NAP501      0.0000 
     73 H6N       -72.4200   28.7930   22.7370 H         1 NAP501      0.0000 
@<TRIPOS>BOND
     1    1    2 ar   
     2    1    3 ar   
     3    1    4 1    
     4    1   23 1    
     5    4    5 1    
     6    5    6 1    
     7    5   49 1    
     8    5   50 1    
     9    6    7 1    
    10    6    8 1    
    11    6   51 1    
    12    7   12 1    
    13    8    9 1    
    14    8   10 1    
    15    8   52 1    
    16    9   53 1    
    17   10   11 1    
    18   10   12 1    
    19   10   54 1    
    20   12   55 1    
    21   11   45 1    
    22   12   13 1    
    23   13   14 1    
    24   13   22 1    
    25   14   15 2    
    26   15   16 1    
    27   14   56 1    
    28   16   17 ar   
    29   16   22 ar   
    30   17   18 1    
    31   17   19 ar   
    32   19   20 ar   
    33   18   57 1    
    34   18   58 1    
    35   20   21 ar   
    36   21   22 ar   
    37   20   59 1    
    38   23   24 1    
    39   24   25 ar   
    40   24   26 ar   
    41   24   27 1    
    42   27   28 1    
    43   28   29 1    
    44   28   60 1    
    45   28   61 1    
    46   29   30 1    
    47   29   31 1    
    48   29   62 1    
    49   30   35 1    
    50   31   32 1    
    51   31   33 1    
    52   31   63 1    
    53   32   64 1    
    54   33   34 1    
    55   33   35 1    
    56   33   65 1    
    57   35   67 1    
    58   35   36 1    
    59   34   66 1    
    60   36   37 ar   
    61   36   44 ar   
    62   37   38 ar   
    63   38   39 1    
    64   37   68 1    
    65   38   42 ar   
    66   39   40 2    
    67   39   41 am   
    68   42   43 ar   
    69   41   69 1    
    70   41   70 1    
    71   43   44 ar   
    72   42   71 1    
    73   45   46 ar   
    74   43   72 1    
    75   44   73 1    
    76   45   47 ar   
    77   45   48 ar   
@<TRIPOS>SUBSTRUCTURE
     1 NAP501      1 GROUP   
@<TRIPOS>SET
ATOM$ORANGE STATIC     ATOMS   COLORGROUP SYSTEM 
42 5 5 6 6 8 8 10 10 12 12 14 14 16 16 17 17 20 \
20 22 22 28 28 29 29 31 31 33 33 35 35 37 37 38 38 39 \
39 42 42 43 43 44 44 

