#    Name: 6pbm_1_NAP
#    Modification time : Fri May 22 19:30:15 2020

@<TRIPOS>MOLECULE
6pbm_1_NAP
   48    52     1     0     1
SMALL
NO_CHARGES


@<TRIPOS>ATOM
      1 PA        -71.4310   38.1930  -33.2480 P.3       1 NAP501      0.0000 
      2 O1A       -72.5950   38.9840  -32.6550 O.co2     1 NAP501      0.0000 
      3 O2A       -71.5700   36.6870  -33.2380 O.co2     1 NAP501      0.0000 
      4 O5B       -71.1180   38.8510  -34.7060 O.3       1 NAP501      0.0000 
      5 C5B       -70.0780   38.2720  -35.4780 C.3       1 NAP501      0.0000 
      6 C4B       -70.3790   38.6610  -36.9360 C.3       1 NAP501      0.0000 
      7 O4B       -69.4390   38.1560  -37.7450 O.3       1 NAP501      0.0000 
      8 C3B       -71.7320   38.0540  -37.3160 C.3       1 NAP501      0.0000 
      9 O3B       -72.4130   38.8820  -38.1810 O.3       1 NAP501      0.0000 
     10 C2B       -71.2400   36.7650  -38.0250 C.3       1 NAP501      0.0000 
     11 O2B       -72.2960   36.3160  -38.9740 O.3       1 NAP501      0.0000 
     12 C1B       -70.0600   37.0000  -38.6270 C.3       1 NAP501      0.0000 
     13 N9A       -69.1550   35.8410  -38.4940 N.pl3     1 NAP501      0.0000 
     14 C8A       -69.0030   34.9430  -37.5270 C.2       1 NAP501      0.0000 
     15 N7A       -68.0600   34.0410  -37.8660 N.2       1 NAP501      0.0000 
     16 C5A       -67.6230   34.3890  -39.0820 C.ar      1 NAP501      0.0000 
     17 C6A       -66.6620   33.8330  -39.8930 C.ar      1 NAP501      0.0000 
     18 N6A       -65.8760   32.6510  -39.6130 N.pl3     1 NAP501      0.0000 
     19 N1A       -66.4150   34.3680  -41.1030 N.ar      1 NAP501      0.0000 
     20 C2A       -67.0680   35.4850  -41.5050 C.ar      1 NAP501      0.0000 
     21 N3A       -67.9990   36.0500  -40.6690 N.ar      1 NAP501      0.0000 
     22 C4A       -68.2760   35.5070  -39.4730 C.ar      1 NAP501      0.0000 
     23 O3        -69.9820   38.3570  -32.4800 O.3       1 NAP501      0.0000 
     24 PN        -69.6040   39.6810  -31.5640 P.3       1 NAP501      0.0000 
     25 O1N       -69.9770   40.8760  -32.3800 O.co2     1 NAP501      0.0000 
     26 O2N       -70.3500   39.5300  -30.2480 O.co2     1 NAP501      0.0000 
     27 O5D       -67.9940   39.4890  -31.3270 O.3       1 NAP501      0.0000 
     28 C5D       -67.0610   39.6790  -32.3570 C.3       1 NAP501      0.0000 
     29 C4D       -65.6440   39.5810  -31.7250 C.3       1 NAP501      0.0000 
     30 O4D       -65.5300   40.4410  -30.6830 O.3       1 NAP501      0.0000 
     31 C3D       -65.3460   38.1730  -31.1490 C.3       1 NAP501      0.0000 
     32 O3D       -64.0100   37.8950  -31.2700 O.3       1 NAP501      0.0000 
     33 C2D       -65.5700   38.4180  -29.6680 C.3       1 NAP501      0.0000 
     34 O2D       -64.9610   37.2890  -28.8840 O.3       1 NAP501      0.0000 
     35 C1D       -65.0220   39.6090  -29.4460 C.3       1 NAP501      0.0000 
     36 N1N       -65.6050   40.1470  -28.2340 N.pl3     1 NAP501      0.0000 
     37 C2N       -66.9200   40.5180  -28.1730 C.ar      1 NAP501      0.0000 
     38 C3N       -67.4440   40.9430  -26.9720 C.ar      1 NAP501      0.0000 
     39 C7N       -68.8890   41.3840  -26.8610 C.2       1 NAP501      0.0000 
     40 O7N       -69.3030   41.9280  -25.8730 O.2       1 NAP501      0.0000 
     41 N7N       -69.7780   41.1770  -27.9610 N.am      1 NAP501      0.0000 
     42 C4N       -66.6430   41.0000  -25.8550 C.ar      1 NAP501      0.0000 
     43 C5N       -65.3330   40.6390  -25.9440 C.ar      1 NAP501      0.0000 
     44 C6N       -64.8150   40.1850  -27.1380 C.ar      1 NAP501      0.0000 
     45 P2B       -72.8680   34.7960  -38.7840 P.3       1 NAP501      0.0000 
     46 O1X       -73.4680   34.6990  -37.4280 O.co2     1 NAP501      0.0000 
     47 O2X       -73.8460   34.6500  -39.9360 O.co2     1 NAP501      0.0000 
     48 O3X       -71.6870   33.8860  -38.9690 O.co2     1 NAP501      0.0000 
@<TRIPOS>BOND
     1    1    2 ar   
     2    1    3 ar   
     3    1    4 1    
     4    1   23 1    
     5    4    5 1    
     6    5    6 1    
     7    6    7 1    
     8    6    8 1    
     9    7   12 1    
    10    8    9 1    
    11    8   10 1    
    12   10   11 1    
    13   10   12 1    
    14   11   45 1    
    15   12   13 1    
    16   13   14 1    
    17   13   22 1    
    18   14   15 2    
    19   15   16 1    
    20   16   17 ar   
    21   16   22 ar   
    22   17   18 1    
    23   17   19 ar   
    24   19   20 ar   
    25   20   21 ar   
    26   21   22 ar   
    27   23   24 1    
    28   24   25 ar   
    29   24   26 ar   
    30   24   27 1    
    31   27   28 1    
    32   28   29 1    
    33   29   30 1    
    34   29   31 1    
    35   30   35 1    
    36   31   32 1    
    37   31   33 1    
    38   33   34 1    
    39   33   35 1    
    40   35   36 1    
    41   36   37 ar   
    42   36   44 ar   
    43   37   38 ar   
    44   38   39 1    
    45   38   42 ar   
    46   39   40 2    
    47   39   41 am   
    48   42   43 ar   
    49   43   44 ar   
    50   45   46 ar   
    51   45   47 ar   
    52   45   48 ar   
@<TRIPOS>SUBSTRUCTURE
     1 NAP501      1 GROUP   
@<TRIPOS>SET
ATOM$ORANGE STATIC     ATOMS   COLORGROUP SYSTEM 
42 5 5 6 6 8 8 10 10 12 12 14 14 16 16 17 17 20 \
20 22 22 28 28 29 29 31 31 33 33 35 35 37 37 38 38 39 \
39 42 42 43 43 44 44 

