#    Name: 6pbm_2_NAP_CAVITY_N1_ALL
#    Modification time : Fri May 22 19:30:25 2020

@<TRIPOS>MOLECULE
6pbm_2_NAP_CAVITY_N1_ALL
   73     0     6     0     0
SMALL
NO_CHARGES


@<TRIPOS>ATOM
      1 OG        -70.0900   29.9500   22.2600 O.3       1 SER1        0.0000 
      2 OG        -69.8200   30.2200   23.7200 O.3       1 SER1        0.0000 
      3 OG        -71.2700   30.5500   23.9200 O.3       1 SER1        0.0000 
      4 OG        -71.5500   29.1100   24.2400 O.3       1 SER1        0.0000 
      5 OG        -71.0100   30.8200   25.3700 O.3       1 SER1        0.0000 
      6 N         -77.3600   29.2400   26.8300 N.am      2 ALA2        0.0000 
      7 O         -72.2000   31.4200   27.0200 O.2       2 ALA2        0.0000 
      8 O         -72.4700   29.9800   27.3400 O.2       2 ALA2        0.0000 
      9 O         -75.3700   30.6300   27.7500 O.2       2 ALA2        0.0000 
     10 N         -72.7500   28.5400   27.6700 N.am      2 ALA2        0.0000 
     11 N         -74.2000   28.8600   27.8700 N.am      2 ALA2        0.0000 
     12 N         -75.6500   29.1900   28.0700 N.am      2 ALA2        0.0000 
     13 N         -77.1000   29.5100   28.2800 N.am      2 ALA2        0.0000 
     14 OD1       -76.1500   30.9700   21.6300 O.co2     3 ASP3        0.0000 
     15 OD1       -76.4300   29.5300   21.9500 O.co2     3 ASP3        0.0000 
     16 OD1       -77.6200   30.1300   23.6000 O.co2     3 ASP3        0.0000 
     17 OD1       -69.5500   31.6600   23.3900 O.co2     3 ASP3        0.0000 
     18 OD1       -76.8100   32.1100   26.1800 O.co2     3 ASP3        0.0000 
     19 OD1       -78.2600   32.4400   26.3800 O.co2     3 ASP3        0.0000 
     20 OD1       -78.0000   32.7100   27.8300 O.co2     3 ASP3        0.0000 
     21 NZ        -71.2600   31.7100   22.1500 N.4       4 LYS4        0.0000 
     22 NZ        -72.7100   32.0300   22.3500 N.4       4 LYS4        0.0000 
     23 NZ        -74.1600   32.3600   22.5500 N.4       4 LYS4        0.0000 
     24 NZ        -72.9900   30.6000   22.6700 N.4       4 LYS4        0.0000 
     25 NZ        -71.0000   31.9900   23.6000 N.4       4 LYS4        0.0000 
     26 NZ        -72.7200   30.8700   24.1200 N.4       4 LYS4        0.0000 
     27 NZ        -74.1800   31.1900   24.3200 N.4       4 LYS4        0.0000 
     28 NZ        -69.2800   31.9400   24.8400 N.4       4 LYS4        0.0000 
     29 NZ        -72.4600   31.1400   25.5700 N.4       4 LYS4        0.0000 
     30 NZ        -73.9100   31.4700   25.7700 N.4       4 LYS4        0.0000 
     31 NZ        -75.3600   31.7900   25.9800 N.4       4 LYS4        0.0000 
     32 CA        -71.7900   31.1600   19.2400 C.3       5 GLY6        0.0000 
     33 CA        -70.0800   31.1100   20.4900 C.3       5 GLY6        0.0000 
     34 CA        -71.5300   31.4400   20.6900 C.3       5 GLY6        0.0000 
     35 CA        -70.3500   29.6800   20.8100 C.3       5 GLY6        0.0000 
     36 CA        -73.5400   27.7200   23.3100 C.3       5 GLY6        0.0000 
     37 CA        -74.9900   28.0400   23.5200 C.3       5 GLY6        0.0000 
     38 CA        -76.4400   28.3600   23.7200 C.3       5 GLY6        0.0000 
     39 CA        -75.2700   26.6000   23.8400 C.3       5 GLY6        0.0000 
     40 CA        -75.6300   31.5200   24.5300 C.3       5 GLY6        0.0000 
     41 CA        -77.0800   31.8400   24.7300 C.3       5 GLY6        0.0000 
     42 CA        -73.2800   27.9900   24.7700 C.3       5 GLY6        0.0000 
     43 CA        -74.7300   28.3100   24.9700 C.3       5 GLY6        0.0000 
     44 CA        -76.1800   28.6400   25.1700 C.3       5 GLY6        0.0000 
     45 CA        -77.6300   28.9600   25.3700 C.3       5 GLY6        0.0000 
     46 CA        -73.5500   26.5500   25.0900 C.3       5 GLY6        0.0000 
     47 CA        -71.2900   29.3800   25.6900 C.3       5 GLY6        0.0000 
     48 CA        -72.7400   29.7100   25.8900 C.3       5 GLY6        0.0000 
     49 CA        -73.0100   28.2700   26.2200 C.3       5 GLY6        0.0000 
     50 CA        -74.4600   28.5900   26.4200 C.3       5 GLY6        0.0000 
     51 CA        -75.9100   28.9100   26.6200 C.3       5 GLY6        0.0000 
     52 CA        -73.2900   26.8300   26.5400 C.3       5 GLY6        0.0000 
     53 CA        -74.7400   27.1500   26.7400 C.3       5 GLY6        0.0000 
     54 CA        -77.6400   27.8000   27.1500 C.3       5 GLY6        0.0000 
     55 CA        -73.6500   31.7400   27.2300 C.3       5 GLY6        0.0000 
     56 CA        -75.1000   32.0600   27.4300 C.3       5 GLY6        0.0000 
     57 CA        -76.5500   32.3900   27.6300 C.3       5 GLY6        0.0000 
     58 CA        -73.9200   30.3000   27.5500 C.3       5 GLY6        0.0000 
     59 CA        -76.8200   30.9500   27.9500 C.3       5 GLY6        0.0000 
     60 DU        -71.8000   30.0000   21.0200 H         6 CUB7        0.0000 
     61 DU        -71.5400   30.2700   22.4700 H         6 CUB7        0.0000 
     62 DU        -74.4400   30.9200   22.8700 H         6 CUB7        0.0000 
     63 DU        -75.8900   31.2400   23.0800 H         6 CUB7        0.0000 
     64 DU        -73.2600   29.1600   22.9900 H         6 CUB7        0.0000 
     65 DU        -76.1700   29.8000   23.4000 H         6 CUB7        0.0000 
     66 DU        -73.0000   29.4300   24.4400 H         6 CUB7        0.0000 
     67 DU        -74.4500   29.7500   24.6500 H         6 CUB7        0.0000 
     68 DU        -75.9000   30.0800   24.8500 H         6 CUB7        0.0000 
     69 DU        -77.3500   30.4000   25.0500 H         6 CUB7        0.0000 
     70 DU        -74.1900   30.0300   26.1000 H         6 CUB7        0.0000 
     71 DU        -75.6400   30.3500   26.3000 H         6 CUB7        0.0000 
     72 DU        -77.0900   30.6700   26.5000 H         6 CUB7        0.0000 
     73 DU        -78.5400   31.0000   26.7100 H         6 CUB7        0.0000 
@<TRIPOS>BOND
@<TRIPOS>SUBSTRUCTURE
     1 SER1        1 GROUP   
     2 ALA2        6 GROUP   
     3 ASP3       14 GROUP   
     4 LYS4       21 GROUP   
     5 GLY6       32 GROUP   
     6 CUB7       60 GROUP   
@<TRIPOS>SET

