#    Name: 6awt_1_28E
#    Modification time : Fri May 22 19:27:13 2020

@<TRIPOS>MOLECULE
6awt_1_28E
   21    23     1     0     0
SMALL
NO_CHARGES


@<TRIPOS>ATOM
      1 OAB        27.6160   20.3750   12.9190 O.3       1 28E601      0.0000 
      2 CAT        26.8770   19.3500   12.3940 C.ar      1 28E601      0.0000 
      3 CAK        25.7420   19.6680   11.6590 C.ar      1 28E601      0.0000 
      4 CAY        24.9940   18.6390   11.1200 C.ar      1 28E601      0.0000 
      5 OAG        23.8950   18.9810   10.4050 O.3       1 28E601      0.0000 
      6 CBD        25.3660   17.3090   11.3060 C.ar      1 28E601      0.0000 
      7 CAP        24.5480   16.2030   10.6960 C.3       1 28E601      0.0000 
      8 CAN        27.2540   18.0110   12.5740 C.ar      1 28E601      0.0000 
      9 CBC        26.4930   16.9690   12.0350 C.ar      1 28E601      0.0000 
     10 OAR        26.8320   15.6290   12.2290 O.3       1 28E601      0.0000 
     11 CBF        25.7500   14.6820   12.2480 C.3       1 28E601      0.0000 
     12 CBE        25.2380   14.8330   10.8200 C.3       1 28E601      0.0000 
     13 OAQ        26.3120   14.6510    9.8650 O.3       1 28E601      0.0000 
     14 CBA        26.0660   13.2500   12.4520 C.ar      1 28E601      0.0000 
     15 CAO        25.2340   12.3990   13.2030 C.ar      1 28E601      0.0000 
     16 CAV        25.5680   11.0270   13.3200 C.ar      1 28E601      0.0000 
     17 OAD        24.8380   10.0930   14.0450 O.3       1 28E601      0.0000 
     18 CAU        26.6950   10.5360   12.6970 C.ar      1 28E601      0.0000 
     19 OAC        27.0310    9.2000   12.8190 O.3       1 28E601      0.0000 
     20 CAI        27.5020   11.3790   11.9500 C.ar      1 28E601      0.0000 
     21 CAJ        27.1810   12.7260   11.8140 C.ar      1 28E601      0.0000 
@<TRIPOS>BOND
     1    1    2 1    
     2    2    3 ar   
     3    2    8 ar   
     4    3    4 ar   
     5    4    5 1    
     6    4    6 ar   
     7    6    7 1    
     8    6    9 ar   
     9    7   12 1    
    10    8    9 ar   
    11    9   10 1    
    12   10   11 1    
    13   11   12 1    
    14   11   14 1    
    15   12   13 1    
    16   14   15 ar   
    17   14   21 ar   
    18   15   16 ar   
    19   16   17 1    
    20   16   18 ar   
    21   18   19 1    
    22   18   20 ar   
    23   20   21 ar   
@<TRIPOS>SUBSTRUCTURE
     1 28E601      1 GROUP   
@<TRIPOS>SET

