#    Name: 6awt_3_28E
#    Modification time : Fri May 22 19:27:18 2020

@<TRIPOS>MOLECULE
6awt_3_28E
   21    23     1     0     0
SMALL
NO_CHARGES


@<TRIPOS>ATOM
      1 OAB        28.8580   17.3420   35.4530 O.3       1 28E201      0.0000 
      2 CAT        27.8110   17.9540   36.0840 C.ar      1 28E201      0.0000 
      3 CAK        26.9440   17.1770   36.8470 C.ar      1 28E201      0.0000 
      4 CAY        25.8870   17.7990   37.4800 C.ar      1 28E201      0.0000 
      5 OAG        25.0020   17.0990   38.2340 O.3       1 28E201      0.0000 
      6 CBD        25.7120   19.1540   37.3590 C.ar      1 28E201      0.0000 
      7 CAP        24.5440   19.7420   38.0730 C.3       1 28E201      0.0000 
      8 CAN        27.6200   19.3410   35.9830 C.ar      1 28E201      0.0000 
      9 CBC        26.5550   19.9610   36.6220 C.ar      1 28E201      0.0000 
     10 OAR        26.2810   21.3320   36.5140 O.3       1 28E201      0.0000 
     11 CBF        24.8740   21.6800   36.5260 C.3       1 28E201      0.0000 
     12 CBE        24.4780   21.2490   37.9170 C.3       1 28E201      0.0000 
     13 OAQ        25.3300   21.8880   38.8640 O.3       1 28E201      0.0000 
     14 CBA        24.4230   23.0840   36.3820 C.ar      1 28E201      0.0000 
     15 CAO        23.2470   23.4360   35.6840 C.ar      1 28E201      0.0000 
     16 CAV        22.9120   24.7960   35.6000 C.ar      1 28E201      0.0000 
     17 OAD        21.8210   25.3640   34.9860 O.3       1 28E201      0.0000 
     18 CAU        23.6500   25.7760   36.1840 C.ar      1 28E201      0.0000 
     19 OAC        23.2110   27.1100   36.0760 O.3       1 28E201      0.0000 
     20 CAI        24.7730   25.4060   36.8700 C.ar      1 28E201      0.0000 
     21 CAJ        25.1550   24.0650   36.9860 C.ar      1 28E201      0.0000 
@<TRIPOS>BOND
     1    1    2 1    
     2    2    3 ar   
     3    2    8 ar   
     4    3    4 ar   
     5    4    5 1    
     6    4    6 ar   
     7    6    7 1    
     8    6    9 ar   
     9    7   12 1    
    10    8    9 ar   
    11    9   10 1    
    12   10   11 1    
    13   11   12 1    
    14   11   14 1    
    15   12   13 1    
    16   14   15 ar   
    17   14   21 ar   
    18   15   16 ar   
    19   16   17 1    
    20   16   18 ar   
    21   18   19 1    
    22   18   20 ar   
    23   20   21 ar   
@<TRIPOS>SUBSTRUCTURE
     1 28E201      1 GROUP   
@<TRIPOS>SET

