#    Name: 6awt_4_28E
#    Modification time : Fri May 22 19:27:23 2020

@<TRIPOS>MOLECULE
6awt_4_28E
   21    23     1     0     0
SMALL
NO_CHARGES


@<TRIPOS>ATOM
      1 OAB        49.5090   52.0990   12.5020 O.3       1 28E201      0.0000 
      2 CAT        49.2580   50.9190   11.8580 C.ar      1 28E201      0.0000 
      3 CAK        48.2000   50.9780   10.9800 C.ar      1 28E201      0.0000 
      4 CAY        47.8400   49.8690   10.2640 C.ar      1 28E201      0.0000 
      5 OAG        46.8090   49.9840    9.3870 O.3       1 28E201      0.0000 
      6 CBD        48.5400   48.6920   10.4310 C.ar      1 28E201      0.0000 
      7 CAP        48.0980   47.5030    9.6250 C.3       1 28E201      0.0000 
      8 CAN        49.9770   49.7160   12.0400 C.ar      1 28E201      0.0000 
      9 CBC        49.6230   48.5840   11.3050 C.ar      1 28E201      0.0000 
     10 OAR        50.2530   47.3420   11.4610 O.3       1 28E201      0.0000 
     11 CBF        49.3380   46.2160   11.4610 C.3       1 28E201      0.0000 
     12 CBE        48.8440   46.2240   10.0060 C.3       1 28E201      0.0000 
     13 OAQ        49.9660   46.1320    9.1290 O.3       1 28E201      0.0000 
     14 CBA        49.7440   44.8030   11.6640 C.ar      1 28E201      0.0000 
     15 CAO        49.0360   44.0160   12.5590 C.ar      1 28E201      0.0000 
     16 CAV        49.3860   42.6790   12.6880 C.ar      1 28E201      0.0000 
     17 OAD        48.7380   41.8690   13.5830 O.3       1 28E201      0.0000 
     18 CAU        50.4020   42.1420   11.9010 C.ar      1 28E201      0.0000 
     19 OAC        50.7800   40.8460   11.9870 O.3       1 28E201      0.0000 
     20 CAI        51.0750   42.9210   10.9950 C.ar      1 28E201      0.0000 
     21 CAJ        50.7330   44.2440   10.8590 C.ar      1 28E201      0.0000 
@<TRIPOS>BOND
     1    1    2 1    
     2    2    3 ar   
     3    2    8 ar   
     4    3    4 ar   
     5    4    5 1    
     6    4    6 ar   
     7    6    7 1    
     8    6    9 ar   
     9    7   12 1    
    10    8    9 ar   
    11    9   10 1    
    12   10   11 1    
    13   11   12 1    
    14   11   14 1    
    15   12   13 1    
    16   14   15 ar   
    17   14   21 ar   
    18   15   16 ar   
    19   16   17 1    
    20   16   18 ar   
    21   18   19 1    
    22   18   20 ar   
    23   20   21 ar   
@<TRIPOS>SUBSTRUCTURE
     1 28E201      1 GROUP   
@<TRIPOS>SET

