#    Name: 6awt_5_28E
#    Modification time : Fri May 22 19:27:26 2020

@<TRIPOS>MOLECULE
6awt_5_28E
   21    23     1     0     0
SMALL
NO_CHARGES


@<TRIPOS>ATOM
      1 OAB        57.6110   39.6320   13.7550 O.3       1 28E202      0.0000 
      2 CAT        58.4960   40.3700   13.0430 C.ar      1 28E202      0.0000 
      3 CAK        59.7940   39.9170   12.9080 C.ar      1 28E202      0.0000 
      4 CAY        60.6990   40.6730   12.1730 C.ar      1 28E202      0.0000 
      5 OAG        61.9670   40.2340   11.9880 O.3       1 28E202      0.0000 
      6 CBD        60.3190   41.8600   11.5970 C.ar      1 28E202      0.0000 
      7 CAP        61.3210   42.6340   10.7810 C.3       1 28E202      0.0000 
      8 CAN        58.1130   41.5660   12.4680 C.ar      1 28E202      0.0000 
      9 CBC        59.0280   42.3040   11.7430 C.ar      1 28E202      0.0000 
     10 OAR        58.6730   43.4800   11.1770 O.3       1 28E202      0.0000 
     11 CBF        59.6190   44.5380   10.9950 C.3       1 28E202      0.0000 
     12 CBE        61.0970   44.1380   10.8800 C.3       1 28E202      0.0000 
     13 OAQ        61.8010   44.8630    9.8360 O.3       1 28E202      0.0000 
     14 CBA        59.0870   45.1740    9.8040 C.ar      1 28E202      0.0000 
     15 CAO        59.6110   46.3400    9.3090 C.ar      1 28E202      0.0000 
     16 CAV        59.0300   46.8960    8.1910 C.ar      1 28E202      0.0000 
     17 OAD        59.5910   48.0300    7.7120 O.3       1 28E202      0.0000 
     18 CAU        57.9380   46.2760    7.5780 C.ar      1 28E202      0.0000 
     19 OAC        57.3370   46.7900    6.4730 O.3       1 28E202      0.0000 
     20 CAI        57.4260   45.0960    8.1030 C.ar      1 28E202      0.0000 
     21 CAJ        57.9950   44.5550    9.2320 C.ar      1 28E202      0.0000 
@<TRIPOS>BOND
     1    1    2 1    
     2    2    3 ar   
     3    2    8 ar   
     4    3    4 ar   
     5    4    5 1    
     6    4    6 ar   
     7    6    7 1    
     8    6    9 ar   
     9    7   12 1    
    10    8    9 ar   
    11    9   10 1    
    12   10   11 1    
    13   11   12 1    
    14   11   14 1    
    15   12   13 1    
    16   14   15 ar   
    17   14   21 ar   
    18   15   16 ar   
    19   16   17 1    
    20   16   18 ar   
    21   18   19 1    
    22   18   20 ar   
    23   20   21 ar   
@<TRIPOS>SUBSTRUCTURE
     1 28E202      1 GROUP   
@<TRIPOS>SET

