#    Name: 6awt_6_28E
#    Modification time : Fri May 22 19:27:32 2020

@<TRIPOS>MOLECULE
6awt_6_28E
   21    23     1     0     0
SMALL
NO_CHARGES


@<TRIPOS>ATOM
      1 OAB        55.6870   48.4080   34.5420 O.3       1 28E201      0.0000 
      2 CAT        54.6610   48.9600   35.2540 C.ar      1 28E201      0.0000 
      3 CAK        53.7810   48.1120   35.9530 C.ar      1 28E201      0.0000 
      4 CAY        52.7280   48.6560   36.6890 C.ar      1 28E201      0.0000 
      5 OAG        51.8560   47.8760   37.3810 O.3       1 28E201      0.0000 
      6 CBD        52.5670   50.0240   36.7160 C.ar      1 28E201      0.0000 
      7 CAP        51.4070   50.5560   37.5290 C.3       1 28E201      0.0000 
      8 CAN        54.4940   50.3490   35.2780 C.ar      1 28E201      0.0000 
      9 CBC        53.4440   50.8840   36.0180 C.ar      1 28E201      0.0000 
     10 OAR        53.2120   52.2570   36.0350 O.3       1 28E201      0.0000 
     11 CBF        51.8000   52.6160   36.1030 C.3       1 28E201      0.0000 
     12 CBE        51.4070   52.0850   37.4820 C.3       1 28E201      0.0000 
     13 OAQ        52.3790   52.5470   38.4200 O.3       1 28E201      0.0000 
     14 CBA        51.5240   54.0540   35.9350 C.ar      1 28E201      0.0000 
     15 CAO        50.3700   54.4750   35.2630 C.ar      1 28E201      0.0000 
     16 CAV        50.1360   55.8290   35.0960 C.ar      1 28E201      0.0000 
     17 OAD        49.0220   56.3280   34.4580 O.3       1 28E201      0.0000 
     18 CAU        50.9900   56.7770   35.5980 C.ar      1 28E201      0.0000 
     19 OAC        50.6550   58.1240   35.4000 O.3       1 28E201      0.0000 
     20 CAI        52.1350   56.3590   36.2590 C.ar      1 28E201      0.0000 
     21 CAJ        52.4110   55.0020   36.4440 C.ar      1 28E201      0.0000 
@<TRIPOS>BOND
     1    1    2 1    
     2    2    3 ar   
     3    2    8 ar   
     4    3    4 ar   
     5    4    5 1    
     6    4    6 ar   
     7    6    7 1    
     8    6    9 ar   
     9    7   12 1    
    10    8    9 ar   
    11    9   10 1    
    12   10   11 1    
    13   11   12 1    
    14   11   14 1    
    15   12   13 1    
    16   14   15 ar   
    17   14   21 ar   
    18   15   16 ar   
    19   16   17 1    
    20   16   18 ar   
    21   18   19 1    
    22   18   20 ar   
    23   20   21 ar   
@<TRIPOS>SUBSTRUCTURE
     1 28E201      1 GROUP   
@<TRIPOS>SET

