#    Name: 6iaq_4_NAP
#    Modification time : Fri May 22 19:25:05 2020

@<TRIPOS>MOLECULE
6iaq_4_NAP
   48    52     1     0     1
SMALL
NO_CHARGES


@<TRIPOS>ATOM
      1 PA         55.8610    8.2750  -36.1340 P.3       1 NAP402      0.0000 
      2 O1A        57.2650    7.7910  -36.2330 O.co2     1 NAP402      0.0000 
      3 O2A        55.5670    9.4840  -35.3050 O.co2     1 NAP402      0.0000 
      4 O5B        55.3110    8.6260  -37.6440 O.3       1 NAP402      0.0000 
      5 C5B        54.0010    9.1930  -37.9340 C.3       1 NAP402      0.0000 
      6 C4B        54.0100    9.8930  -39.3190 C.3       1 NAP402      0.0000 
      7 O4B        52.8430   10.6750  -39.5910 O.3       1 NAP402      0.0000 
      8 C3B        55.1420   10.8770  -39.4710 C.3       1 NAP402      0.0000 
      9 O3B        55.9620   10.4720  -40.5660 O.3       1 NAP402      0.0000 
     10 C2B        54.5050   12.2320  -39.7240 C.3       1 NAP402      0.0000 
     11 O2B        55.1310   13.0580  -40.6940 O.3       1 NAP402      0.0000 
     12 C1B        53.2420   11.8010  -40.3480 C.3       1 NAP402      0.0000 
     13 N9A        52.1220   12.7650  -40.3770 N.pl3     1 NAP402      0.0000 
     14 C8A        51.5220   13.4770  -39.3750 C.2       1 NAP402      0.0000 
     15 N7A        50.4490   14.1400  -39.8890 N.2       1 NAP402      0.0000 
     16 C5A        50.3890   13.8520  -41.2160 C.ar      1 NAP402      0.0000 
     17 C6A        49.5260   14.2070  -42.3760 C.ar      1 NAP402      0.0000 
     18 N6A        48.4960   15.0440  -42.1820 N.pl3     1 NAP402      0.0000 
     19 N1A        49.7790   13.6600  -43.5970 N.ar      1 NAP402      0.0000 
     20 C2A        50.8140   12.8060  -43.7860 C.ar      1 NAP402      0.0000 
     21 N3A        51.6600   12.4380  -42.7930 N.ar      1 NAP402      0.0000 
     22 C4A        51.4810   12.9390  -41.5260 C.ar      1 NAP402      0.0000 
     23 O3         54.7300    7.2620  -35.5660 O.3       1 NAP402      0.0000 
     24 PN         54.6680    5.6450  -35.8020 P.3       1 NAP402      0.0000 
     25 O1N        55.4840    4.8450  -34.8610 O.co2     1 NAP402      0.0000 
     26 O2N        54.9200    5.3650  -37.2860 O.co2     1 NAP402      0.0000 
     27 O5D        53.1340    5.4100  -35.6560 O.3       1 NAP402      0.0000 
     28 C5D        52.2520    6.1490  -36.4600 C.3       1 NAP402      0.0000 
     29 C4D        50.8780    5.8420  -35.9140 C.3       1 NAP402      0.0000 
     30 O4D        50.5570    4.4350  -35.9640 O.3       1 NAP402      0.0000 
     31 C3D        50.7590    6.2550  -34.4490 C.3       1 NAP402      0.0000 
     32 O3D        49.4950    6.9230  -34.3010 O.3       1 NAP402      0.0000 
     33 C2D        50.7790    4.9270  -33.6780 C.3       1 NAP402      0.0000 
     34 O2D        49.9800    5.0920  -32.5200 O.3       1 NAP402      0.0000 
     35 C1D        50.1250    3.9620  -34.6930 C.3       1 NAP402      0.0000 
     36 N1N        50.5650    2.5850  -34.4730 N.pl3     1 NAP402      0.0000 
     37 C2N        49.6800    1.6170  -34.4140 C.ar      1 NAP402      0.0000 
     38 C3N        50.0410    0.2750  -34.1680 C.ar      1 NAP402      0.0000 
     39 C7N        49.0770   -0.8560  -34.1150 C.2       1 NAP402      0.0000 
     40 O7N        49.4540   -1.9500  -33.7230 O.2       1 NAP402      0.0000 
     41 N7N        47.8270   -0.7000  -34.5430 N.am      1 NAP402      0.0000 
     42 C4N        51.3500    0.0190  -33.9630 C.ar      1 NAP402      0.0000 
     43 C5N        52.2550    1.0270  -34.0310 C.ar      1 NAP402      0.0000 
     44 C6N        51.8590    2.3370  -34.3000 C.ar      1 NAP402      0.0000 
     45 P2B        56.5680   13.7080  -40.4300 P.3       1 NAP402      0.0000 
     46 O1X        57.4800   12.4950  -40.3470 O.co2     1 NAP402      0.0000 
     47 O2X        56.8100   14.4920  -41.7440 O.co2     1 NAP402      0.0000 
     48 O3X        56.3720   14.5200  -39.1220 O.co2     1 NAP402      0.0000 
@<TRIPOS>BOND
     1    1    2 ar   
     2    1    3 ar   
     3    1    4 1    
     4    1   23 1    
     5    4    5 1    
     6    5    6 1    
     7    6    7 1    
     8    6    8 1    
     9    7   12 1    
    10    8    9 1    
    11    8   10 1    
    12   10   11 1    
    13   10   12 1    
    14   11   45 1    
    15   12   13 1    
    16   13   14 1    
    17   13   22 1    
    18   14   15 2    
    19   15   16 1    
    20   16   17 ar   
    21   16   22 ar   
    22   17   18 1    
    23   17   19 ar   
    24   19   20 ar   
    25   20   21 ar   
    26   21   22 ar   
    27   23   24 1    
    28   24   25 ar   
    29   24   26 ar   
    30   24   27 1    
    31   27   28 1    
    32   28   29 1    
    33   29   30 1    
    34   29   31 1    
    35   30   35 1    
    36   31   32 1    
    37   31   33 1    
    38   33   34 1    
    39   33   35 1    
    40   35   36 1    
    41   36   37 ar   
    42   36   44 ar   
    43   37   38 ar   
    44   38   39 1    
    45   38   42 ar   
    46   39   40 2    
    47   39   41 am   
    48   42   43 ar   
    49   43   44 ar   
    50   45   46 ar   
    51   45   47 ar   
    52   45   48 ar   
@<TRIPOS>SUBSTRUCTURE
     1 NAP402      1 GROUP   
@<TRIPOS>SET
ATOM$ORANGE STATIC     ATOMS   COLORGROUP SYSTEM 
42 5 5 6 6 8 8 10 10 12 12 14 14 16 16 17 17 20 \
20 22 22 28 28 29 29 31 31 33 33 35 35 37 37 38 38 39 \
39 42 42 43 43 44 44 

