#    Name: 6iaq_3_NAP
#    Modification time : Fri May 22 19:24:58 2020

@<TRIPOS>MOLECULE
6iaq_3_NAP
   48    52     1     0     1
SMALL
NO_CHARGES


@<TRIPOS>ATOM
      1 PA         35.5970  -42.7680    2.4260 P.3       1 NAP402      0.0000 
      2 O1A        35.9610  -42.1970    1.0490 O.co2     1 NAP402      0.0000 
      3 O2A        35.0410  -44.1220    2.6880 O.co2     1 NAP402      0.0000 
      4 O5B        37.0010  -42.5970    3.2530 O.3       1 NAP402      0.0000 
      5 C5B        37.1640  -43.3500    4.4490 C.3       1 NAP402      0.0000 
      6 C4B        38.6390  -43.5750    4.6410 C.3       1 NAP402      0.0000 
      7 O4B        38.8650  -44.2130    5.8900 O.3       1 NAP402      0.0000 
      8 C3B        39.2350  -44.4970    3.5510 C.3       1 NAP402      0.0000 
      9 O3B        40.2920  -43.8050    2.9080 O.3       1 NAP402      0.0000 
     10 C2B        39.8400  -45.6220    4.3130 C.3       1 NAP402      0.0000 
     11 O2B        41.1330  -45.9300    3.8400 O.3       1 NAP402      0.0000 
     12 C1B        40.0610  -44.9010    5.6080 C.3       1 NAP402      0.0000 
     13 N9A        40.2770  -45.7510    6.7440 N.pl3     1 NAP402      0.0000 
     14 C8A        39.4400  -46.7180    7.1820 C.2       1 NAP402      0.0000 
     15 N7A        39.9690  -47.2240    8.3210 N.2       1 NAP402      0.0000 
     16 C5A        41.1630  -46.5710    8.5820 C.ar      1 NAP402      0.0000 
     17 C6A        42.2480  -46.5870    9.6190 C.ar      1 NAP402      0.0000 
     18 N6A        42.1340  -47.4740   10.6280 N.pl3     1 NAP402      0.0000 
     19 N1A        43.3100  -45.7080    9.5510 N.ar      1 NAP402      0.0000 
     20 C2A        43.4190  -44.7910    8.5300 C.ar      1 NAP402      0.0000 
     21 N3A        42.4710  -44.7260    7.5370 N.ar      1 NAP402      0.0000 
     22 C4A        41.3520  -45.5620    7.5300 C.ar      1 NAP402      0.0000 
     23 O3         34.5660  -41.8600    3.2730 O.3       1 NAP402      0.0000 
     24 PN         34.5550  -40.2290    3.2510 P.3       1 NAP402      0.0000 
     25 O1N        33.4230  -39.7480    2.3670 O.co2     1 NAP402      0.0000 
     26 O2N        35.8570  -39.4720    3.1530 O.co2     1 NAP402      0.0000 
     27 O5D        33.9830  -40.0770    4.7320 O.3       1 NAP402      0.0000 
     28 C5D        34.7620  -40.5020    5.8330 C.3       1 NAP402      0.0000 
     29 C4D        33.9640  -40.3610    7.0970 C.3       1 NAP402      0.0000 
     30 O4D        33.6160  -38.9160    7.3090 O.3       1 NAP402      0.0000 
     31 C3D        32.6760  -41.1800    7.0750 C.3       1 NAP402      0.0000 
     32 O3D        32.5220  -41.7290    8.3980 O.3       1 NAP402      0.0000 
     33 C2D        31.5680  -40.1170    6.9130 C.3       1 NAP402      0.0000 
     34 O2D        30.3800  -40.5200    7.6020 O.3       1 NAP402      0.0000 
     35 C1D        32.2100  -38.8490    7.5700 C.3       1 NAP402      0.0000 
     36 N1N        31.6920  -37.5490    7.0720 N.pl3     1 NAP402      0.0000 
     37 C2N        31.1970  -36.6570    7.9600 C.ar      1 NAP402      0.0000 
     38 C3N        30.6950  -35.4280    7.4880 C.ar      1 NAP402      0.0000 
     39 C7N        30.2090  -34.3380    8.4120 C.2       1 NAP402      0.0000 
     40 O7N        29.6610  -33.3780    7.9110 O.2       1 NAP402      0.0000 
     41 N7N        30.5270  -34.3340    9.7090 N.am      1 NAP402      0.0000 
     42 C4N        30.7090  -35.1760    6.0930 C.ar      1 NAP402      0.0000 
     43 C5N        31.2360  -36.1340    5.2230 C.ar      1 NAP402      0.0000 
     44 C6N        31.7240  -37.3000    5.7390 C.ar      1 NAP402      0.0000 
     45 P2B        41.3740  -46.7930    2.4990 P.3       1 NAP402      0.0000 
     46 O1X        40.9180  -45.9010    1.3600 O.co2     1 NAP402      0.0000 
     47 O2X        42.9110  -46.8480    2.5590 O.co2     1 NAP402      0.0000 
     48 O3X        40.3790  -47.9600    2.7200 O.co2     1 NAP402      0.0000 
@<TRIPOS>BOND
     1    1    2 ar   
     2    1    3 ar   
     3    1    4 1    
     4    1   23 1    
     5    4    5 1    
     6    5    6 1    
     7    6    7 1    
     8    6    8 1    
     9    7   12 1    
    10    8    9 1    
    11    8   10 1    
    12   10   11 1    
    13   10   12 1    
    14   11   45 1    
    15   12   13 1    
    16   13   14 1    
    17   13   22 1    
    18   14   15 2    
    19   15   16 1    
    20   16   17 ar   
    21   16   22 ar   
    22   17   18 1    
    23   17   19 ar   
    24   19   20 ar   
    25   20   21 ar   
    26   21   22 ar   
    27   23   24 1    
    28   24   25 ar   
    29   24   26 ar   
    30   24   27 1    
    31   27   28 1    
    32   28   29 1    
    33   29   30 1    
    34   29   31 1    
    35   30   35 1    
    36   31   32 1    
    37   31   33 1    
    38   33   34 1    
    39   33   35 1    
    40   35   36 1    
    41   36   37 ar   
    42   36   44 ar   
    43   37   38 ar   
    44   38   39 1    
    45   38   42 ar   
    46   39   40 2    
    47   39   41 am   
    48   42   43 ar   
    49   43   44 ar   
    50   45   46 ar   
    51   45   47 ar   
    52   45   48 ar   
@<TRIPOS>SUBSTRUCTURE
     1 NAP402      1 GROUP   
@<TRIPOS>SET
ATOM$ORANGE STATIC     ATOMS   COLORGROUP SYSTEM 
42 5 5 6 6 8 8 10 10 12 12 14 14 16 16 17 17 20 \
20 22 22 28 28 29 29 31 31 33 33 35 35 37 37 38 38 39 \
39 42 42 43 43 44 44 

