#    Name: 6iaq_2_NAP
#    Modification time : Fri May 22 19:24:51 2020

@<TRIPOS>MOLECULE
6iaq_2_NAP
   48    52     1     0     1
SMALL
NO_CHARGES


@<TRIPOS>ATOM
      1 PA         35.4810  -45.1140  -27.7740 P.3       1 NAP402      0.0000 
      2 O1A        35.0280  -44.6040  -26.4210 O.co2     1 NAP402      0.0000 
      3 O2A        36.2390  -46.4000  -27.8670 O.co2     1 NAP402      0.0000 
      4 O5B        34.2400  -44.9110  -28.7230 O.3       1 NAP402      0.0000 
      5 C5B        34.1320  -45.7030  -29.9070 C.3       1 NAP402      0.0000 
      6 C4B        32.6530  -45.8090  -30.1800 C.3       1 NAP402      0.0000 
      7 O4B        32.4050  -46.1690  -31.5540 O.3       1 NAP402      0.0000 
      8 C3B        31.9890  -46.8490  -29.2710 C.3       1 NAP402      0.0000 
      9 O3B        30.7660  -46.2630  -28.7430 O.3       1 NAP402      0.0000 
     10 C2B        31.7120  -47.9840  -30.2250 C.3       1 NAP402      0.0000 
     11 O2B        30.4940  -48.6600  -29.9270 O.3       1 NAP402      0.0000 
     12 C1B        31.4740  -47.2460  -31.5160 C.3       1 NAP402      0.0000 
     13 N9A        31.5790  -48.0650  -32.7320 N.pl3     1 NAP402      0.0000 
     14 C8A        32.5380  -48.9430  -33.1200 C.2       1 NAP402      0.0000 
     15 N7A        32.2160  -49.4050  -34.3590 N.2       1 NAP402      0.0000 
     16 C5A        31.0570  -48.8170  -34.7370 C.ar      1 NAP402      0.0000 
     17 C6A        30.1380  -48.8630  -35.8740 C.ar      1 NAP402      0.0000 
     18 N6A        30.4550  -49.6720  -36.8950 N.pl3     1 NAP402      0.0000 
     19 N1A        29.0240  -48.1020  -35.8770 N.ar      1 NAP402      0.0000 
     20 C2A        28.7170  -47.2830  -34.8590 C.ar      1 NAP402      0.0000 
     21 N3A        29.4960  -47.1950  -33.7640 N.ar      1 NAP402      0.0000 
     22 C4A        30.6360  -47.9320  -33.6630 C.ar      1 NAP402      0.0000 
     23 O3         36.4160  -43.8920  -28.3670 O.3       1 NAP402      0.0000 
     24 PN         36.2700  -42.2790  -28.1980 P.3       1 NAP402      0.0000 
     25 O1N        37.2600  -41.8910  -27.1640 O.co2     1 NAP402      0.0000 
     26 O2N        34.9260  -41.5830  -28.1630 O.co2     1 NAP402      0.0000 
     27 O5D        36.9600  -41.9380  -29.6420 O.3       1 NAP402      0.0000 
     28 C5D        36.3400  -42.1610  -30.9130 C.3       1 NAP402      0.0000 
     29 C4D        37.2540  -41.8900  -32.1200 C.3       1 NAP402      0.0000 
     30 O4D        37.4480  -40.4730  -32.1700 O.3       1 NAP402      0.0000 
     31 C3D        38.6150  -42.5610  -32.0290 C.3       1 NAP402      0.0000 
     32 O3D        38.9690  -43.0710  -33.3350 O.3       1 NAP402      0.0000 
     33 C2D        39.5460  -41.4140  -31.5870 C.3       1 NAP402      0.0000 
     34 O2D        40.8590  -41.6470  -32.1040 O.3       1 NAP402      0.0000 
     35 C1D        38.8720  -40.2060  -32.1690 C.3       1 NAP402      0.0000 
     36 N1N        39.1580  -38.9530  -31.4860 N.pl3     1 NAP402      0.0000 
     37 C2N        39.5520  -37.8890  -32.2420 C.ar      1 NAP402      0.0000 
     38 C3N        39.8580  -36.6410  -31.6570 C.ar      1 NAP402      0.0000 
     39 C7N        40.3260  -35.4600  -32.4320 C.2       1 NAP402      0.0000 
     40 O7N        40.8780  -34.5640  -31.8060 O.2       1 NAP402      0.0000 
     41 N7N        40.1470  -35.3420  -33.7520 N.am      1 NAP402      0.0000 
     42 C4N        39.7170  -36.5240  -30.2720 C.ar      1 NAP402      0.0000 
     43 C5N        39.2660  -37.6380  -29.5140 C.ar      1 NAP402      0.0000 
     44 C6N        38.9940  -38.8370  -30.1450 C.ar      1 NAP402      0.0000 
     45 P2B        30.4440  -49.7510  -28.7330 P.3       1 NAP402      0.0000 
     46 O1X        30.5190  -48.9200  -27.4650 O.co2     1 NAP402      0.0000 
     47 O2X        28.9520  -50.1580  -28.9060 O.co2     1 NAP402      0.0000 
     48 O3X        31.6430  -50.6940  -29.1110 O.co2     1 NAP402      0.0000 
@<TRIPOS>BOND
     1    1    2 ar   
     2    1    3 ar   
     3    1    4 1    
     4    1   23 1    
     5    4    5 1    
     6    5    6 1    
     7    6    7 1    
     8    6    8 1    
     9    7   12 1    
    10    8    9 1    
    11    8   10 1    
    12   10   11 1    
    13   10   12 1    
    14   11   45 1    
    15   12   13 1    
    16   13   14 1    
    17   13   22 1    
    18   14   15 2    
    19   15   16 1    
    20   16   17 ar   
    21   16   22 ar   
    22   17   18 1    
    23   17   19 ar   
    24   19   20 ar   
    25   20   21 ar   
    26   21   22 ar   
    27   23   24 1    
    28   24   25 ar   
    29   24   26 ar   
    30   24   27 1    
    31   27   28 1    
    32   28   29 1    
    33   29   30 1    
    34   29   31 1    
    35   30   35 1    
    36   31   32 1    
    37   31   33 1    
    38   33   34 1    
    39   33   35 1    
    40   35   36 1    
    41   36   37 ar   
    42   36   44 ar   
    43   37   38 ar   
    44   38   39 1    
    45   38   42 ar   
    46   39   40 2    
    47   39   41 am   
    48   42   43 ar   
    49   43   44 ar   
    50   45   46 ar   
    51   45   47 ar   
    52   45   48 ar   
@<TRIPOS>SUBSTRUCTURE
     1 NAP402      1 GROUP   
@<TRIPOS>SET
ATOM$ORANGE STATIC     ATOMS   COLORGROUP SYSTEM 
42 5 5 6 6 8 8 10 10 12 12 14 14 16 16 17 17 20 \
20 22 22 28 28 29 29 31 31 33 33 35 35 37 37 38 38 39 \
39 42 42 43 43 44 44 

