#    Name: 6t8g_5_ADP
#    Modification time : Fri May 22 19:28:25 2020

@<TRIPOS>MOLECULE
6t8g_5_ADP
   27    29     1     0     1
SMALL
NO_CHARGES


@<TRIPOS>ATOM
      1 PB        157.8330  114.2980  129.6630 P.3       1 ADP801      0.0000 
      2 O1B       157.4250  115.5210  128.8850 O.co2     1 ADP801      0.0000 
      3 O2B       157.7980  113.0070  128.8980 O.co2     1 ADP801      0.0000 
      4 O3B       157.2560  114.2100  131.0450 O.co2     1 ADP801      0.0000 
      5 PA        159.7750  115.5350  131.1470 P.3       1 ADP801      0.0000 
      6 O1A       158.9070  116.7610  131.0470 O.co2     1 ADP801      0.0000 
      7 O2A       159.7820  114.7340  132.4230 O.co2     1 ADP801      0.0000 
      8 O3A       159.3820  114.5470  129.9520 O.3       1 ADP801      0.0000 
      9 O5'       161.2790  115.9360  130.7560 O.3       1 ADP801      0.0000 
     10 C5'       162.1910  116.3670  131.7550 C.3       1 ADP801      0.0000 
     11 C4'       163.1840  117.3410  131.1500 C.3       1 ADP801      0.0000 
     12 O4'       163.0920  118.6010  131.8070 O.3       1 ADP801      0.0000 
     13 C3'       164.5920  116.8410  131.3480 C.3       1 ADP801      0.0000 
     14 O3'       165.1570  116.5830  130.0670 O.3       1 ADP801      0.0000 
     15 C2'       165.3560  117.9590  132.0140 C.3       1 ADP801      0.0000 
     16 O2'       166.3610  118.4530  131.1330 O.3       1 ADP801      0.0000 
     17 C1'       164.3590  119.0580  132.2730 C.3       1 ADP801      0.0000 
     18 N9        164.2910  119.1950  133.7370 N.pl3     1 ADP801      0.0000 
     19 C8        163.4180  118.5530  134.5200 C.2       1 ADP801      0.0000 
     20 N7        163.5840  118.8630  135.8250 N.2       1 ADP801      0.0000 
     21 C5        164.6010  119.7200  135.8820 C.ar      1 ADP801      0.0000 
     22 C6        165.2930  120.4310  136.9580 C.ar      1 ADP801      0.0000 
     23 N6        164.9060  120.2730  138.2390 N.pl3     1 ADP801      0.0000 
     24 N1        166.3090  121.2370  136.6140 N.ar      1 ADP801      0.0000 
     25 C2        166.6780  121.3880  135.3310 C.ar      1 ADP801      0.0000 
     26 N3        166.0940  120.7710  134.2960 N.ar      1 ADP801      0.0000 
     27 C4        165.0660  119.9360  134.5090 C.ar      1 ADP801      0.0000 
@<TRIPOS>BOND
     1    1    2 ar   
     2    1    3 ar   
     3    1    4 ar   
     4    1    8 1    
     5    5    6 ar   
     6    5    7 ar   
     7    5    8 1    
     8    5    9 1    
     9    9   10 1    
    10   10   11 1    
    11   11   12 1    
    12   11   13 1    
    13   12   17 1    
    14   13   14 1    
    15   13   15 1    
    16   15   16 1    
    17   15   17 1    
    18   17   18 1    
    19   18   19 1    
    20   18   27 1    
    21   19   20 2    
    22   20   21 1    
    23   21   22 ar   
    24   21   27 ar   
    25   22   23 1    
    26   22   24 ar   
    27   24   25 ar   
    28   25   26 ar   
    29   26   27 ar   
@<TRIPOS>SUBSTRUCTURE
     1 ADP801      1 GROUP   
@<TRIPOS>SET
ATOM$ORANGE STATIC     ATOMS   COLORGROUP SYSTEM 
20 10 10 11 11 13 13 15 15 17 17 19 19 21 21 22 22 25 \
25 27 27 

