#    Name: 6t8g_1_ADP
#    Modification time : Fri May 22 19:28:03 2020

@<TRIPOS>MOLECULE
6t8g_1_ADP
   27    29     1     0     1
SMALL
NO_CHARGES


@<TRIPOS>ATOM
      1 PB        103.4150  120.9030  150.5990 P.3       1 ADP801      0.0000 
      2 O1B       104.2900  121.0000  149.3830 O.co2     1 ADP801      0.0000 
      3 O2B       102.0030  120.4850  150.2920 O.co2     1 ADP801      0.0000 
      4 O3B       104.0420  120.1890  151.7650 O.co2     1 ADP801      0.0000 
      5 PA        101.9700  122.7380  151.9880 P.3       1 ADP801      0.0000 
      6 O1A       100.8650  123.0480  151.0190 O.co2     1 ADP801      0.0000 
      7 O2A       101.8070  121.6160  152.9730 O.co2     1 ADP801      0.0000 
      8 O3A       103.2690  122.4130  151.1160 O.3       1 ADP801      0.0000 
      9 O5'       102.2920  124.0550  152.8500 O.3       1 ADP801      0.0000 
     10 C5'       101.3050  124.4090  153.8150 C.3       1 ADP801      0.0000 
     11 C4'       101.7200  125.4740  154.8220 C.3       1 ADP801      0.0000 
     12 O4'       101.7890  126.7770  154.2440 O.3       1 ADP801      0.0000 
     13 C3'       100.6470  125.5490  155.8890 C.3       1 ADP801      0.0000 
     14 O3'       101.1780  125.0770  157.1240 O.3       1 ADP801      0.0000 
     15 C2'       100.2550  127.0050  156.0150 C.3       1 ADP801      0.0000 
     16 O2'       100.4290  127.4660  157.3530 O.3       1 ADP801      0.0000 
     17 C1'       101.1930  127.7550  155.1040 C.3       1 ADP801      0.0000 
     18 N9        100.3740  128.7080  154.3250 N.pl3     1 ADP801      0.0000 
     19 C8         99.8010  128.4370  153.1460 C.2       1 ADP801      0.0000 
     20 N7         99.1090  129.4950  152.6650 N.2       1 ADP801      0.0000 
     21 C5         99.2370  130.4750  153.5600 C.ar      1 ADP801      0.0000 
     22 C6         98.7470  131.8540  153.6580 C.ar      1 ADP801      0.0000 
     23 N6         97.9800  132.3740  152.6780 N.pl3     1 ADP801      0.0000 
     24 N1         99.0950  132.5590  154.7480 N.ar      1 ADP801      0.0000 
     25 C2         99.8600  132.0270  155.7170 C.ar      1 ADP801      0.0000 
     26 N3        100.3400  130.7730  155.6920 N.ar      1 ADP801      0.0000 
     27 C4        100.0660  129.9590  154.6540 C.ar      1 ADP801      0.0000 
@<TRIPOS>BOND
     1    1    2 ar   
     2    1    3 ar   
     3    1    4 ar   
     4    1    8 1    
     5    5    6 ar   
     6    5    7 ar   
     7    5    8 1    
     8    5    9 1    
     9    9   10 1    
    10   10   11 1    
    11   11   12 1    
    12   11   13 1    
    13   12   17 1    
    14   13   14 1    
    15   13   15 1    
    16   15   16 1    
    17   15   17 1    
    18   17   18 1    
    19   18   19 1    
    20   18   27 1    
    21   19   20 2    
    22   20   21 1    
    23   21   22 ar   
    24   21   27 ar   
    25   22   23 1    
    26   22   24 ar   
    27   24   25 ar   
    28   25   26 ar   
    29   26   27 ar   
@<TRIPOS>SUBSTRUCTURE
     1 ADP801      1 GROUP   
@<TRIPOS>SET
ATOM$ORANGE STATIC     ATOMS   COLORGROUP SYSTEM 
20 10 10 11 11 13 13 15 15 17 17 19 19 21 21 22 22 25 \
25 27 27 

