#    Name: 6t8g_2_ADP_CAVITY_N1_4
#    Modification time : Fri May 22 19:28:15 2020

@<TRIPOS>MOLECULE
6t8g_2_ADP_CAVITY_N1_4
   83     0     6     0     0
SMALL
NO_CHARGES


@<TRIPOS>ATOM
      1 OG         88.4700  125.5000  118.4800 O.3       1 SER1        0.0000 
      2 OG         89.0100  128.8000  118.6200 O.3       1 SER1        0.0000 
      3 OG         89.2500  127.3800  119.0500 O.3       1 SER1        0.0000 
      4 OG         89.4900  125.9700  119.4800 O.3       1 SER1        0.0000 
      5 OG         90.3200  127.2500  118.0100 O.3       1 SER1        0.0000 
      6 OG         90.5600  125.8300  118.4400 O.3       1 SER1        0.0000 
      7 O          87.8200  123.4000  122.4100 O.2       2 ALA2        0.0000 
      8 O          90.0800  128.6700  117.5800 O.2       2 ALA2        0.0000 
      9 N          88.7200  130.8200  120.2300 N.am      2 ALA2        0.0000 
     10 N          88.9600  129.4100  120.6500 N.am      2 ALA2        0.0000 
     11 N          89.2000  127.9900  121.0800 N.am      2 ALA2        0.0000 
     12 N          89.4300  126.5700  121.5100 N.am      2 ALA2        0.0000 
     13 O          89.5500  132.1100  118.7600 O.2       2 ALA2        0.0000 
     14 O          89.7900  130.6900  119.1900 O.2       2 ALA2        0.0000 
     15 N          90.0300  129.2700  119.6100 N.am      2 ALA2        0.0000 
     16 N          90.2700  127.8600  120.0400 N.am      2 ALA2        0.0000 
     17 N          90.5100  126.4400  120.4700 N.am      2 ALA2        0.0000 
     18 O          91.1000  129.1400  118.5700 O.2       2 ALA2        0.0000 
     19 N          91.3400  127.7200  119.0000 N.am      2 ALA2        0.0000 
     20 N          91.5800  126.3100  119.4300 N.am      2 ALA2        0.0000 
     21 N          89.7400  131.3000  121.2200 N.am      2 ALA2        0.0000 
     22 N          90.4600  127.0400  122.5000 N.am      2 ALA2        0.0000 
     23 OD1        88.9400  122.6600  119.3400 O.co2     3 ASP3        0.0000 
     24 OD1        86.8600  129.0700  120.7000 O.co2     3 ASP3        0.0000 
     25 OD1        87.1000  127.6500  121.1300 O.co2     3 ASP3        0.0000 
     26 OD1        88.8900  123.2600  121.3700 O.co2     3 ASP3        0.0000 
     27 OD1        89.7300  124.5500  119.9000 O.co2     3 ASP3        0.0000 
     28 OD1        90.8000  124.4200  118.8600 O.co2     3 ASP3        0.0000 
     29 OD1        90.7500  125.0200  120.9000 O.co2     3 ASP3        0.0000 
     30 OD1        90.9800  123.6000  121.3200 O.co2     3 ASP3        0.0000 
     31 OD1        91.8200  124.8900  119.8600 O.co2     3 ASP3        0.0000 
     32 OD1        88.6700  131.4300  122.2600 O.co2     3 ASP3        0.0000 
     33 OD1        88.6200  132.0300  124.2900 O.co2     3 ASP3        0.0000 
     34 NZ         85.6600  129.4100  117.2500 N.4       4 LYS4        0.0000 
     35 NZ         85.9000  127.9900  117.6700 N.4       4 LYS4        0.0000 
     36 NZ         86.0800  127.1800  120.1300 N.4       4 LYS4        0.0000 
     37 NZ         86.9200  128.4600  118.6700 N.4       4 LYS4        0.0000 
     38 NZ         87.1500  127.0500  119.0900 N.4       4 LYS4        0.0000 
     39 NZ         87.8700  122.7900  120.3800 N.4       4 LYS4        0.0000 
     40 NZ         88.4100  126.1000  120.5100 N.4       4 LYS4        0.0000 
     41 NZ         88.6500  124.6800  120.9400 N.4       4 LYS4        0.0000 
     42 CA         85.1800  132.2500  116.3900 C.3       5 GLY6        0.0000 
     43 CA         85.4200  130.8300  116.8200 C.3       5 GLY6        0.0000 
     44 CA         86.7300  129.2800  116.2100 C.3       5 GLY6        0.0000 
     45 CA         86.2000  132.7200  117.3900 C.3       5 GLY6        0.0000 
     46 CA         86.4400  131.3000  117.8100 C.3       5 GLY6        0.0000 
     47 CA         87.7500  129.7500  117.2000 C.3       5 GLY6        0.0000 
     48 CA         87.9900  128.3300  117.6300 C.3       5 GLY6        0.0000 
     49 CA         88.7000  124.0800  118.9100 C.3       5 GLY6        0.0000 
     50 CA         87.3400  126.2300  121.5500 C.3       5 GLY6        0.0000 
     51 CA         87.5800  124.8100  121.9800 C.3       5 GLY6        0.0000 
     52 CA         87.2200  133.1900  118.3800 C.3       5 GLY6        0.0000 
     53 CA         87.4600  131.7700  118.8100 C.3       5 GLY6        0.0000 
     54 CA         88.5300  131.6400  117.7700 C.3       5 GLY6        0.0000 
     55 CA         88.7700  130.2200  118.1900 C.3       5 GLY6        0.0000 
     56 CA         89.8400  130.0900  117.1500 C.3       5 GLY6        0.0000 
     57 CA         88.3600  126.7000  122.5500 C.3       5 GLY6        0.0000 
     58 CA         88.6000  125.2900  122.9700 C.3       5 GLY6        0.0000 
     59 CA         88.8400  123.8700  123.4000 C.3       5 GLY6        0.0000 
     60 CA         89.9100  123.7300  122.3600 C.3       5 GLY6        0.0000 
     61 CA         89.5000  132.7100  120.7900 C.3       5 GLY6        0.0000 
     62 CA         90.6900  125.6200  122.9300 C.3       5 GLY6        0.0000 
     63 CA         90.9300  124.2100  123.3600 C.3       5 GLY6        0.0000 
     64 CA         90.5700  132.5800  119.7500 C.3       5 GLY6        0.0000 
     65 CA         90.8100  131.1600  120.1800 C.3       5 GLY6        0.0000 
     66 CA         91.7700  125.4900  121.8900 C.3       5 GLY6        0.0000 
     67 CA         92.0100  124.0700  122.3200 C.3       5 GLY6        0.0000 
     68 CA         89.4500  133.3200  122.8300 C.3       5 GLY6        0.0000 
     69 CA         89.6900  131.9000  123.2500 C.3       5 GLY6        0.0000 
     70 CA         91.7200  126.0900  123.9200 C.3       5 GLY6        0.0000 
     71 DU         84.1100  132.3800  117.4300 H         6 CUB7        0.0000 
     72 DU         84.3400  130.9600  117.8600 H         6 CUB7        0.0000 
     73 DU         85.1300  132.8500  118.4300 H         6 CUB7        0.0000 
     74 DU         85.3700  131.4300  118.8500 H         6 CUB7        0.0000 
     75 DU         85.8400  128.6000  119.7100 H         6 CUB7        0.0000 
     76 DU         86.6800  129.8800  118.2400 H         6 CUB7        0.0000 
     77 DU         86.6300  130.4900  120.2700 H         6 CUB7        0.0000 
     78 DU         87.7000  130.3500  119.2300 H         6 CUB7        0.0000 
     79 DU         87.9400  128.9400  119.6600 H         6 CUB7        0.0000 
     80 DU         88.1800  127.5200  120.0900 H         6 CUB7        0.0000 
     81 DU         88.2400  133.6600  119.3700 H         6 CUB7        0.0000 
     82 DU         88.4800  132.2400  119.8000 H         6 CUB7        0.0000 
     83 DU         89.6700  125.1500  121.9400 H         6 CUB7        0.0000 
@<TRIPOS>BOND
@<TRIPOS>SUBSTRUCTURE
     1 SER1        1 GROUP   
     2 ALA2        7 GROUP   
     3 ASP3       23 GROUP   
     4 LYS4       34 GROUP   
     5 GLY6       42 GROUP   
     6 CUB7       71 GROUP   
@<TRIPOS>SET

