#    Name: 6t8g_2_ADP
#    Modification time : Fri May 22 19:28:14 2020

@<TRIPOS>MOLECULE
6t8g_2_ADP
   27    29     1     0     1
SMALL
NO_CHARGES


@<TRIPOS>ATOM
      1 PB         91.3640  126.1090  119.5040 P.3       1 ADP801      0.0000 
      2 O1B        90.9620  125.5970  118.1480 O.co2     1 ADP801      0.0000 
      3 O2B        92.7670  125.7310  119.8910 O.co2     1 ADP801      0.0000 
      4 O3B        90.3390  125.8890  120.5830 O.co2     1 ADP801      0.0000 
      5 PA         90.2390  128.4180  118.4760 P.3       1 ADP801      0.0000 
      6 O1A        90.7380  128.6680  117.0820 O.co2     1 ADP801      0.0000 
      7 O2A        88.9570  127.6570  118.6870 O.co2     1 ADP801      0.0000 
      8 O3A        91.3960  127.7070  119.3340 O.3       1 ADP801      0.0000 
      9 O5'        90.0520  129.8530  119.1640 O.3       1 ADP801      0.0000 
     10 C5'        88.9580  130.6490  118.7220 C.3       1 ADP801      0.0000 
     11 C4'        88.8770  131.9470  119.5040 C.3       1 ADP801      0.0000 
     12 O4'        89.5980  132.9920  118.8540 O.3       1 ADP801      0.0000 
     13 C3'        87.4370  132.3990  119.5620 C.3       1 ADP801      0.0000 
     14 O3'        86.9760  132.2510  120.9020 O.3       1 ADP801      0.0000 
     15 C2'        87.4420  133.8610  119.1820 C.3       1 ADP801      0.0000 
     16 O2'        86.9010  134.6230  120.2570 O.3       1 ADP801      0.0000 
     17 C1'        88.9000  134.2270  119.0210 C.3       1 ADP801      0.0000 
     18 N9         89.1330  135.1530  117.8800 N.pl3     1 ADP801      0.0000 
     19 C8         89.8340  134.8770  116.7720 C.2       1 ADP801      0.0000 
     20 N7         89.8940  135.9270  115.9210 N.2       1 ADP801      0.0000 
     21 C5         89.2150  136.9260  116.4950 C.ar      1 ADP801      0.0000 
     22 C6         88.8870  138.3190  116.1370 C.ar      1 ADP801      0.0000 
     23 N6         89.3020  138.8630  114.9730 N.pl3     1 ADP801      0.0000 
     24 N1         88.1550  139.0320  117.0120 N.ar      1 ADP801      0.0000 
     25 C2         87.7350  138.5000  118.1730 C.ar      1 ADP801      0.0000 
     26 N3         87.9980  137.2420  118.5640 N.ar      1 ADP801      0.0000 
     27 C4         88.7260  136.4170  117.7850 C.ar      1 ADP801      0.0000 
@<TRIPOS>BOND
     1    1    2 ar   
     2    1    3 ar   
     3    1    4 ar   
     4    1    8 1    
     5    5    6 ar   
     6    5    7 ar   
     7    5    8 1    
     8    5    9 1    
     9    9   10 1    
    10   10   11 1    
    11   11   12 1    
    12   11   13 1    
    13   12   17 1    
    14   13   14 1    
    15   13   15 1    
    16   15   16 1    
    17   15   17 1    
    18   17   18 1    
    19   18   19 1    
    20   18   27 1    
    21   19   20 2    
    22   20   21 1    
    23   21   22 ar   
    24   21   27 ar   
    25   22   23 1    
    26   22   24 ar   
    27   24   25 ar   
    28   25   26 ar   
    29   26   27 ar   
@<TRIPOS>SUBSTRUCTURE
     1 ADP801      1 GROUP   
@<TRIPOS>SET
ATOM$ORANGE STATIC     ATOMS   COLORGROUP SYSTEM 
20 10 10 11 11 13 13 15 15 17 17 19 19 21 21 22 22 25 \
25 27 27 

