#    Name: 6t8g_5_ADP_CAVITY_N1_4
#    Modification time : Fri May 22 19:28:26 2020

@<TRIPOS>MOLECULE
6t8g_5_ADP_CAVITY_N1_4
   56     0     6     0     0
SMALL
NO_CHARGES


@<TRIPOS>ATOM
      1 OG        157.5100  112.2700  130.8100 O.3       1 SER1        0.0000 
      2 OG        158.5800  112.1400  129.7700 O.3       1 SER1        0.0000 
      3 OG        158.8200  110.7200  130.2000 O.3       1 SER1        0.0000 
      4 OG        159.3600  114.0200  130.3400 O.3       1 SER1        0.0000 
      5 O         156.3000  112.6100  127.3600 O.2       2 ALA2        0.0000 
      6 O         157.1400  113.9000  125.8900 O.2       2 ALA2        0.0000 
      7 O         156.4900  111.8000  129.8200 O.2       2 ALA2        0.0000 
      8 O         157.0800  114.5000  127.9300 O.2       2 ALA2        0.0000 
      9 O         157.3200  113.0800  128.3500 O.2       2 ALA2        0.0000 
     10 O         157.0300  115.1000  129.9600 O.2       2 ALA2        0.0000 
     11 O         157.2700  113.6900  130.3900 O.2       2 ALA2        0.0000 
     12 O         158.1000  114.9700  128.9200 O.2       2 ALA2        0.0000 
     13 O         158.3400  113.5500  129.3500 O.2       2 ALA2        0.0000 
     14 O         159.1800  114.8400  127.8800 O.2       2 ALA2        0.0000 
     15 O         160.0100  116.1200  126.4100 O.2       2 ALA2        0.0000 
     16 O         158.2900  114.1600  131.3800 O.2       2 ALA2        0.0000 
     17 O         159.1300  115.4400  129.9100 O.2       2 ALA2        0.0000 
     18 O         160.2000  115.3100  128.8700 O.2       2 ALA2        0.0000 
     19 O         159.3100  114.6300  132.3700 O.2       2 ALA2        0.0000 
     20 O         160.1500  115.9100  130.9100 O.2       2 ALA2        0.0000 
     21 OD1       158.4500  112.3500  125.2800 O.co2     3 ASP3        0.0000 
     22 OD1       158.6900  110.9300  125.7100 O.co2     3 ASP3        0.0000 
     23 OD1       159.2300  114.2400  125.8500 O.co2     3 ASP3        0.0000 
     24 OD1       159.4700  112.8200  126.2700 O.co2     3 ASP3        0.0000 
     25 OD1       159.7100  111.4000  126.7000 O.co2     3 ASP3        0.0000 
     26 OD1       160.4900  113.2900  127.2700 O.co2     3 ASP3        0.0000 
     27 NZ        158.8700  110.1100  128.1700 N.4       4 LYS4        0.0000 
     28 NZ        159.6500  112.0000  128.7300 N.4       4 LYS4        0.0000 
     29 NZ        160.7300  111.8700  127.6900 N.4       4 LYS4        0.0000 
     30 NZ        160.6800  112.4700  129.7300 N.4       4 LYS4        0.0000 
     31 CA        156.3500  112.0100  125.3300 C.3       5 GLY6        0.0000 
     32 CA        156.9000  115.3200  125.4700 C.3       5 GLY6        0.0000 
     33 CA        157.6100  111.0600  126.7500 C.3       5 GLY6        0.0000 
     34 CA        157.8500  109.6400  127.1700 C.3       5 GLY6        0.0000 
     35 CA        156.7300  110.3800  130.2500 C.3       5 GLY6        0.0000 
     36 CA        157.5600  111.6600  128.7800 C.3       5 GLY6        0.0000 
     37 CA        157.8000  110.2500  129.2100 C.3       5 GLY6        0.0000 
     38 CA        157.9200  115.7900  126.4600 C.3       5 GLY6        0.0000 
     39 CA        159.9100  117.3300  130.4800 C.3       5 GLY6        0.0000 
     40 CA        160.3900  114.5000  131.3300 C.3       5 GLY6        0.0000 
     41 CA        161.1700  116.3800  131.9000 C.3       5 GLY6        0.0000 
     42 CA        161.4100  114.9700  132.3300 C.3       5 GLY6        0.0000 
     43 CA        161.6400  113.5500  132.7500 C.3       5 GLY6        0.0000 
     44 CA        162.4800  114.8300  131.2900 C.3       5 GLY6        0.0000 
     45 CA        162.7200  113.4200  131.7100 C.3       5 GLY6        0.0000 
     46 DU        157.3700  112.4800  126.3200 H         6 CUB7        0.0000 
     47 DU        158.1600  114.3700  126.8900 H         6 CUB7        0.0000 
     48 DU        158.4000  112.9500  127.3100 H         6 CUB7        0.0000 
     49 DU        158.6300  111.5300  127.7400 H         6 CUB7        0.0000 
     50 DU        158.9900  115.6500  125.4200 H         6 CUB7        0.0000 
     51 DU        159.4200  113.4200  128.3100 H         6 CUB7        0.0000 
     52 DU        160.2500  114.7100  126.8400 H         6 CUB7        0.0000 
     53 DU        160.4400  113.8900  129.3000 H         6 CUB7        0.0000 
     54 DU        161.2200  115.7800  129.8700 H         6 CUB7        0.0000 
     55 DU        161.4600  114.3600  130.2900 H         6 CUB7        0.0000 
     56 DU        162.2400  116.2500  130.8600 H         6 CUB7        0.0000 
@<TRIPOS>BOND
@<TRIPOS>SUBSTRUCTURE
     1 SER1        1 GROUP   
     2 ALA2        5 GROUP   
     3 ASP3       21 GROUP   
     4 LYS4       27 GROUP   
     5 GLY6       31 GROUP   
     6 CUB7       46 GROUP   
@<TRIPOS>SET

