#    Name: 5z3o_1_ADP
#    Modification time : Fri May 22 19:34:34 2020

@<TRIPOS>MOLECULE
5z3o_1_ADP
   27    29     1     0     1
SMALL
NO_CHARGES


@<TRIPOS>ATOM
      1 PB         79.0770  132.0720  105.9400 P.3       1 ADP1501     0.0000 
      2 O1B        79.0310  131.5600  104.5250 O.co2     1 ADP1501     0.0000 
      3 O2B        78.9150  133.5660  106.0550 O.co2     1 ADP1501     0.0000 
      4 O3B        80.1900  131.4920  106.7790 O.co2     1 ADP1501     0.0000 
      5 PA         77.6070  129.8930  106.8650 P.3       1 ADP1501     0.0000 
      6 O1A        77.8840  129.1650  105.5720 O.co2     1 ADP1501     0.0000 
      7 O2A        78.4140  129.5490  108.0940 O.co2     1 ADP1501     0.0000 
      8 O3A        77.7360  131.4740  106.5970 O.3       1 ADP1501     0.0000 
      9 O5'        76.0460  129.7190  107.2120 O.3       1 ADP1501     0.0000 
     10 C5'        75.5120  128.4180  107.4390 C.3       1 ADP1501     0.0000 
     11 C4'        74.0550  128.5210  107.8700 C.3       1 ADP1501     0.0000 
     12 O4'        73.2910  129.2330  106.8950 O.3       1 ADP1501     0.0000 
     13 C3'        73.4310  127.1440  108.0150 C.3       1 ADP1501     0.0000 
     14 O3'        73.1770  126.8610  109.3940 O.3       1 ADP1501     0.0000 
     15 C2'        72.1270  127.2010  107.2470 C.3       1 ADP1501     0.0000 
     16 O2'        71.0310  126.9260  108.1250 O.3       1 ADP1501     0.0000 
     17 C1'        72.0150  128.6170  106.7070 C.3       1 ADP1501     0.0000 
     18 N9         71.6870  128.5790  105.2600 N.pl3     1 ADP1501     0.0000 
     19 C8         72.4280  129.1240  104.2780 C.2       1 ADP1501     0.0000 
     20 N7         71.8560  128.9220  103.0650 N.2       1 ADP1501     0.0000 
     21 C5         70.7170  128.2350  103.2630 C.ar      1 ADP1501     0.0000 
     22 C6         69.6360  127.6940  102.4070 C.ar      1 ADP1501     0.0000 
     23 N6         69.6610  127.8550  101.0620 N.pl3     1 ADP1501     0.0000 
     24 N1         68.6230  127.0360  103.0140 N.ar      1 ADP1501     0.0000 
     25 C2         68.5880  126.8690  104.3490 C.ar      1 ADP1501     0.0000 
     26 N3         69.5350  127.3320  105.1840 N.ar      1 ADP1501     0.0000 
     27 C4         70.6070  128.0140  104.7130 C.ar      1 ADP1501     0.0000 
@<TRIPOS>BOND
     1    1    2 ar   
     2    1    3 ar   
     3    1    4 ar   
     4    1    8 1    
     5    5    6 ar   
     6    5    7 ar   
     7    5    8 1    
     8    5    9 1    
     9    9   10 1    
    10   10   11 1    
    11   11   12 1    
    12   11   13 1    
    13   12   17 1    
    14   13   14 1    
    15   13   15 1    
    16   15   16 1    
    17   15   17 1    
    18   17   18 1    
    19   18   19 1    
    20   18   27 1    
    21   19   20 2    
    22   20   21 1    
    23   21   22 ar   
    24   21   27 ar   
    25   22   23 1    
    26   22   24 ar   
    27   24   25 ar   
    28   25   26 ar   
    29   26   27 ar   
@<TRIPOS>SUBSTRUCTURE
     1 ADP1501     1 GROUP   
@<TRIPOS>SET
ATOM$ORANGE STATIC     ATOMS   COLORGROUP SYSTEM 
20 10 10 11 11 13 13 15 15 17 17 19 19 21 21 22 22 25 \
25 27 27 

