#    Name: 5z8t_2_FAD
#    Modification time : Fri May 22 19:31:27 2020

@<TRIPOS>MOLECULE
5z8t_2_FAD
   53    58     1     0     1
SMALL
NO_CHARGES


@<TRIPOS>ATOM
      1 PA         13.6620  185.9030   49.5910 P.3       1 FAD401      0.0000 
      2 O1A        14.2720  184.7280   48.8490 O.co2     1 FAD401      0.0000 
      3 O2A        13.9170  187.3330   49.1160 O.co2     1 FAD401      0.0000 
      4 O5B        12.0580  185.6940   49.6050 O.3       1 FAD401      0.0000 
      5 C5B        11.1560  186.6190   50.2310 C.3       1 FAD401      0.0000 
      6 C4B         9.8270  185.9060   50.3490 C.3       1 FAD401      0.0000 
      7 O4B         9.4820  185.2370   49.1030 O.3       1 FAD401      0.0000 
      8 C3B         9.9420  184.8180   51.3940 C.3       1 FAD401      0.0000 
      9 O3B         8.7820  184.8570   52.2430 O.3       1 FAD401      0.0000 
     10 C2B        10.0270  183.5440   50.5580 C.3       1 FAD401      0.0000 
     11 O2B         9.6590  182.4150   51.3460 O.3       1 FAD401      0.0000 
     12 C1B         9.1080  183.8820   49.3840 C.3       1 FAD401      0.0000 
     13 N9A         9.1230  182.9580   48.1900 N.pl3     1 FAD401      0.0000 
     14 C8A         8.2280  181.9470   47.9500 C.2       1 FAD401      0.0000 
     15 N7A         8.4630  181.2720   46.7970 N.2       1 FAD401      0.0000 
     16 C5A         9.5390  181.8910   46.2700 C.ar      1 FAD401      0.0000 
     17 C6A        10.3380  181.7170   45.0480 C.ar      1 FAD401      0.0000 
     18 N6A        10.0310  180.7450   44.1660 N.pl3     1 FAD401      0.0000 
     19 N1A        11.4000  182.5460   44.8560 N.ar      1 FAD401      0.0000 
     20 C2A        11.7330  183.5230   45.7260 C.ar      1 FAD401      0.0000 
     21 N3A        11.0280  183.7500   46.8520 N.ar      1 FAD401      0.0000 
     22 C4A         9.9690  182.9860   47.1720 C.ar      1 FAD401      0.0000 
     23 N1         23.7850  183.6950   51.6390 N.2       1 FAD401      0.0000 
     24 C2         24.9160  183.2190   51.0480 C.2       1 FAD401      0.0000 
     25 O2         24.9040  183.0480   49.8100 O.2       1 FAD401      0.0000 
     26 N3         26.0390  182.9470   51.7590 N.am      1 FAD401      0.0000 
     27 C4         26.0720  183.1210   53.0940 C.2       1 FAD401      0.0000 
     28 O4         27.1050  182.8350   53.7030 O.2       1 FAD401      0.0000 
     29 C4X        24.8590  183.6150   53.8330 C.2       1 FAD401      0.0000 
     30 N5         24.8280  183.8310   55.1660 N.2       1 FAD401      0.0000 
     31 C5X        23.7240  184.3220   55.7840 C.ar      1 FAD401      0.0000 
     32 C6         23.7380  184.5300   57.1530 C.ar      1 FAD401      0.0000 
     33 C7         22.6240  185.0390   57.8150 C.ar      1 FAD401      0.0000 
     34 C7M        22.7100  185.2320   59.3050 C.3       1 FAD401      0.0000 
     35 C8         21.3910  185.3560   57.0570 C.ar      1 FAD401      0.0000 
     36 C8M        20.1280  185.9010   57.6970 C.3       1 FAD401      0.0000 
     37 C9         21.3840  185.1560   55.6920 C.ar      1 FAD401      0.0000 
     38 C9A        22.4940  184.6420   55.0130 C.ar      1 FAD401      0.0000 
     39 N10        22.5090  184.4220   53.6150 N.pl3     1 FAD401      0.0000 
     40 C10        23.6840  183.9090   52.9970 C.2       1 FAD401      0.0000 
     41 C1'        21.3570  184.7480   52.7730 C.3       1 FAD401      0.0000 
     42 C2'        20.1280  183.8890   52.9890 C.3       1 FAD401      0.0000 
     43 O2'        20.3060  182.7270   52.1700 O.3       1 FAD401      0.0000 
     44 C3'        18.9030  184.7800   52.6650 C.3       1 FAD401      0.0000 
     45 O3'        18.0370  184.9850   53.7930 O.3       1 FAD401      0.0000 
     46 C4'        18.1560  184.1900   51.5340 C.3       1 FAD401      0.0000 
     47 O4'        19.1460  183.9620   50.5040 O.3       1 FAD401      0.0000 
     48 C5'        17.0070  185.1300   51.1600 C.3       1 FAD401      0.0000 
     49 O5'        15.8950  184.2400   51.0650 O.3       1 FAD401      0.0000 
     50 P          14.5100  184.4120   51.8580 P.3       1 FAD401      0.0000 
     51 O1P        13.6850  183.1640   51.4990 O.co2     1 FAD401      0.0000 
     52 O2P        14.7180  184.8100   53.2870 O.co2     1 FAD401      0.0000 
     53 O3P        13.9950  185.7810   51.1730 O.3       1 FAD401      0.0000 
@<TRIPOS>BOND
     1    1    2 ar   
     2    1    3 ar   
     3    1    4 1    
     4    1   53 1    
     5    4    5 1    
     6    5    6 1    
     7    6    7 1    
     8    6    8 1    
     9    7   12 1    
    10    8    9 1    
    11    8   10 1    
    12   10   11 1    
    13   10   12 1    
    14   12   13 1    
    15   13   14 1    
    16   13   22 1    
    17   14   15 2    
    18   15   16 1    
    19   16   17 ar   
    20   16   22 ar   
    21   17   18 1    
    22   17   19 ar   
    23   19   20 ar   
    24   20   21 ar   
    25   21   22 ar   
    26   23   24 1    
    27   23   40 2    
    28   24   25 2    
    29   24   26 am   
    30   26   27 am   
    31   27   28 2    
    32   27   29 1    
    33   29   30 2    
    34   29   40 1    
    35   30   31 1    
    36   31   32 ar   
    37   31   38 ar   
    38   32   33 ar   
    39   33   34 1    
    40   33   35 ar   
    41   35   36 1    
    42   35   37 ar   
    43   37   38 ar   
    44   38   39 1    
    45   39   40 1    
    46   39   41 1    
    47   41   42 1    
    48   42   43 1    
    49   42   44 1    
    50   44   45 1    
    51   44   46 1    
    52   46   47 1    
    53   46   48 1    
    54   48   49 1    
    55   49   50 1    
    56   50   51 ar   
    57   50   52 ar   
    58   50   53 1    
@<TRIPOS>SUBSTRUCTURE
     1 FAD401      1 GROUP   
@<TRIPOS>SET
ATOM$ORANGE STATIC     ATOMS   COLORGROUP SYSTEM 
54 5 5 6 6 8 8 10 10 12 12 14 14 16 16 17 17 20 \
20 22 22 24 24 27 27 29 29 31 31 32 32 33 33 34 34 35 \
35 36 36 37 37 38 38 40 40 41 41 42 42 44 44 46 46 48 \
48 

