#    Name: 5z8t_1_FAD_CAVITY_N1_4
#    Modification time : Fri May 22 19:31:18 2020

@<TRIPOS>MOLECULE
5z8t_1_FAD_CAVITY_N1_4
  109     0     5     0     0
SMALL
NO_CHARGES


@<TRIPOS>ATOM
      1 OG         63.1000  182.8700   84.4700 O.3       1 SER1        0.0000 
      2 OG         63.8900  179.1300   89.5600 O.3       1 SER1        0.0000 
      3 OG         64.4200  183.2900   85.0200 O.3       1 SER1        0.0000 
      4 OG         64.7200  184.0300   83.7500 O.3       1 SER1        0.0000 
      5 OG         65.0100  184.7600   82.4700 O.3       1 SER1        0.0000 
      6 OG         64.0900  185.2600   84.3100 O.3       1 SER1        0.0000 
      7 OG         64.3800  186.0000   83.0400 O.3       1 SER1        0.0000 
      8 OG         64.8800  181.5200   89.4000 O.3       1 SER1        0.0000 
      9 OG         65.1700  182.2500   88.1200 O.3       1 SER1        0.0000 
     10 OG         65.4600  182.9900   86.8500 O.3       1 SER1        0.0000 
     11 OG         64.2500  182.7600   89.9700 O.3       1 SER1        0.0000 
     12 OG         64.5400  183.4900   88.6900 O.3       1 SER1        0.0000 
     13 OG         63.9100  184.7300   89.2600 O.3       1 SER1        0.0000 
     14 OG         67.1300  181.4400   88.1100 O.3       1 SER1        0.0000 
     15 OG         66.7900  183.4100   87.4000 O.3       1 SER1        0.0000 
     16 OG         66.1600  184.6500   87.9600 O.3       1 SER1        0.0000 
     17 OG         68.8000  179.9000   89.3600 O.3       1 SER1        0.0000 
     18 OG         69.0900  180.6300   88.0900 O.3       1 SER1        0.0000 
     19 OG         68.4600  181.8700   88.6500 O.3       1 SER1        0.0000 
     20 OG         68.1200  183.8400   87.9400 O.3       1 SER1        0.0000 
     21 OG         69.7900  182.2900   89.2000 O.3       1 SER1        0.0000 
     22 OG         69.1600  183.5300   89.7700 O.3       1 SER1        0.0000 
     23 OG         69.4500  184.2600   88.4900 O.3       1 SER1        0.0000 
     24 N          62.5100  181.4000   87.0300 N.am      2 ALA2        0.0000 
     25 N          61.8800  182.6400   87.5900 N.am      2 ALA2        0.0000 
     26 N          62.1700  183.3700   86.3200 N.am      2 ALA2        0.0000 
     27 N          63.2600  180.3600   90.1300 N.am      2 ALA2        0.0000 
     28 N          63.5500  181.1000   88.8500 N.am      2 ALA2        0.0000 
     29 N          63.8400  181.8300   87.5800 N.am      2 ALA2        0.0000 
     30 N          62.6300  181.6000   90.6900 N.am      2 ALA2        0.0000 
     31 N          62.9200  182.3300   89.4200 N.am      2 ALA2        0.0000 
     32 N          63.2100  183.0700   88.1400 N.am      2 ALA2        0.0000 
     33 N          63.5000  183.8000   86.8700 N.am      2 ALA2        0.0000 
     34 N          62.5800  184.3100   88.7100 N.am      2 ALA2        0.0000 
     35 O          66.0900  181.7500   86.2800 O.2       2 ALA2        0.0000 
     36 O          66.3800  182.4800   85.0000 O.2       2 ALA2        0.0000 
     37 O          67.2600  184.6800   81.1800 O.2       2 ALA2        0.0000 
     38 O          65.7500  183.7200   85.5700 O.2       2 ALA2        0.0000 
     39 O          66.0500  184.4500   84.3000 O.2       2 ALA2        0.0000 
     40 O          66.3400  185.1800   83.0200 O.2       2 ALA2        0.0000 
     41 O          63.9600  182.0300   91.2400 O.2       2 ALA2        0.0000 
     42 N          64.8300  184.2200   87.4100 N.am      2 ALA2        0.0000 
     43 O          67.7100  182.9100   85.5500 O.2       2 ALA2        0.0000 
     44 O          68.0100  183.6400   84.2800 O.2       2 ALA2        0.0000 
     45 O          68.3000  184.3700   83.0000 O.2       2 ALA2        0.0000 
     46 N          68.5900  185.1000   81.7200 N.am      2 ALA2        0.0000 
     47 N          69.3800  181.3600   86.8100 N.am      2 ALA2        0.0000 
     48 N          68.7500  182.6000   87.3800 N.am      2 ALA2        0.0000 
     49 N          69.6300  184.8000   83.5500 N.am      2 ALA2        0.0000 
     50 N          68.4100  184.5700   86.6700 N.am      2 ALA2        0.0000 
     51 N          70.0800  183.0200   87.9300 N.am      2 ALA2        0.0000 
     52 N          69.7400  184.9900   87.2200 N.am      2 ALA2        0.0000 
     53 N          71.7000  184.1800   87.2000 N.am      2 ALA2        0.0000 
     54 O          70.7800  184.6900   89.0400 O.2       2 ALA2        0.0000 
     55 CZ         62.8500  179.4300   87.7400 C.ar      3 PHE5        0.0000 
     56 CZ         63.1400  180.1700   86.4600 C.ar      3 PHE5        0.0000 
     57 CZ         62.8000  182.1400   85.7500 C.ar      3 PHE5        0.0000 
     58 CZ         64.1800  179.8600   88.2800 C.ar      3 PHE5        0.0000 
     59 CZ         64.4700  180.5900   87.0100 C.ar      3 PHE5        0.0000 
     60 CZ         64.7600  181.3200   85.7300 C.ar      3 PHE5        0.0000 
     61 CZ         65.0500  182.0600   84.4600 C.ar      3 PHE5        0.0000 
     62 CZ         64.1300  182.5600   86.3000 C.ar      3 PHE5        0.0000 
     63 CZ         66.6300  185.9200   81.7400 C.ar      3 PHE5        0.0000 
     64 CZ         66.9200  186.6500   80.4700 C.ar      3 PHE5        0.0000 
     65 CZ         65.7100  186.4200   83.5900 C.ar      3 PHE5        0.0000 
     66 CZ         67.3800  184.8800   84.8400 C.ar      3 PHE5        0.0000 
     67 CZ         67.6700  185.6100   83.5700 C.ar      3 PHE5        0.0000 
     68 CZ         67.9600  186.3400   82.2900 C.ar      3 PHE5        0.0000 
     69 CZ         68.2500  187.0700   81.0100 C.ar      3 PHE5        0.0000 
     70 CZ         67.3300  187.5800   82.8600 C.ar      3 PHE5        0.0000 
     71 CZ         67.9200  189.0400   80.3100 C.ar      3 PHE5        0.0000 
     72 CZ         68.7100  185.3000   85.3900 C.ar      3 PHE5        0.0000 
     73 CZ         69.0000  186.0300   84.1200 C.ar      3 PHE5        0.0000 
     74 CZ         69.2900  186.7700   82.8400 C.ar      3 PHE5        0.0000 
     75 CZ         67.7800  185.8100   87.2300 C.ar      3 PHE5        0.0000 
     76 CZ         68.9500  188.7400   82.1300 C.ar      3 PHE5        0.0000 
     77 CZ         69.2500  189.4700   80.8500 C.ar      3 PHE5        0.0000 
     78 CZ         70.0400  185.7300   85.9400 C.ar      3 PHE5        0.0000 
     79 CZ         70.3300  186.4600   84.6600 C.ar      3 PHE5        0.0000 
     80 CZ         70.6200  187.1900   83.3900 C.ar      3 PHE5        0.0000 
     81 CZ         70.9100  187.9200   82.1100 C.ar      3 PHE5        0.0000 
     82 CZ         69.1100  186.2300   87.7800 C.ar      3 PHE5        0.0000 
     83 CZ         70.2800  189.1600   82.6800 C.ar      3 PHE5        0.0000 
     84 CZ         71.3700  186.1500   86.4900 C.ar      3 PHE5        0.0000 
     85 CA         65.3000  185.4900   81.1900 C.3       4 GLY6        0.0000 
     86 CA         62.2900  183.5700   89.9800 C.3       4 GLY6        0.0000 
     87 CA         66.1400  179.0500   88.2700 C.3       4 GLY6        0.0000 
     88 CA         66.4300  179.7800   86.9900 C.3       4 GLY6        0.0000 
     89 CA         66.7200  180.5100   85.7100 C.3       4 GLY6        0.0000 
     90 CA         65.2200  179.5500   90.1100 C.3       4 GLY6        0.0000 
     91 CA         64.2900  180.0600   91.9500 C.3       4 GLY6        0.0000 
     92 CA         64.5900  180.7900   90.6800 C.3       4 GLY6        0.0000 
     93 CA         65.4200  185.6900   84.8600 C.3       4 GLY6        0.0000 
     94 CA         67.4700  179.4700   88.8200 C.3       4 GLY6        0.0000 
     95 CA         68.0500  180.9400   86.2600 C.3       4 GLY6        0.0000 
     96 CA         66.8400  180.7100   89.3800 C.3       4 GLY6        0.0000 
     97 CA         67.4200  182.1700   86.8300 C.3       4 GLY6        0.0000 
     98 CA         68.8800  185.8300   80.4500 C.3       4 GLY6        0.0000 
     99 CA         67.0800  184.1400   86.1200 C.3       4 GLY6        0.0000 
    100 CA         68.5400  187.8100   79.7400 C.3       4 GLY6        0.0000 
    101 CA         69.9200  185.5300   82.2700 C.3       4 GLY6        0.0000 
    102 CA         70.2100  186.2600   81.0000 C.3       4 GLY6        0.0000 
    103 CA         70.5000  186.9900   79.7200 C.3       4 GLY6        0.0000 
    104 CA         71.4100  183.4500   88.4700 C.3       4 GLY6        0.0000 
    105 DU         65.5100  180.2800   88.8300 H         5 CUB7        0.0000 
    106 DU         65.8000  181.0200   87.5600 H         5 CUB7        0.0000 
    107 DU         69.5800  187.5000   81.5600 H         5 CUB7        0.0000 
    108 DU         69.8700  188.2300   80.2900 H         5 CUB7        0.0000 
    109 DU         71.0700  185.4200   87.7600 H         5 CUB7        0.0000 
@<TRIPOS>BOND
@<TRIPOS>SUBSTRUCTURE
     1 SER1        1 GROUP   
     2 ALA2       24 GROUP   
     3 PHE5       55 GROUP   
     4 GLY6       85 GROUP   
     5 CUB7      105 GROUP   
@<TRIPOS>SET

