#    Name: 5z8t_1_FAD
#    Modification time : Fri May 22 19:31:15 2020

@<TRIPOS>MOLECULE
5z8t_1_FAD
   53    58     1     0     1
SMALL
NO_CHARGES


@<TRIPOS>ATOM
      1 PA         74.8630  185.8320   90.0830 P.3       1 FAD401      0.0000 
      2 O1A        74.3780  184.6410   90.8680 O.co2     1 FAD401      0.0000 
      3 O2A        74.5900  187.2600   90.5260 O.co2     1 FAD401      0.0000 
      4 O5B        76.4650  185.6340   89.9220 O.3       1 FAD401      0.0000 
      5 C5B        77.2690  186.6220   89.2810 C.3       1 FAD401      0.0000 
      6 C4B        78.6540  186.0530   89.0880 C.3       1 FAD401      0.0000 
      7 O4B        79.1000  185.5310   90.3160 O.3       1 FAD401      0.0000 
      8 C3B        78.6660  184.8840   88.1430 C.3       1 FAD401      0.0000 
      9 O3B        79.9450  184.8870   87.4660 O.3       1 FAD401      0.0000 
     10 C2B        78.4800  183.6670   89.0340 C.3       1 FAD401      0.0000 
     11 O2B        79.0010  182.4770   88.4630 O.3       1 FAD401      0.0000 
     12 C1B        79.2430  184.1040   90.2440 C.3       1 FAD401      0.0000 
     13 N9A        78.7960  183.5640   91.5440 N.pl3     1 FAD401      0.0000 
     14 C8A        77.8390  184.0880   92.3370 C.2       1 FAD401      0.0000 
     15 N7A        77.7450  183.3870   93.4920 N.2       1 FAD401      0.0000 
     16 C5A        78.6400  182.4010   93.4410 C.ar      1 FAD401      0.0000 
     17 C6A        79.0240  181.3130   94.3340 C.ar      1 FAD401      0.0000 
     18 N6A        78.3750  181.1880   95.5190 N.pl3     1 FAD401      0.0000 
     19 N1A        80.0320  180.4860   93.9360 N.ar      1 FAD401      0.0000 
     20 C2A        80.6420  180.6480   92.7480 C.ar      1 FAD401      0.0000 
     21 N3A        80.3200  181.6450   91.8920 N.ar      1 FAD401      0.0000 
     22 C4A        79.3560  182.5320   92.1790 C.ar      1 FAD401      0.0000 
     23 N1         64.9220  183.6720   88.1210 N.2       1 FAD401      0.0000 
     24 C2         63.7600  183.2550   88.7190 C.2       1 FAD401      0.0000 
     25 O2         63.7520  183.0660   89.9610 O.2       1 FAD401      0.0000 
     26 N3         62.6260  183.0440   88.0190 N.am      1 FAD401      0.0000 
     27 C4         62.6000  183.2150   86.6930 C.2       1 FAD401      0.0000 
     28 O4         61.5480  183.0070   86.0690 O.2       1 FAD401      0.0000 
     29 C4X        63.8400  183.6670   85.9640 C.2       1 FAD401      0.0000 
     30 N5         63.8620  183.8870   84.6490 N.2       1 FAD401      0.0000 
     31 C5X        64.9680  184.3320   84.0120 C.ar      1 FAD401      0.0000 
     32 C6         64.9130  184.5630   82.6540 C.ar      1 FAD401      0.0000 
     33 C7         66.0040  185.0370   81.9510 C.ar      1 FAD401      0.0000 
     34 C7M        65.8680  185.2160   80.4660 C.3       1 FAD401      0.0000 
     35 C8         67.2660  185.2610   82.6670 C.ar      1 FAD401      0.0000 
     36 C8M        68.5060  185.7540   81.9670 C.3       1 FAD401      0.0000 
     37 C9         67.3140  185.0420   84.0310 C.ar      1 FAD401      0.0000 
     38 C9A        66.2070  184.5940   84.7410 C.ar      1 FAD401      0.0000 
     39 N10        66.1890  184.3930   86.1220 N.pl3     1 FAD401      0.0000 
     40 C10        65.0040  183.9070   86.7590 C.2       1 FAD401      0.0000 
     41 C1'        67.3800  184.6470   86.9470 C.3       1 FAD401      0.0000 
     42 C2'        68.3190  183.4660   86.9530 C.3       1 FAD401      0.0000 
     43 O2'        67.6060  182.3170   87.4540 O.3       1 FAD401      0.0000 
     44 C3'        69.5650  183.7570   87.7900 C.3       1 FAD401      0.0000 
     45 O3'        69.2440  183.7580   89.1740 O.3       1 FAD401      0.0000 
     46 C4'        70.2530  185.0980   87.4470 C.3       1 FAD401      0.0000 
     47 O4'        70.4870  185.1110   86.0150 O.3       1 FAD401      0.0000 
     48 C5'        71.5180  185.3690   88.2570 C.3       1 FAD401      0.0000 
     49 O5'        72.4420  184.2630   88.2180 O.3       1 FAD401      0.0000 
     50 P          74.0070  184.4450   87.7710 P.3       1 FAD401      0.0000 
     51 O1P        74.7920  183.2100   88.2520 O.co2     1 FAD401      0.0000 
     52 O2P        74.0420  184.9610   86.3730 O.co2     1 FAD401      0.0000 
     53 O3P        74.4600  185.7820   88.5490 O.3       1 FAD401      0.0000 
@<TRIPOS>BOND
     1    1    2 ar   
     2    1    3 ar   
     3    1    4 1    
     4    1   53 1    
     5    4    5 1    
     6    5    6 1    
     7    6    7 1    
     8    6    8 1    
     9    7   12 1    
    10    8    9 1    
    11    8   10 1    
    12   10   11 1    
    13   10   12 1    
    14   12   13 1    
    15   13   14 1    
    16   13   22 1    
    17   14   15 2    
    18   15   16 1    
    19   16   17 ar   
    20   16   22 ar   
    21   17   18 1    
    22   17   19 ar   
    23   19   20 ar   
    24   20   21 ar   
    25   21   22 ar   
    26   23   24 1    
    27   23   40 2    
    28   24   25 2    
    29   24   26 am   
    30   26   27 am   
    31   27   28 2    
    32   27   29 1    
    33   29   30 2    
    34   29   40 1    
    35   30   31 1    
    36   31   32 ar   
    37   31   38 ar   
    38   32   33 ar   
    39   33   34 1    
    40   33   35 ar   
    41   35   36 1    
    42   35   37 ar   
    43   37   38 ar   
    44   38   39 1    
    45   39   40 1    
    46   39   41 1    
    47   41   42 1    
    48   42   43 1    
    49   42   44 1    
    50   44   45 1    
    51   44   46 1    
    52   46   47 1    
    53   46   48 1    
    54   48   49 1    
    55   49   50 1    
    56   50   51 ar   
    57   50   52 ar   
    58   50   53 1    
@<TRIPOS>SUBSTRUCTURE
     1 FAD401      1 GROUP   
@<TRIPOS>SET
ATOM$ORANGE STATIC     ATOMS   COLORGROUP SYSTEM 
54 5 5 6 6 8 8 10 10 12 12 14 14 16 16 17 17 20 \
20 22 22 24 24 27 27 29 29 31 31 32 32 33 33 34 34 35 \
35 36 36 37 37 38 38 40 40 41 41 42 42 44 44 46 46 48 \
48 

