#    Name: 5yoa_1_CO8
#    Modification time : Fri May 22 19:14:47 2020

@<TRIPOS>MOLECULE
5yoa_1_CO8
   57    59     1     0     0
SMALL
NO_CHARGES


@<TRIPOS>ATOM
      1 N1A       -32.0860   38.1200  -16.8080 N.ar      1 CO8401      0.0000 
      2 C2A       -33.0160   38.6350  -15.9620 C.ar      1 CO8401      0.0000 
      3 N3A       -33.0330   38.2500  -14.6580 N.ar      1 CO8401      0.0000 
      4 C4A       -32.1420   37.3540  -14.1920 C.ar      1 CO8401      0.0000 
      5 C5A       -31.2290   36.8370  -15.0270 C.ar      1 CO8401      0.0000 
      6 C6A       -31.2070   37.2360  -16.3590 C.ar      1 CO8401      0.0000 
      7 N6A       -30.2520   36.7360  -17.3350 N.pl3     1 CO8401      0.0000 
      8 N7A       -30.4640   35.9850  -14.3260 N.2       1 CO8401      0.0000 
      9 C8A       -30.9130   35.9680  -13.0540 C.2       1 CO8401      0.0000 
     10 N9A       -31.9440   36.8130  -12.9650 N.pl3     1 CO8401      0.0000 
     11 C1B       -32.7630   37.1380  -11.8430 C.3       1 CO8401      0.0000 
     12 C2B       -32.8110   36.1530  -10.9550 C.3       1 CO8401      0.0000 
     13 O2B       -33.6630   35.0410  -11.4180 O.3       1 CO8401      0.0000 
     14 C3B       -33.4510   36.8910   -9.7540 C.3       1 CO8401      0.0000 
     15 O3B       -34.7370   37.1920  -10.0210 O.3       1 CO8401      0.0000 
     16 P3B       -35.7660   37.7120   -8.8130 P.3       1 CO8401      0.0000 
     17 O7A       -34.9580   37.9230   -7.5530 O.co2     1 CO8401      0.0000 
     18 O8A       -36.4710   38.9880   -9.2580 O.co2     1 CO8401      0.0000 
     19 O9A       -36.7910   36.6430   -8.5380 O.co2     1 CO8401      0.0000 
     20 C4B       -32.5530   38.1950   -9.7100 C.3       1 CO8401      0.0000 
     21 O4B       -32.1820   38.4050  -10.9570 O.3       1 CO8401      0.0000 
     22 C5B       -31.3150   37.9550   -8.8190 C.3       1 CO8401      0.0000 
     23 O5B       -30.2870   37.3580   -9.6100 O.3       1 CO8401      0.0000 
     24 P1A       -28.7410   37.1890   -9.0040 P.3       1 CO8401      0.0000 
     25 O1A       -28.6850   37.7100   -7.5900 O.co2     1 CO8401      0.0000 
     26 O2A       -28.3770   35.7210   -9.0460 O.co2     1 CO8401      0.0000 
     27 O3A       -27.6610   38.0040   -9.9760 O.3       1 CO8401      0.0000 
     28 P2A       -26.5920   39.1960   -9.5620 P.3       1 CO8401      0.0000 
     29 O4A       -26.1660   39.1070   -8.1190 O.co2     1 CO8401      0.0000 
     30 O5A       -27.2140   40.5500   -9.8080 O.co2     1 CO8401      0.0000 
     31 O6A       -25.2330   38.9970  -10.5320 O.3       1 CO8401      0.0000 
     32 CBP       -23.7620   37.5490  -11.9120 C.3       1 CO8401      0.0000 
     33 CCP       -25.2320   38.0000  -11.5450 C.3       1 CO8401      0.0000 
     34 CDP       -23.2350   38.4540  -13.0810 C.3       1 CO8401      0.0000 
     35 CEP       -23.8080   36.0800  -12.3760 C.3       1 CO8401      0.0000 
     36 CAP       -22.8540   37.7380  -10.6430 C.3       1 CO8401      0.0000 
     37 OAP       -23.5480   37.3890   -9.4870 O.3       1 CO8401      0.0000 
     38 C9P       -21.5120   36.9550  -10.6830 C.2       1 CO8401      0.0000 
     39 O9P       -20.9380   36.7240  -11.6970 O.2       1 CO8401      0.0000 
     40 N8P       -20.9470   36.5180   -9.3680 N.am      1 CO8401      0.0000 
     41 C7P       -19.7050   35.7740   -9.2390 C.3       1 CO8401      0.0000 
     42 C6P       -18.4910   36.5210   -9.8540 C.3       1 CO8401      0.0000 
     43 C5P       -17.7740   35.4910  -10.7390 C.2       1 CO8401      0.0000 
     44 O5P       -16.6070   35.2770  -10.5800 O.2       1 CO8401      0.0000 
     45 N4P       -18.6240   34.8110  -11.7480 N.am      1 CO8401      0.0000 
     46 C3P       -18.2100   33.7890  -12.7150 C.3       1 CO8401      0.0000 
     47 C2P       -16.7730   33.9560  -13.1880 C.3       1 CO8401      0.0000 
     48 S1P       -15.7660   32.6370  -12.4080 S.3       1 CO8401      0.0000 
     49 C1'       -14.4640   32.1680  -13.6160 C.2       1 CO8401      0.0000 
     50 O1'       -14.0690   32.9800  -14.4100 O.2       1 CO8401      0.0000 
     51 C2'       -13.9130   30.7230  -13.5580 C.3       1 CO8401      0.0000 
     52 C3'       -14.6680   29.7910  -14.5240 C.3       1 CO8401      0.0000 
     53 C4'       -13.8050   29.8410  -15.7850 C.3       1 CO8401      0.0000 
     54 C5'       -14.2160   28.7140  -16.7410 C.3       1 CO8401      0.0000 
     55 C6'       -14.6160   29.3480  -18.0960 C.3       1 CO8401      0.0000 
     56 C7'       -16.1160   29.0720  -18.2930 C.3       1 CO8401      0.0000 
     57 C8'       -16.6280   29.5020  -19.6910 C.3       1 CO8401      0.0000 
@<TRIPOS>BOND
     1    1    2 ar   
     2    1    6 ar   
     3    2    3 ar   
     4    3    4 ar   
     5    4    5 ar   
     6    4   10 1    
     7    5    6 ar   
     8    5    8 1    
     9    6    7 1    
    10    8    9 2    
    11    9   10 1    
    12   10   11 1    
    13   11   12 1    
    14   11   21 1    
    15   12   13 1    
    16   12   14 1    
    17   14   15 1    
    18   14   20 1    
    19   15   16 1    
    20   16   17 ar   
    21   16   18 ar   
    22   16   19 ar   
    23   20   21 1    
    24   20   22 1    
    25   22   23 1    
    26   23   24 1    
    27   24   25 ar   
    28   24   26 ar   
    29   24   27 1    
    30   27   28 1    
    31   28   29 ar   
    32   28   30 ar   
    33   28   31 1    
    34   31   33 1    
    35   32   33 1    
    36   32   34 1    
    37   32   35 1    
    38   32   36 1    
    39   36   37 1    
    40   36   38 1    
    41   38   39 2    
    42   38   40 am   
    43   40   41 1    
    44   41   42 1    
    45   42   43 1    
    46   43   44 2    
    47   43   45 am   
    48   45   46 1    
    49   46   47 1    
    50   47   48 1    
    51   48   49 1    
    52   49   50 2    
    53   49   51 1    
    54   51   52 1    
    55   52   53 1    
    56   53   54 1    
    57   54   55 1    
    58   55   56 1    
    59   56   57 1    
@<TRIPOS>SUBSTRUCTURE
     1 CO8401      1 GROUP   
@<TRIPOS>SET

