#    Name: 6ppj_1_ANP_CAVITY_N1_4
#    Modification time : Fri May 22 19:32:19 2020

@<TRIPOS>MOLECULE
6ppj_1_ANP_CAVITY_N1_4
  110     0     6     0     0
SMALL
NO_CHARGES


@<TRIPOS>ATOM
      1 OG        158.3900  113.8100  126.1800 O.3       1 SER1        0.0000 
      2 OG        158.2400  115.1400  125.4900 O.3       1 SER1        0.0000 
      3 OG        157.6200  114.3400  127.3600 O.3       1 SER1        0.0000 
      4 OG        157.4800  115.6600  126.6700 O.3       1 SER1        0.0000 
      5 OG        159.8100  112.9500  127.4900 O.3       1 SER1        0.0000 
      6 OG        158.1400  115.3300  129.1600 O.3       1 SER1        0.0000 
      7 OG        158.0000  116.6500  128.4700 O.3       1 SER1        0.0000 
      8 OG        160.7700  109.9600  131.3500 O.3       1 SER1        0.0000 
      9 OG        160.6300  111.2900  130.6600 O.3       1 SER1        0.0000 
     10 OG        160.4800  112.6100  129.9800 O.3       1 SER1        0.0000 
     11 OG        159.7200  113.1400  131.1600 O.3       1 SER1        0.0000 
     12 OG        160.0900  115.4600  132.2700 O.3       1 SER1        0.0000 
     13 N         155.9200  112.6900  121.2600 N.am      2 ALA2        0.0000 
     14 N         157.2000  113.1600  121.8900 N.am      2 ALA2        0.0000 
     15 O         157.0500  114.4800  121.2000 O.2       2 ALA2        0.0000 
     16 O         156.7300  111.0300  124.4400 O.2       2 ALA2        0.0000 
     17 O         156.2900  115.0100  122.3800 O.2       2 ALA2        0.0000 
     18 N         154.7700  116.0600  124.7400 N.am      2 ALA2        0.0000 
     19 N         153.6800  113.1400  129.1600 N.am      2 ALA2        0.0000 
     20 O         158.3400  114.9500  121.8200 O.2       2 ALA2        0.0000 
     21 O         158.0100  111.5000  125.0600 O.2       2 ALA2        0.0000 
     22 N         156.1900  115.2000  126.0500 N.am      2 ALA2        0.0000 
     23 N         156.5900  105.1200  132.7200 N.am      2 ALA2        0.0000 
     24 N         155.4300  115.7300  127.2300 N.am      2 ALA2        0.0000 
     25 N         155.2900  117.0500  126.5400 N.am      2 ALA2        0.0000 
     26 N         154.9600  113.6000  129.7800 N.am      2 ALA2        0.0000 
     27 N         159.4400  110.6300  126.3700 N.am      2 ALA2        0.0000 
     28 N         158.8200  109.8300  128.2400 N.am      2 ALA2        0.0000 
     29 N         158.6800  111.1600  127.5500 N.am      2 ALA2        0.0000 
     30 N         158.4900  106.3800  131.4800 N.am      2 ALA2        0.0000 
     31 N         158.3500  107.7100  130.7900 N.am      2 ALA2        0.0000 
     32 N         158.2000  109.0300  130.1000 N.am      2 ALA2        0.0000 
     33 N         160.3900  107.6500  130.2300 N.am      2 ALA2        0.0000 
     34 N         160.2500  108.9700  129.5500 N.am      2 ALA2        0.0000 
     35 N         160.1000  110.3000  128.8600 N.am      2 ALA2        0.0000 
     36 N         159.9600  111.6200  128.1800 N.am      2 ALA2        0.0000 
     37 N         159.4900  109.5000  130.7300 N.am      2 ALA2        0.0000 
     38 N         161.3900  110.7600  129.4800 N.am      2 ALA2        0.0000 
     39 O         161.2400  112.0900  128.8000 O.2       2 ALA2        0.0000 
     40 OD1       155.3000  111.9000  123.1300 O.co2     3 ASP3        0.0000 
     41 OD1       155.1500  113.2200  122.4400 O.co2     3 ASP3        0.0000 
     42 OD1       155.0100  114.5500  121.7600 O.co2     3 ASP3        0.0000 
     43 OD1       154.2500  115.0700  122.9400 O.co2     3 ASP3        0.0000 
     44 OD1       156.5800  112.3600  123.7500 O.co2     3 ASP3        0.0000 
     45 OD1       156.4400  113.6800  123.0700 O.co2     3 ASP3        0.0000 
     46 OD1       155.9600  111.5600  125.6200 O.co2     3 ASP3        0.0000 
     47 OD1       155.8200  112.8900  124.9300 O.co2     3 ASP3        0.0000 
     48 OD1       155.6700  114.2100  124.2500 O.co2     3 ASP3        0.0000 
     49 OD1       155.5300  115.5400  123.5600 O.co2     3 ASP3        0.0000 
     50 OD1       154.9100  114.7400  125.4300 O.co2     3 ASP3        0.0000 
     51 OD1       154.2900  113.9400  127.2900 O.co2     3 ASP3        0.0000 
     52 OD1       159.2500  113.0900  121.3300 O.co2     3 ASP3        0.0000 
     53 OD1       158.4800  113.6200  122.5100 O.co2     3 ASP3        0.0000 
     54 OD1       157.8700  112.8200  124.3800 O.co2     3 ASP3        0.0000 
     55 OD1       157.7200  114.1500  123.6900 O.co2     3 ASP3        0.0000 
     56 OD1       157.5400  109.3700  127.6100 O.co2     3 ASP3        0.0000 
     57 OD1       157.3900  110.7000  126.9300 O.co2     3 ASP3        0.0000 
     58 OD1       157.2500  112.0200  126.2400 O.co2     3 ASP3        0.0000 
     59 OD1       156.9200  108.5700  129.4800 O.co2     3 ASP3        0.0000 
     60 OD1       156.6300  111.2200  128.1100 O.co2     3 ASP3        0.0000 
     61 OD1       156.4800  112.5500  127.4200 O.co2     3 ASP3        0.0000 
     62 OD1       156.3400  113.8800  126.7400 O.co2     3 ASP3        0.0000 
     63 OD1       156.4500  106.4500  132.0300 O.co2     3 ASP3        0.0000 
     64 OD1       156.1600  109.1000  130.6600 O.co2     3 ASP3        0.0000 
     65 OD1       155.7200  113.0800  128.6000 O.co2     3 ASP3        0.0000 
     66 OD1       155.5800  114.4000  127.9100 O.co2     3 ASP3        0.0000 
     67 OD1       155.8300  105.6500  133.9000 O.co2     3 ASP3        0.0000 
     68 OD1       155.5400  108.3000  132.5300 O.co2     3 ASP3        0.0000 
     69 OD1       155.3900  109.6300  131.8400 O.co2     3 ASP3        0.0000 
     70 OD1       159.2900  111.9600  125.6900 O.co2     3 ASP3        0.0000 
     71 OD1       159.0000  114.6100  124.3100 O.co2     3 ASP3        0.0000 
     72 OD1       158.0600  110.3600  129.4200 O.co2     3 ASP3        0.0000 
     73 OD1       157.9100  111.6900  128.7300 O.co2     3 ASP3        0.0000 
     74 NZ        155.3800  116.8600  122.8700 N.4       4 LYS4        0.0000 
     75 NZ        157.5700  115.4700  123.0000 N.4       4 LYS4        0.0000 
     76 NZ        156.8100  116.0000  124.1800 N.4       4 LYS4        0.0000 
     77 NZ        156.0500  116.5300  125.3600 N.4       4 LYS4        0.0000 
     78 NZ        157.3300  116.9900  125.9900 N.4       4 LYS4        0.0000 
     79 CA        156.0600  111.3700  121.9500 C.3       5 GLY6        0.0000 
     80 CA        157.9600  112.6300  120.7100 C.3       5 GLY6        0.0000 
     81 CA        157.3400  111.8300  122.5700 C.3       5 GLY6        0.0000 
     82 CA        157.0700  107.2500  130.1700 C.3       5 GLY6        0.0000 
     83 CA        156.3000  107.7700  131.3500 C.3       5 GLY6        0.0000 
     84 CA        159.7800  106.8500  132.1000 C.3       5 GLY6        0.0000 
     85 CA        159.0500  113.4800  128.6700 C.3       5 GLY6        0.0000 
     86 CA        158.2900  114.0000  129.8500 C.3       5 GLY6        0.0000 
     87 CA        161.6800  108.1100  130.8600 C.3       5 GLY6        0.0000 
     88 CA        161.5300  109.4300  130.1700 C.3       5 GLY6        0.0000 
     89 CA        159.5700  114.4700  130.4700 C.3       5 GLY6        0.0000 
     90 CA        162.9600  108.5700  131.4800 C.3       5 GLY6        0.0000 
     91 CA        162.8200  109.9000  130.7900 C.3       5 GLY6        0.0000 
     92 DU        157.1000  113.3500  125.5600 H         6 CUB7        0.0000 
     93 DU        156.9600  114.6700  124.8700 H         6 CUB7        0.0000 
     94 DU        158.5300  112.4900  126.8700 H         6 CUB7        0.0000 
     95 DU        157.7700  113.0100  128.0400 H         6 CUB7        0.0000 
     96 DU        157.7300  106.9100  132.6600 H         6 CUB7        0.0000 
     97 DU        157.5900  108.2400  131.9700 H         6 CUB7        0.0000 
     98 DU        157.4400  109.5600  131.2800 H         6 CUB7        0.0000 
     99 DU        157.3000  110.8900  130.6000 H         6 CUB7        0.0000 
    100 DU        157.1500  112.2100  129.9100 H         6 CUB7        0.0000 
    101 DU        157.0100  113.5400  129.2200 H         6 CUB7        0.0000 
    102 DU        156.8600  114.8700  128.5400 H         6 CUB7        0.0000 
    103 DU        156.7200  116.1900  127.8500 H         6 CUB7        0.0000 
    104 DU        159.6300  108.1700  131.4100 H         6 CUB7        0.0000 
    105 DU        159.3400  110.8200  130.0400 H         6 CUB7        0.0000 
    106 DU        159.2000  112.1500  129.3500 H         6 CUB7        0.0000 
    107 DU        158.7200  110.0200  131.9100 H         6 CUB7        0.0000 
    108 DU        158.5800  111.3500  131.2200 H         6 CUB7        0.0000 
    109 DU        158.4300  112.6800  130.5300 H         6 CUB7        0.0000 
    110 DU        160.9200  108.6400  132.0400 H         6 CUB7        0.0000 
@<TRIPOS>BOND
@<TRIPOS>SUBSTRUCTURE
     1 SER1        1 GROUP   
     2 ALA2       13 GROUP   
     3 ASP3       40 GROUP   
     4 LYS4       74 GROUP   
     5 GLY6       79 GROUP   
     6 CUB7       92 GROUP   
@<TRIPOS>SET

