#    Name: 6ppj_1_ANP
#    Modification time : Fri May 22 19:32:18 2020

@<TRIPOS>MOLECULE
6ppj_1_ANP
   31    33     1     0     1
SMALL
NO_CHARGES


@<TRIPOS>ATOM
      1 PG        157.1640  112.7550  125.6530 P.3       1 ANP1102     0.0000 
      2 O1G       156.5730  113.9590  124.9720 O.co2     1 ANP1102     0.0000 
      3 O2G       157.7590  111.8500  124.6080 O.co2     1 ANP1102     0.0000 
      4 O3G       156.0580  112.0100  126.3520 O.co2     1 ANP1102     0.0000 
      5 PB        159.5980  112.2790  127.1000 P.3       1 ANP1102     0.0000 
      6 O1B       160.8280  113.1110  127.3260 O.co2     1 ANP1102     0.0000 
      7 O2B       159.6980  111.0730  126.2110 O.co2     1 ANP1102     0.0000 
      8 N3B       158.3130  113.2000  126.7160 N.3       1 ANP1102     0.0000 
      9 PA        160.1520  111.0720  129.7000 P.3       1 ANP1102     0.0000 
     10 O1A       160.5800  112.1610  130.6250 O.co2     1 ANP1102     0.0000 
     11 O2A       161.2020  110.2290  129.0580 O.co2     1 ANP1102     0.0000 
     12 O3A       159.2380  111.7010  128.5460 O.3       1 ANP1102     0.0000 
     13 O5'       159.0910  110.1330  130.4470 O.3       1 ANP1102     0.0000 
     14 C5'       159.1760  108.7000  130.2640 C.3       1 ANP1102     0.0000 
     15 C4'       158.8100  108.0160  131.5580 C.3       1 ANP1102     0.0000 
     16 O4'       159.8950  107.1360  131.9490 O.3       1 ANP1102     0.0000 
     17 C3'       158.5710  108.9400  132.7590 C.3       1 ANP1102     0.0000 
     18 O3'       157.5090  108.4620  133.5740 O.3       1 ANP1102     0.0000 
     19 C2'       159.9120  108.8950  133.4940 C.3       1 ANP1102     0.0000 
     20 O2'       159.7910  109.1690  134.8720 O.3       1 ANP1102     0.0000 
     21 C1'       160.3330  107.4520  133.2490 C.3       1 ANP1102     0.0000 
     22 N9        161.7740  107.2510  133.3030 N.pl3     1 ANP1102     0.0000 
     23 C8        162.7370  107.8770  132.5520 C.2       1 ANP1102     0.0000 
     24 N7        163.9500  107.4700  132.8460 N.2       1 ANP1102     0.0000 
     25 C5        163.7700  106.5240  133.8480 C.ar      1 ANP1102     0.0000 
     26 C6        164.6700  105.7280  134.5800 C.ar      1 ANP1102     0.0000 
     27 N6        165.9890  105.7570  134.4130 N.pl3     1 ANP1102     0.0000 
     28 N1        164.1470  104.8890  135.5060 N.ar      1 ANP1102     0.0000 
     29 C2        162.8180  104.8640  135.6700 C.ar      1 ANP1102     0.0000 
     30 N3        161.8780  105.5650  135.0420 N.ar      1 ANP1102     0.0000 
     31 C4        162.4300  106.3850  134.1340 C.ar      1 ANP1102     0.0000 
@<TRIPOS>BOND
     1    1    2 ar   
     2    1    3 ar   
     3    1    4 ar   
     4    1    8 1    
     5    5    6 ar   
     6    5    7 ar   
     7    5    8 1    
     8    5   12 1    
     9    9   10 ar   
    10    9   11 ar   
    11    9   12 1    
    12    9   13 1    
    13   13   14 1    
    14   14   15 1    
    15   15   16 1    
    16   15   17 1    
    17   16   21 1    
    18   17   18 1    
    19   17   19 1    
    20   19   20 1    
    21   19   21 1    
    22   21   22 1    
    23   22   23 1    
    24   22   31 1    
    25   23   24 2    
    26   24   25 1    
    27   25   26 ar   
    28   25   31 ar   
    29   26   27 1    
    30   26   28 ar   
    31   28   29 ar   
    32   29   30 ar   
    33   30   31 ar   
@<TRIPOS>SUBSTRUCTURE
     1 ANP1102     1 GROUP   
@<TRIPOS>SET
ATOM$ORANGE STATIC     ATOMS   COLORGROUP SYSTEM 
20 14 14 15 15 17 17 19 19 21 21 23 23 25 25 26 26 29 \
29 31 31 

