#    Name: 6bdo_3_FAD
#    Modification time : Fri May 22 19:29:42 2020

@<TRIPOS>MOLECULE
6bdo_3_FAD
   53    58     1     0     1
SMALL
NO_CHARGES


@<TRIPOS>ATOM
      1 PA        -23.4710   32.0300   -6.4890 P.3       1 FAD601      0.0000 
      2 O1A       -23.0930   31.2660   -5.2580 O.co2     1 FAD601      0.0000 
      3 O2A       -24.1440   33.2890   -6.0680 O.co2     1 FAD601      0.0000 
      4 O5B       -22.1400   32.3940   -7.3400 O.3       1 FAD601      0.0000 
      5 C5B       -21.8120   33.7730   -7.4760 C.3       1 FAD601      0.0000 
      6 C4B       -20.2740   33.9800   -7.2660 C.3       1 FAD601      0.0000 
      7 O4B       -19.8350   34.7770   -8.1860 O.3       1 FAD601      0.0000 
      8 C3B       -20.0730   34.6920   -5.9310 C.3       1 FAD601      0.0000 
      9 O3B       -18.9000   34.2800   -5.3100 O.3       1 FAD601      0.0000 
     10 C2B       -20.0130   36.1580   -6.3540 C.3       1 FAD601      0.0000 
     11 O2B       -19.3040   37.0410   -5.3250 O.3       1 FAD601      0.0000 
     12 C1B       -19.3380   36.1110   -7.4430 C.3       1 FAD601      0.0000 
     13 N9A       -19.5920   37.2730   -8.2140 N.pl3     1 FAD601      0.0000 
     14 C8A       -20.7740   37.9120   -8.4170 C.2       1 FAD601      0.0000 
     15 N7A       -20.5330   38.9880   -9.2100 N.2       1 FAD601      0.0000 
     16 C5A       -19.2060   39.0110   -9.4910 C.ar      1 FAD601      0.0000 
     17 C6A       -18.4270   39.8710  -10.2460 C.ar      1 FAD601      0.0000 
     18 N6A       -18.7170   41.0660  -11.0220 N.pl3     1 FAD601      0.0000 
     19 N1A       -17.0990   39.6550  -10.3620 N.ar      1 FAD601      0.0000 
     20 C2A       -16.5160   38.5840   -9.7320 C.ar      1 FAD601      0.0000 
     21 N3A       -17.2830   37.7310   -8.9880 N.ar      1 FAD601      0.0000 
     22 C4A       -18.6260   37.9500   -8.8710 C.ar      1 FAD601      0.0000 
     23 N1        -30.5440   26.0240   -3.8920 N.2       1 FAD601      0.0000 
     24 C2        -30.7670   24.6120   -3.6010 C.2       1 FAD601      0.0000 
     25 O2        -30.6000   23.7720   -4.4850 O.2       1 FAD601      0.0000 
     26 N3        -31.1890   24.1910   -2.2680 N.am      1 FAD601      0.0000 
     27 C4        -31.3830   25.1650   -1.2500 C.2       1 FAD601      0.0000 
     28 O4        -31.7140   24.8470   -0.1970 O.2       1 FAD601      0.0000 
     29 C4X       -31.1500   26.6030   -1.5630 C.2       1 FAD601      0.0000 
     30 N5        -31.3410   27.5750   -0.5440 N.2       1 FAD601      0.0000 
     31 C5X       -31.1090   29.0060   -0.8490 C.ar      1 FAD601      0.0000 
     32 C6        -31.3000   29.9740    0.1690 C.ar      1 FAD601      0.0000 
     33 C7        -31.0800   31.3200   -0.1150 C.ar      1 FAD601      0.0000 
     34 C7M       -31.3960   32.0230    1.2400 C.3       1 FAD601      0.0000 
     35 C8        -30.6770   31.7100   -1.4010 C.ar      1 FAD601      0.0000 
     36 C8M       -30.4670   33.2500   -1.5960 C.3       1 FAD601      0.0000 
     37 C9        -30.4920   30.7500   -2.4030 C.ar      1 FAD601      0.0000 
     38 C9A       -30.7070   29.3930   -2.1220 C.ar      1 FAD601      0.0000 
     39 N10       -30.5080   28.4030   -3.1660 N.pl3     1 FAD601      0.0000 
     40 C10       -30.7370   27.0030   -2.8720 C.2       1 FAD601      0.0000 
     41 C1'       -30.0770   28.8240   -4.5330 C.3       1 FAD601      0.0000 
     42 C2'       -28.5360   28.8100   -4.6520 C.3       1 FAD601      0.0000 
     43 O2'       -27.9950   29.6200   -3.6560 O.3       1 FAD601      0.0000 
     44 C3'       -28.1400   29.3620   -6.0010 C.3       1 FAD601      0.0000 
     45 O3'       -28.9890   28.8050   -6.9570 O.3       1 FAD601      0.0000 
     46 C4'       -26.6750   29.0390   -6.3430 C.3       1 FAD601      0.0000 
     47 O4'       -25.8490   29.9500   -5.7370 O.3       1 FAD601      0.0000 
     48 C5'       -26.4670   29.1140   -7.8760 C.3       1 FAD601      0.0000 
     49 O5'       -25.1230   28.8650   -8.2600 O.3       1 FAD601      0.0000 
     50 P         -24.1660   30.1320   -8.5170 P.3       1 FAD601      0.0000 
     51 O1P       -22.7350   29.6860   -8.5380 O.co2     1 FAD601      0.0000 
     52 O2P       -24.5290   30.7640   -9.8670 O.co2     1 FAD601      0.0000 
     53 O3P       -24.4750   31.1650   -7.3650 O.3       1 FAD601      0.0000 
@<TRIPOS>BOND
     1    1    2 ar   
     2    1    3 ar   
     3    1    4 1    
     4    1   53 1    
     5    4    5 1    
     6    5    6 1    
     7    6    7 1    
     8    6    8 1    
     9    7   12 1    
    10    8    9 1    
    11    8   10 1    
    12   10   11 1    
    13   10   12 1    
    14   12   13 1    
    15   13   14 1    
    16   13   22 1    
    17   14   15 2    
    18   15   16 1    
    19   16   17 ar   
    20   16   22 ar   
    21   17   18 1    
    22   17   19 ar   
    23   19   20 ar   
    24   20   21 ar   
    25   21   22 ar   
    26   23   24 1    
    27   23   40 2    
    28   24   25 2    
    29   24   26 am   
    30   26   27 am   
    31   27   28 2    
    32   27   29 1    
    33   29   30 2    
    34   29   40 1    
    35   30   31 1    
    36   31   32 ar   
    37   31   38 ar   
    38   32   33 ar   
    39   33   34 1    
    40   33   35 ar   
    41   35   36 1    
    42   35   37 ar   
    43   37   38 ar   
    44   38   39 1    
    45   39   40 1    
    46   39   41 1    
    47   41   42 1    
    48   42   43 1    
    49   42   44 1    
    50   44   45 1    
    51   44   46 1    
    52   46   47 1    
    53   46   48 1    
    54   48   49 1    
    55   49   50 1    
    56   50   51 ar   
    57   50   52 ar   
    58   50   53 1    
@<TRIPOS>SUBSTRUCTURE
     1 FAD601      1 GROUP   
@<TRIPOS>SET
ATOM$ORANGE STATIC     ATOMS   COLORGROUP SYSTEM 
54 5 5 6 6 8 8 10 10 12 12 14 14 16 16 17 17 20 \
20 22 22 24 24 27 27 29 29 31 31 32 32 33 33 34 34 35 \
35 36 36 37 37 38 38 40 40 41 41 42 42 44 44 46 46 48 \
48 

