#    Name: 6bdo_1_HQO
#    Modification time : Fri May 22 19:29:21 2020

@<TRIPOS>MOLECULE
6bdo_1_HQO
   19    20     1     0     0
SMALL
NO_CHARGES


@<TRIPOS>ATOM
      1 C1         -4.6530   33.2720   64.6460 C.ar      1 HQO602      0.0000 
      2 O1         -5.1070   32.0010   65.0390 O.3       1 HQO602      0.0000 
      3 C2         -5.2880   34.2440   65.3690 C.ar      1 HQO602      0.0000 
      4 C3         -4.9820   35.5840   65.1400 C.ar      1 HQO602      0.0000 
      5 N1         -4.0610   35.9290   64.1970 N.pl3     1 HQO602      0.0000 
      6 O4         -3.6180   37.1630   63.8130 O.2       1 HQO602      0.0000 
      7 C5         -3.4210   34.9470   63.4670 C.ar      1 HQO602      0.0000 
      8 C6         -2.4700   35.3130   62.4950 C.ar      1 HQO602      0.0000 
      9 C7         -1.8240   34.3320   61.7580 C.ar      1 HQO602      0.0000 
     10 C8         -2.1190   32.9900   61.9840 C.ar      1 HQO602      0.0000 
     11 C9         -3.0590   32.6310   62.9430 C.ar      1 HQO602      0.0000 
     12 C10        -3.7150   33.6230   63.6900 C.ar      1 HQO602      0.0000 
     13 C11        -5.6790   36.6770   65.9190 C.3       1 HQO602      0.0000 
     14 C12        -7.9590   37.6100   65.5220 C.3       1 HQO602      0.0000 
     15 C13        -6.5660   37.4410   64.9530 C.3       1 HQO602      0.0000 
     16 C14        -8.5800   38.8540   64.9190 C.3       1 HQO602      0.0000 
     17 C15        -9.9370   38.5280   64.3300 C.3       1 HQO602      0.0000 
     18 C16       -10.4750   39.7380   63.5940 C.3       1 HQO602      0.0000 
     19 C17       -10.0480   39.6860   62.1430 C.3       1 HQO602      0.0000 
@<TRIPOS>BOND
     1    1    2 1    
     2    1    3 ar   
     3    1   12 ar   
     4    3    4 ar   
     5    4    5 ar   
     6    4   13 1    
     7    5    6 1    
     8    5    7 ar   
     9    7    8 ar   
    10    7   12 ar   
    11    8    9 ar   
    12    9   10 ar   
    13   10   11 ar   
    14   11   12 ar   
    15   13   15 1    
    16   14   15 1    
    17   14   16 1    
    18   16   17 1    
    19   17   18 1    
    20   18   19 1    
@<TRIPOS>SUBSTRUCTURE
     1 HQO602      1 GROUP   
@<TRIPOS>SET

