#    Name: 6bdo_4_FAD
#    Modification time : Fri May 22 19:29:50 2020

@<TRIPOS>MOLECULE
6bdo_4_FAD
   53    58     1     0     1
SMALL
NO_CHARGES


@<TRIPOS>ATOM
      1 PA        -27.5540   60.0040   36.7090 P.3       1 FAD601      0.0000 
      2 O1A       -27.0170   58.8670   35.8980 O.co2     1 FAD601      0.0000 
      3 O2A       -27.5150   61.2470   35.8860 O.co2     1 FAD601      0.0000 
      4 O5B       -29.0790   59.7040   37.1620 O.3       1 FAD601      0.0000 
      5 C5B       -30.1390   60.1900   36.3430 C.3       1 FAD601      0.0000 
      6 C4B       -31.4320   59.3580   36.6650 C.3       1 FAD601      0.0000 
      7 O4B       -32.4630   60.1250   36.5940 O.3       1 FAD601      0.0000 
      8 C3B       -31.6220   58.2710   35.6120 C.3       1 FAD601      0.0000 
      9 O3B       -31.8110   57.0400   36.2250 O.3       1 FAD601      0.0000 
     10 C2B       -32.8460   58.7040   34.8060 C.3       1 FAD601      0.0000 
     11 O2B       -33.6680   57.4890   34.3750 O.3       1 FAD601      0.0000 
     12 C1B       -33.5250   59.4270   35.6200 C.3       1 FAD601      0.0000 
     13 N9A       -34.2380   60.4320   34.9240 N.pl3     1 FAD601      0.0000 
     14 C8A       -33.7460   61.3850   34.0940 C.2       1 FAD601      0.0000 
     15 N7A       -34.7900   62.1360   33.6560 N.2       1 FAD601      0.0000 
     16 C5A       -35.9210   61.6450   34.2200 C.ar      1 FAD601      0.0000 
     17 C6A       -37.2490   62.0250   34.1210 C.ar      1 FAD601      0.0000 
     18 N6A       -37.9360   63.0760   33.3880 N.pl3     1 FAD601      0.0000 
     19 N1A       -38.1960   61.3480   34.8060 N.ar      1 FAD601      0.0000 
     20 C2A       -37.8460   60.2840   35.5990 C.ar      1 FAD601      0.0000 
     21 N3A       -36.5350   59.9050   35.6990 N.ar      1 FAD601      0.0000 
     22 C4A       -35.5760   60.5910   35.0060 C.ar      1 FAD601      0.0000 
     23 N1        -18.0490   60.4780   37.9630 N.2       1 FAD601      0.0000 
     24 C2        -17.0030   60.0980   38.9130 C.2       1 FAD601      0.0000 
     25 O2        -16.9680   60.5920   40.0410 O.2       1 FAD601      0.0000 
     26 N3        -15.9840   59.1280   38.5360 N.am      1 FAD601      0.0000 
     27 C4        -16.0140   58.5480   37.2380 C.2       1 FAD601      0.0000 
     28 O4        -15.2140   57.7810   36.9320 O.2       1 FAD601      0.0000 
     29 C4X       -17.0860   58.9440   36.2790 C.2       1 FAD601      0.0000 
     30 N5        -17.1150   58.3590   34.9790 N.2       1 FAD601      0.0000 
     31 C5X       -18.1770   58.7410   34.0160 C.ar      1 FAD601      0.0000 
     32 C6        -18.2010   58.1560   32.7250 C.ar      1 FAD601      0.0000 
     33 C7        -19.2020   58.5140   31.8190 C.ar      1 FAD601      0.0000 
     34 C7M       -18.8760   57.6670   30.5510 C.3       1 FAD601      0.0000 
     35 C8        -20.1800   59.4480   32.1830 C.ar      1 FAD601      0.0000 
     36 C8M       -21.2300   59.7450   31.0580 C.3       1 FAD601      0.0000 
     37 C9        -20.1540   60.0280   33.4620 C.ar      1 FAD601      0.0000 
     38 C9A       -19.1470   59.6690   34.3790 C.ar      1 FAD601      0.0000 
     39 N10       -19.1220   60.2670   35.7050 N.pl3     1 FAD601      0.0000 
     40 C10       -18.0830   59.8990   36.6560 C.2       1 FAD601      0.0000 
     41 C1'       -20.1670   61.2590   36.0720 C.3       1 FAD601      0.0000 
     42 C2'       -21.3530   60.5390   36.7420 C.3       1 FAD601      0.0000 
     43 O2'       -21.6460   59.3640   36.0460 O.3       1 FAD601      0.0000 
     44 C3'       -22.5370   61.4690   36.7100 C.3       1 FAD601      0.0000 
     45 O3'       -22.0840   62.7670   36.9520 O.3       1 FAD601      0.0000 
     46 C4'       -23.5480   61.0570   37.7830 C.3       1 FAD601      0.0000 
     47 O4'       -24.1070   59.8550   37.4370 O.3       1 FAD601      0.0000 
     48 C5'       -24.6690   62.1100   37.8700 C.3       1 FAD601      0.0000 
     49 O5'       -25.3250   62.0010   39.1190 O.3       1 FAD601      0.0000 
     50 P         -26.7740   61.3180   39.0800 P.3       1 FAD601      0.0000 
     51 O1P       -27.1210   60.7580   40.4290 O.co2     1 FAD601      0.0000 
     52 O2P       -27.8020   62.3820   38.6750 O.co2     1 FAD601      0.0000 
     53 O3P       -26.6760   60.1530   38.0220 O.3       1 FAD601      0.0000 
@<TRIPOS>BOND
     1    1    2 ar   
     2    1    3 ar   
     3    1    4 1    
     4    1   53 1    
     5    4    5 1    
     6    5    6 1    
     7    6    7 1    
     8    6    8 1    
     9    7   12 1    
    10    8    9 1    
    11    8   10 1    
    12   10   11 1    
    13   10   12 1    
    14   12   13 1    
    15   13   14 1    
    16   13   22 1    
    17   14   15 2    
    18   15   16 1    
    19   16   17 ar   
    20   16   22 ar   
    21   17   18 1    
    22   17   19 ar   
    23   19   20 ar   
    24   20   21 ar   
    25   21   22 ar   
    26   23   24 1    
    27   23   40 2    
    28   24   25 2    
    29   24   26 am   
    30   26   27 am   
    31   27   28 2    
    32   27   29 1    
    33   29   30 2    
    34   29   40 1    
    35   30   31 1    
    36   31   32 ar   
    37   31   38 ar   
    38   32   33 ar   
    39   33   34 1    
    40   33   35 ar   
    41   35   36 1    
    42   35   37 ar   
    43   37   38 ar   
    44   38   39 1    
    45   39   40 1    
    46   39   41 1    
    47   41   42 1    
    48   42   43 1    
    49   42   44 1    
    50   44   45 1    
    51   44   46 1    
    52   46   47 1    
    53   46   48 1    
    54   48   49 1    
    55   49   50 1    
    56   50   51 ar   
    57   50   52 ar   
    58   50   53 1    
@<TRIPOS>SUBSTRUCTURE
     1 FAD601      1 GROUP   
@<TRIPOS>SET
ATOM$ORANGE STATIC     ATOMS   COLORGROUP SYSTEM 
54 5 5 6 6 8 8 10 10 12 12 14 14 16 16 17 17 20 \
20 22 22 24 24 27 27 29 29 31 31 32 32 33 33 34 34 35 \
35 36 36 37 37 38 38 40 40 41 41 42 42 44 44 46 46 48 \
48 

