#    Name: 6bdo_2_HQO
#    Modification time : Fri May 22 19:29:27 2020

@<TRIPOS>MOLECULE
6bdo_2_HQO
   19    20     1     0     0
SMALL
NO_CHARGES


@<TRIPOS>ATOM
      1 C1        -29.8470   20.6080   -2.6160 C.ar      1 HQO602      0.0000 
      2 O1        -31.0120   21.3900   -2.5220 O.3       1 HQO602      0.0000 
      3 C2        -30.1840   19.3080   -2.8660 C.ar      1 HQO602      0.0000 
      4 C3        -29.1890   18.3470   -3.0010 C.ar      1 HQO602      0.0000 
      5 N1        -27.8770   18.7000   -2.8830 N.pl3     1 HQO602      0.0000 
      6 O4        -26.7550   17.9270   -2.9760 O.2       1 HQO602      0.0000 
      7 C5        -27.5330   20.0190   -2.6310 C.ar      1 HQO602      0.0000 
      8 C6        -26.1780   20.3830   -2.5100 C.ar      1 HQO602      0.0000 
      9 C7        -25.8310   21.7040   -2.2580 C.ar      1 HQO602      0.0000 
     10 C8        -26.8260   22.6670   -2.1250 C.ar      1 HQO602      0.0000 
     11 C9        -28.1640   22.3100   -2.2430 C.ar      1 HQO602      0.0000 
     12 C10       -28.5150   20.9710   -2.4980 C.ar      1 HQO602      0.0000 
     13 C11       -29.5650   16.9040   -3.2730 C.3       1 HQO602      0.0000 
     14 C12       -30.1990   14.7510   -2.1930 C.3       1 HQO602      0.0000 
     15 C13       -29.8500   16.2060   -1.9570 C.3       1 HQO602      0.0000 
     16 C14       -30.0910   13.9870   -0.8880 C.3       1 HQO602      0.0000 
     17 C15       -28.6930   14.1420   -0.3230 C.3       1 HQO602      0.0000 
     18 C16       -28.6270   13.5460    1.0670 C.3       1 HQO602      0.0000 
     19 C17       -27.2390   13.7430    1.6400 C.3       1 HQO602      0.0000 
@<TRIPOS>BOND
     1    1    2 1    
     2    1    3 ar   
     3    1   12 ar   
     4    3    4 ar   
     5    4    5 ar   
     6    4   13 1    
     7    5    6 1    
     8    5    7 ar   
     9    7    8 ar   
    10    7   12 ar   
    11    8    9 ar   
    12    9   10 ar   
    13   10   11 ar   
    14   11   12 ar   
    15   13   15 1    
    16   14   15 1    
    17   14   16 1    
    18   16   17 1    
    19   17   18 1    
    20   18   19 1    
@<TRIPOS>SUBSTRUCTURE
     1 HQO602      1 GROUP   
@<TRIPOS>SET

