#    Name: 5z4u_4_GTP_CAVITY_N1_8
#    Modification time : Fri May 22 19:23:40 2020

@<TRIPOS>MOLECULE
5z4u_4_GTP_CAVITY_N1_8
   83     0     7     0     0
SMALL
NO_CHARGES


@<TRIPOS>ATOM
      1 OG        -22.9800   10.9800  -41.7800 O.3       1 SER1        0.0000 
      2 OG        -21.5500   10.5300  -41.6900 O.3       1 SER1        0.0000 
      3 OG        -21.1100   11.7800  -42.4000 O.3       1 SER1        0.0000 
      4 OG        -19.2400   12.5700  -43.0200 O.3       1 SER1        0.0000 
      5 OG        -17.8200   12.1200  -42.9300 O.3       1 SER1        0.0000 
      6 OG        -18.8000   13.8100  -43.7300 O.3       1 SER1        0.0000 
      7 OG        -20.9700   12.4800  -41.0800 O.3       1 SER1        0.0000 
      8 OG        -19.1100   13.2700  -41.7000 O.3       1 SER1        0.0000 
      9 OG        -17.6800   12.8200  -41.6100 O.3       1 SER1        0.0000 
     10 OG        -20.0900   14.9700  -42.5100 O.3       1 SER1        0.0000 
     11 OG        -18.6700   14.5200  -42.4200 O.3       1 SER1        0.0000 
     12 O         -18.5300    9.4600  -44.8400 O.2       2 ALA2        0.0000 
     13 N         -17.1000    9.0100  -44.7500 N.am      2 ALA2        0.0000 
     14 N         -15.6800    8.5500  -44.6600 N.am      2 ALA2        0.0000 
     15 N         -26.6500   13.4100  -46.1200 N.am      2 ALA2        0.0000 
     16 N         -25.2300   12.9600  -46.0300 N.am      2 ALA2        0.0000 
     17 N         -22.3700   12.0600  -45.8400 N.am      2 ALA2        0.0000 
     18 O         -16.6600   10.2500  -45.4600 O.2       2 ALA2        0.0000 
     19 O         -24.9800    9.4900  -42.4800 O.2       2 ALA2        0.0000 
     20 O         -23.5600    9.0300  -42.3800 O.2       2 ALA2        0.0000 
     21 O         -25.9700   11.1800  -43.2800 O.2       2 ALA2        0.0000 
     22 O         -23.1200   10.2800  -43.1000 O.2       2 ALA2        0.0000 
     23 O         -21.6900    9.8300  -43.0000 O.2       2 ALA2        0.0000 
     24 O         -15.9800    8.0200  -42.6300 O.2       2 ALA2        0.0000 
     25 N         -25.5300   12.4200  -44.0000 N.am      2 ALA2        0.0000 
     26 N         -24.1000   11.9700  -43.9000 N.am      2 ALA2        0.0000 
     27 O         -19.8200   10.6200  -43.6200 O.2       2 ALA2        0.0000 
     28 N         -23.6600   13.2200  -44.6200 N.am      2 ALA2        0.0000 
     29 O         -20.8100   12.3100  -44.4300 O.2       2 ALA2        0.0000 
     30 O         -19.3800   11.8600  -44.3300 O.2       2 ALA2        0.0000 
     31 N         -15.8400    8.7200  -41.3100 N.am      2 ALA2        0.0000 
     32 N         -23.5300   13.9200  -43.3000 N.am      2 ALA2        0.0000 
     33 O         -21.6600   14.7100  -43.9200 O.2       2 ALA2        0.0000 
     34 N         -18.5600   10.3300  -40.1800 N.am      2 ALA2        0.0000 
     35 N         -17.1300    9.8800  -40.0900 N.am      2 ALA2        0.0000 
     36 N         -15.7100    9.4300  -39.9900 N.am      2 ALA2        0.0000 
     37 O         -23.3900   14.6300  -41.9800 O.2       2 ALA2        0.0000 
     38 O         -22.2600   13.6400  -39.8600 O.2       2 ALA2        0.0000 
     39 O         -19.4100   12.7400  -39.6700 O.2       2 ALA2        0.0000 
     40 O         -17.9800   12.2900  -39.5800 O.2       2 ALA2        0.0000 
     41 O         -19.2700   13.4400  -38.3600 O.2       2 ALA2        0.0000 
     42 OD1       -26.1100   10.4700  -44.6000 O.co2     3 ASP3        0.0000 
     43 OD1       -24.6800   10.0200  -44.5000 O.co2     3 ASP3        0.0000 
     44 OD1       -25.6700   11.7200  -45.3100 O.co2     3 ASP3        0.0000 
     45 OD1       -24.2400   11.2700  -45.2200 O.co2     3 ASP3        0.0000 
     46 OD1       -23.8000   12.5100  -45.9300 O.co2     3 ASP3        0.0000 
     47 NZ        -21.9600   14.1800  -41.8900 N.4       4 LYS4        0.0000 
     48 NZ        -20.5300   13.7300  -41.8000 N.4       4 LYS4        0.0000 
     49 NZ        -21.5200   15.4200  -42.6000 N.4       4 LYS4        0.0000 
     50 NZ        -20.8400   13.1900  -39.7700 N.4       4 LYS4        0.0000 
     51 NZ        -18.9700   13.9800  -40.3900 N.4       4 LYS4        0.0000 
     52 CZ        -16.9700    9.7100  -43.4300 C.ar      5 PHE5        0.0000 
     53 CZ        -15.5400    9.2600  -43.3400 C.ar      5 PHE5        0.0000 
     54 CZ        -17.9500   11.4100  -44.2400 C.ar      5 PHE5        0.0000 
     55 CZ        -16.5300   10.9600  -44.1500 C.ar      5 PHE5        0.0000 
     56 CZ        -16.8300   10.4200  -42.1200 C.ar      5 PHE5        0.0000 
     57 CZ        -15.4000    9.9700  -42.0200 C.ar      5 PHE5        0.0000 
     58 CZ        -16.6900   11.1300  -40.8000 C.ar      5 PHE5        0.0000 
     59 CZ        -15.2700   10.6700  -40.7100 C.ar      5 PHE5        0.0000 
     60 CA        -25.1200    8.7800  -43.7900 C.3       6 GLY6        0.0000 
     61 CA        -23.2500    9.5700  -44.4100 C.3       6 GLY6        0.0000 
     62 CA        -16.1200    7.3100  -43.9400 C.3       6 GLY6        0.0000 
     63 CA        -22.8100   10.8100  -45.1200 C.3       6 GLY6        0.0000 
     64 CA        -24.5400   10.7300  -43.1900 C.3       6 GLY6        0.0000 
     65 CA        -17.4100    8.4700  -42.7200 C.3       6 GLY6        0.0000 
     66 CA        -21.2500   11.0700  -43.7100 C.3       6 GLY6        0.0000 
     67 CA        -18.3900   10.1600  -43.5300 C.3       6 GLY6        0.0000 
     68 CA        -23.9700   12.6800  -42.5900 C.3       6 GLY6        0.0000 
     69 CA        -22.5400   12.2300  -42.4900 C.3       6 GLY6        0.0000 
     70 CA        -19.6800   11.3200  -42.3100 C.3       6 GLY6        0.0000 
     71 CA        -18.2600   10.8700  -42.2100 C.3       6 GLY6        0.0000 
     72 CA        -19.9900   10.7900  -40.2800 C.3       6 GLY6        0.0000 
     73 CA        -22.4000   12.9300  -41.1800 C.3       6 GLY6        0.0000 
     74 CA        -21.2800   11.9500  -39.0500 C.3       6 GLY6        0.0000 
     75 CA        -19.8500   11.4900  -38.9600 C.3       6 GLY6        0.0000 
     76 CA        -18.4200   11.0400  -38.8700 C.3       6 GLY6        0.0000 
     77 DU        -22.6800   11.5200  -43.8100 H         7 CUB7        0.0000 
     78 DU        -22.2400   12.7600  -44.5200 H         7 CUB7        0.0000 
     79 DU        -22.1000   13.4700  -43.2100 H         7 CUB7        0.0000 
     80 DU        -20.6700   13.0200  -43.1100 H         7 CUB7        0.0000 
     81 DU        -20.2300   14.2600  -43.8300 H         7 CUB7        0.0000 
     82 DU        -19.5500   12.0300  -40.9900 H         7 CUB7        0.0000 
     83 DU        -18.1200   11.5800  -40.9000 H         7 CUB7        0.0000 
@<TRIPOS>BOND
@<TRIPOS>SUBSTRUCTURE
     1 SER1        1 GROUP   
     2 ALA2       12 GROUP   
     3 ASP3       42 GROUP   
     4 LYS4       47 GROUP   
     5 PHE5       52 GROUP   
     6 GLY6       60 GROUP   
     7 CUB7       77 GROUP   
@<TRIPOS>SET

