#    Name: 5z4u_1_GTP
#    Modification time : Fri May 22 19:23:24 2020

@<TRIPOS>MOLECULE
5z4u_1_GTP
   32    34     1     0     1
SMALL
NO_CHARGES


@<TRIPOS>ATOM
      1 PG        -27.0770  -74.1280   46.0190 P.3       1 GTP501      0.0000 
      2 O1G       -25.8120  -74.5970   45.3340 O.co2     1 GTP501      0.0000 
      3 O2G       -28.3130  -74.7700   45.4450 O.co2     1 GTP501      0.0000 
      4 O3G       -27.1760  -72.6430   46.2790 O.co2     1 GTP501      0.0000 
      5 O3B       -27.0910  -74.7050   47.5250 O.3       1 GTP501      0.0000 
      6 PB        -26.3320  -76.0240   48.0570 P.3       1 GTP501      0.0000 
      7 O1B       -25.8640  -76.9040   46.9130 O.co2     1 GTP501      0.0000 
      8 O2B       -27.1690  -76.5680   49.1780 O.co2     1 GTP501      0.0000 
      9 O3A       -25.0550  -75.3180   48.7220 O.3       1 GTP501      0.0000 
     10 PA        -23.8400  -76.0750   49.4480 P.3       1 GTP501      0.0000 
     11 O1A       -22.7210  -76.2030   48.4380 O.co2     1 GTP501      0.0000 
     12 O2A       -24.3950  -77.3180   50.1060 O.co2     1 GTP501      0.0000 
     13 O5'       -23.5260  -74.9680   50.5800 O.3       1 GTP501      0.0000 
     14 C5'       -22.3290  -74.1970   50.6630 C.3       1 GTP501      0.0000 
     15 C4'       -21.7940  -74.2930   52.0880 C.3       1 GTP501      0.0000 
     16 O4'       -21.7520  -75.6750   52.4370 O.3       1 GTP501      0.0000 
     17 C3'       -20.3670  -73.7930   52.2450 C.3       1 GTP501      0.0000 
     18 O3'       -20.1620  -73.2960   53.5790 O.3       1 GTP501      0.0000 
     19 C2'       -19.5330  -75.0260   51.9680 C.3       1 GTP501      0.0000 
     20 O2'       -18.2690  -75.0130   52.6280 O.3       1 GTP501      0.0000 
     21 C1'       -20.4030  -76.1280   52.5230 C.3       1 GTP501      0.0000 
     22 N9        -20.2500  -77.3980   51.7870 N.pl3     1 GTP501      0.0000 
     23 C8        -20.5320  -77.6490   50.4990 C.2       1 GTP501      0.0000 
     24 N7        -20.2660  -78.9460   50.1880 N.2       1 GTP501      0.0000 
     25 C5        -19.8160  -79.5410   51.3040 C.2       1 GTP501      0.0000 
     26 C6        -19.3510  -80.8880   51.7040 C.2       1 GTP501      0.0000 
     27 O6        -19.3190  -81.8270   50.8850 O.2       1 GTP501      0.0000 
     28 N1        -18.9570  -81.0660   52.9760 N.am      1 GTP501      0.0000 
     29 C2        -18.9770  -80.0760   53.8960 C.2       1 GTP501      0.0000 
     30 N2        -18.5720  -80.3350   55.1580 N.pl3     1 GTP501      0.0000 
     31 N3        -19.3930  -78.8220   53.6070 N.2       1 GTP501      0.0000 
     32 C4        -19.8120  -78.5120   52.3540 C.2       1 GTP501      0.0000 
@<TRIPOS>BOND
     1    1    2 ar   
     2    1    3 ar   
     3    1    4 ar   
     4    1    5 1    
     5    5    6 1    
     6    6    7 ar   
     7    6    8 ar   
     8    6    9 1    
     9    9   10 1    
    10   10   11 ar   
    11   10   12 ar   
    12   10   13 1    
    13   13   14 1    
    14   14   15 1    
    15   15   16 1    
    16   15   17 1    
    17   16   21 1    
    18   17   18 1    
    19   17   19 1    
    20   19   20 1    
    21   19   21 1    
    22   21   22 1    
    23   22   23 1    
    24   22   32 1    
    25   23   24 2    
    26   24   25 1    
    27   25   26 1    
    28   25   32 2    
    29   26   27 2    
    30   26   28 am   
    31   28   29 1    
    32   29   30 1    
    33   29   31 2    
    34   31   32 1    
@<TRIPOS>SUBSTRUCTURE
     1 GTP501      1 GROUP   
@<TRIPOS>SET
ATOM$ORANGE STATIC     ATOMS   COLORGROUP SYSTEM 
20 14 14 15 15 17 17 19 19 21 21 23 23 25 25 26 26 29 \
29 32 32 

