#    Name: 5z4u_3_GTP
#    Modification time : Fri May 22 19:23:35 2020

@<TRIPOS>MOLECULE
5z4u_3_GTP
   32    34     1     0     1
SMALL
NO_CHARGES


@<TRIPOS>ATOM
      1 PG        -20.2630  -19.1830  -17.0970 P.3       1 GTP501      0.0000 
      2 O1G       -19.1480  -19.3880  -18.1050 O.co2     1 GTP501      0.0000 
      3 O2G       -21.5240  -19.9190  -17.4620 O.co2     1 GTP501      0.0000 
      4 O3G       -20.4800  -17.7700  -16.5980 O.co2     1 GTP501      0.0000 
      5 O3B       -19.8380  -19.9350  -15.7440 O.3       1 GTP501      0.0000 
      6 PB        -18.6260  -20.9790  -15.6260 P.3       1 GTP501      0.0000 
      7 O1B       -18.3790  -21.6660  -16.9520 O.co2     1 GTP501      0.0000 
      8 O2B       -18.9150  -21.7710  -14.3770 O.co2     1 GTP501      0.0000 
      9 O3A       -17.4020  -19.9820  -15.3310 O.3       1 GTP501      0.0000 
     10 PA        -16.0060  -20.3890  -14.6320 P.3       1 GTP501      0.0000 
     11 O1A       -14.9810  -20.2200  -15.7220 O.co2     1 GTP501      0.0000 
     12 O2A       -16.1070  -21.7100  -13.9100 O.co2     1 GTP501      0.0000 
     13 O5'       -15.9180  -19.2460  -13.5020 O.3       1 GTP501      0.0000 
     14 C5'       -14.8920  -18.2600  -13.4260 C.3       1 GTP501      0.0000 
     15 C4'       -14.0930  -18.4920  -12.1530 C.3       1 GTP501      0.0000 
     16 O4'       -13.5520  -19.8130  -12.1630 O.3       1 GTP501      0.0000 
     17 C3'       -12.9040  -17.5690  -12.0210 C.3       1 GTP501      0.0000 
     18 O3'       -12.6870  -17.3220  -10.6280 O.3       1 GTP501      0.0000 
     19 C2'       -11.7590  -18.3600  -12.5980 C.3       1 GTP501      0.0000 
     20 O2'       -10.5210  -17.9530  -12.0170 O.3       1 GTP501      0.0000 
     21 C1'       -12.1250  -19.7710  -12.1880 C.3       1 GTP501      0.0000 
     22 N9        -11.6760  -20.8530  -13.0920 N.pl3     1 GTP501      0.0000 
     23 C8        -12.1130  -21.0750  -14.3440 C.2       1 GTP501      0.0000 
     24 N7        -11.5240  -22.1700  -14.8880 N.2       1 GTP501      0.0000 
     25 C5        -10.6990  -22.6700  -13.9590 C.2       1 GTP501      0.0000 
     26 C6         -9.7800  -23.8210  -13.8660 C.2       1 GTP501      0.0000 
     27 O6         -9.6310  -24.6040  -14.8240 O.2       1 GTP501      0.0000 
     28 N1         -9.1120  -23.9890  -12.7150 N.am      1 GTP501      0.0000 
     29 C2         -9.2500  -23.1630  -11.6580 C.2       1 GTP501      0.0000 
     30 N2         -8.5300  -23.4240  -10.5460 N.pl3     1 GTP501      0.0000 
     31 N3        -10.0750  -22.0850  -11.6650 N.2       1 GTP501      0.0000 
     32 C4        -10.8090  -21.8050  -12.7700 C.2       1 GTP501      0.0000 
@<TRIPOS>BOND
     1    1    2 ar   
     2    1    3 ar   
     3    1    4 ar   
     4    1    5 1    
     5    5    6 1    
     6    6    7 ar   
     7    6    8 ar   
     8    6    9 1    
     9    9   10 1    
    10   10   11 ar   
    11   10   12 ar   
    12   10   13 1    
    13   13   14 1    
    14   14   15 1    
    15   15   16 1    
    16   15   17 1    
    17   16   21 1    
    18   17   18 1    
    19   17   19 1    
    20   19   20 1    
    21   19   21 1    
    22   21   22 1    
    23   22   23 1    
    24   22   32 1    
    25   23   24 2    
    26   24   25 1    
    27   25   26 1    
    28   25   32 2    
    29   26   27 2    
    30   26   28 am   
    31   28   29 1    
    32   29   30 1    
    33   29   31 2    
    34   31   32 1    
@<TRIPOS>SUBSTRUCTURE
     1 GTP501      1 GROUP   
@<TRIPOS>SET
ATOM$ORANGE STATIC     ATOMS   COLORGROUP SYSTEM 
20 14 14 15 15 17 17 19 19 21 21 23 23 25 25 26 26 29 \
29 32 32 

