#    Name: 5z4u_5_ACP
#    Modification time : Fri May 22 19:23:43 2020

@<TRIPOS>MOLECULE
5z4u_5_ACP
   31    33     1     0     1
SMALL
NO_CHARGES


@<TRIPOS>ATOM
      1 PG         -7.6690  -50.3790   93.8310 P.3       1 ACP401      0.0000 
      2 O1G        -7.9130  -51.6510   93.1130 O.co2     1 ACP401      0.0000 
      3 O2G        -8.6360  -49.2370   93.2370 O.co2     1 ACP401      0.0000 
      4 O3G        -6.1380  -49.9330   93.6230 O.co2     1 ACP401      0.0000 
      5 PB         -9.5970  -49.9940   96.1080 P.3       1 ACP401      0.0000 
      6 O1B       -10.5220  -50.1140   94.9580 O.co2     1 ACP401      0.0000 
      7 O2B        -9.5000  -48.4380   96.4990 O.co2     1 ACP401      0.0000 
      8 C3B        -7.9650  -50.6140   95.6070 C.3       1 ACP401      0.0000 
      9 PA         -9.4900  -51.3370   98.6850 P.3       1 ACP401      0.0000 
     10 O1A        -7.9950  -51.4040   98.4830 O.co2     1 ACP401      0.0000 
     11 O2A       -10.2390  -52.5700   99.1310 O.co2     1 ACP401      0.0000 
     12 O3A       -10.2340  -50.8290   97.3400 O.3       1 ACP401      0.0000 
     13 O5'        -9.8120  -50.2010   99.7870 O.3       1 ACP401      0.0000 
     14 C5'        -9.2290  -48.8970   99.7770 C.3       1 ACP401      0.0000 
     15 C4'        -8.4470  -48.6110  101.0630 C.3       1 ACP401      0.0000 
     16 O4'        -9.0710  -49.2180  102.2020 O.3       1 ACP401      0.0000 
     17 C3'        -7.0040  -49.1120  101.0070 C.3       1 ACP401      0.0000 
     18 O3'        -6.0920  -48.0070  101.0370 O.3       1 ACP401      0.0000 
     19 C2'        -6.8310  -50.0330  102.2030 C.3       1 ACP401      0.0000 
     20 O2'        -5.6810  -49.7010  102.9920 O.3       1 ACP401      0.0000 
     21 C1'        -8.1090  -49.8900  103.0200 C.3       1 ACP401      0.0000 
     22 N9         -8.6020  -51.2280  103.4360 N.pl3     1 ACP401      0.0000 
     23 C8         -9.4470  -52.0230  102.7500 C.2       1 ACP401      0.0000 
     24 N7         -9.6820  -53.1790  103.4230 N.2       1 ACP401      0.0000 
     25 C5         -8.9750  -53.1350  104.5640 C.ar      1 ACP401      0.0000 
     26 C6         -8.7650  -54.0260  105.7330 C.ar      1 ACP401      0.0000 
     27 N6         -9.3820  -55.2280  105.8090 N.pl3     1 ACP401      0.0000 
     28 N1         -7.9370  -53.5920  106.7170 N.ar      1 ACP401      0.0000 
     29 C2         -7.3140  -52.3930  106.6530 C.ar      1 ACP401      0.0000 
     30 N3         -7.4620  -51.5410  105.6180 N.ar      1 ACP401      0.0000 
     31 C4         -8.2620  -51.8460  104.5650 C.ar      1 ACP401      0.0000 
@<TRIPOS>BOND
     1    1    2 ar   
     2    1    3 ar   
     3    1    4 ar   
     4    1    8 1    
     5    5    6 ar   
     6    5    7 ar   
     7    5    8 1    
     8    5   12 1    
     9    9   10 ar   
    10    9   11 ar   
    11    9   12 1    
    12    9   13 1    
    13   13   14 1    
    14   14   15 1    
    15   15   16 1    
    16   15   17 1    
    17   16   21 1    
    18   17   18 1    
    19   17   19 1    
    20   19   20 1    
    21   19   21 1    
    22   21   22 1    
    23   22   23 1    
    24   22   31 1    
    25   23   24 2    
    26   24   25 1    
    27   25   26 ar   
    28   25   31 ar   
    29   26   27 1    
    30   26   28 ar   
    31   28   29 ar   
    32   29   30 ar   
    33   30   31 ar   
@<TRIPOS>SUBSTRUCTURE
     1 ACP401      1 GROUP   
@<TRIPOS>SET
ATOM$ORANGE STATIC     ATOMS   COLORGROUP SYSTEM 
22 8 8 14 14 15 15 17 17 19 19 21 21 23 23 25 25 26 \
26 29 29 31 31 

