#    Name: 5z4u_1_GTP_CAVITY_N1_6
#    Modification time : Fri May 22 19:23:26 2020

@<TRIPOS>MOLECULE
5z4u_1_GTP_CAVITY_N1_6
   79     0     7     0     0
SMALL
NO_CHARGES


@<TRIPOS>ATOM
      1 OG        -18.3400  -75.4600   46.9000 O.3       1 SER1        0.0000 
      2 OG        -17.9000  -74.2200   46.1900 O.3       1 SER1        0.0000 
      3 OG        -23.3700  -75.8900   49.3600 O.3       1 SER1        0.0000 
      4 OG        -20.0700  -75.5500   48.8400 O.3       1 SER1        0.0000 
      5 OG        -19.6300  -74.3000   48.1200 O.3       1 SER1        0.0000 
      6 OG        -19.1900  -73.0600   47.4100 O.3       1 SER1        0.0000 
      7 OG        -23.2300  -75.1800   50.6800 O.3       1 SER1        0.0000 
      8 OG        -20.3700  -76.0800   50.8700 O.3       1 SER1        0.0000 
      9 OG        -19.9300  -74.8400   50.1500 O.3       1 SER1        0.0000 
     10 OG        -18.8100  -75.8300   52.2800 O.3       1 SER1        0.0000 
     11 N         -20.0400  -76.4200   44.1800 N.am      2 ALA2        0.0000 
     12 O         -18.6100  -76.8700   44.2700 O.2       2 ALA2        0.0000 
     13 N         -21.3300  -75.2600   45.4000 N.am      2 ALA2        0.0000 
     14 N         -19.9000  -75.7200   45.4900 N.am      2 ALA2        0.0000 
     15 O         -18.4800  -76.1700   45.5900 O.2       2 ALA2        0.0000 
     16 N         -19.4600  -74.4700   44.7800 N.am      2 ALA2        0.0000 
     17 O         -25.3700  -77.3800   48.6700 O.2       2 ALA2        0.0000 
     18 O         -22.0800  -77.0400   48.1400 O.2       2 ALA2        0.0000 
     19 O         -21.6400  -75.8000   47.4300 O.2       2 ALA2        0.0000 
     20 O         -19.7700  -75.0100   46.8100 O.2       2 ALA2        0.0000 
     21 O         -23.8100  -77.1300   50.0800 O.2       2 ALA2        0.0000 
     22 O         -22.3800  -77.5800   50.1700 O.2       2 ALA2        0.0000 
     23 O         -20.9500  -78.0300   50.2700 O.2       2 ALA2        0.0000 
     24 O         -21.9400  -76.3400   49.4600 O.2       2 ALA2        0.0000 
     25 O         -20.5100  -76.7900   49.5500 O.2       2 ALA2        0.0000 
     26 N         -22.4800  -73.4000   47.9400 N.am      2 ALA2        0.0000 
     27 N         -22.0400  -72.1500   47.2200 N.am      2 ALA2        0.0000 
     28 N         -20.6200  -72.6100   47.3200 N.am      2 ALA2        0.0000 
     29 O         -20.1800  -71.3600   46.6000 O.2       2 ALA2        0.0000 
     30 N         -18.8400  -80.7200   53.2000 N.am      2 ALA2        0.0000 
     31 N         -19.4900  -73.5900   49.4400 N.am      2 ALA2        0.0000 
     32 N         -21.9100  -71.4500   48.5400 N.am      2 ALA2        0.0000 
     33 O         -20.0400  -70.6600   47.9200 O.2       2 ALA2        0.0000 
     34 O         -19.6900  -78.3100   53.7100 O.2       2 ALA2        0.0000 
     35 O         -20.6800  -76.6200   52.9000 O.2       2 ALA2        0.0000 
     36 O         -19.2500  -77.0700   52.9900 O.2       2 ALA2        0.0000 
     37 N         -19.8000  -74.1300   51.4700 N.am      2 ALA2        0.0000 
     38 O         -20.5400  -75.9100   54.2100 O.2       2 ALA2        0.0000 
     39 O         -20.1000  -74.6700   53.5000 O.2       2 ALA2        0.0000 
     40 O         -18.6700  -75.1200   53.5900 O.2       2 ALA2        0.0000 
     41 N         -19.6600  -73.4300   52.7900 N.am      2 ALA2        0.0000 
     42 OD1       -23.2000  -76.0500   46.0200 O.co2     3 ASP3        0.0000 
     43 OD1       -26.3600  -75.6900   47.8600 O.co2     3 ASP3        0.0000 
     44 OD1       -24.9300  -76.1400   47.9500 O.co2     3 ASP3        0.0000 
     45 OD1       -24.4900  -74.9000   47.2400 O.co2     3 ASP3        0.0000 
     46 OD1       -22.6200  -74.1000   46.6200 O.co2     3 ASP3        0.0000 
     47 OD1       -20.7500  -73.3100   46.0000 O.co2     3 ASP3        0.0000 
     48 OD1       -18.7500  -71.8100   46.7000 O.co2     3 ASP3        0.0000 
     49 NZ        -22.7900  -73.9300   49.9700 N.4       4 LYS4        0.0000 
     50 NZ        -21.3600  -74.3900   50.0600 N.4       4 LYS4        0.0000 
     51 NZ        -22.3500  -72.6900   49.2500 N.4       4 LYS4        0.0000 
     52 NZ        -20.9200  -73.1400   49.3500 N.4       4 LYS4        0.0000 
     53 NZ        -20.4800  -71.9000   48.6300 N.4       4 LYS4        0.0000 
     54 NZ        -21.2200  -73.6800   51.3800 N.4       4 LYS4        0.0000 
     55 NZ        -21.5300  -74.2200   53.4100 N.4       4 LYS4        0.0000 
     56 CZ        -19.8300  -79.0200   52.3900 C.ar      5 PHE5        0.0000 
     57 CZ        -19.3900  -77.7800   51.6800 C.ar      5 PHE5        0.0000 
     58 CA        -23.5000  -76.5900   48.0500 C.3       6 GLY6        0.0000 
     59 CA        -22.1800  -72.8600   45.9100 C.3       6 GLY6        0.0000 
     60 CA        -24.7900  -75.4300   49.2700 C.3       6 GLY6        0.0000 
     61 CA        -24.3500  -74.1900   48.5600 C.3       6 GLY6        0.0000 
     62 CA        -20.2700  -80.2600   53.1000 C.3       6 GLY6        0.0000 
     63 CA        -22.2400  -76.8700   51.4900 C.3       6 GLY6        0.0000 
     64 CA        -20.8200  -77.3300   51.5800 C.3       6 GLY6        0.0000 
     65 CA        -19.0500  -72.3500   48.7300 C.3       6 GLY6        0.0000 
     66 CA        -21.1200  -77.8600   53.6100 C.3       6 GLY6        0.0000 
     67 CA        -22.1100  -76.1700   52.8000 C.3       6 GLY6        0.0000 
     68 CA        -23.0900  -74.4700   52.0000 C.3       6 GLY6        0.0000 
     69 CA        -21.6600  -74.9200   52.0900 C.3       6 GLY6        0.0000 
     70 CA        -21.9700  -75.4600   54.1200 C.3       6 GLY6        0.0000 
     71 CA        -19.9600  -73.9600   54.8200 C.3       6 GLY6        0.0000 
     72 DU        -23.0600  -75.3500   47.3400 H         7 CUB7        0.0000 
     73 DU        -21.1900  -74.5600   46.7200 H         7 CUB7        0.0000 
     74 DU        -19.3300  -73.7600   46.1000 H         7 CUB7        0.0000 
     75 DU        -22.9300  -74.6400   48.6500 H         7 CUB7        0.0000 
     76 DU        -21.5000  -75.0900   48.7400 H         7 CUB7        0.0000 
     77 DU        -21.0600  -73.8500   48.0300 H         7 CUB7        0.0000 
     78 DU        -21.8000  -75.6300   50.7700 H         7 CUB7        0.0000 
     79 DU        -20.2400  -75.3800   52.1800 H         7 CUB7        0.0000 
@<TRIPOS>BOND
@<TRIPOS>SUBSTRUCTURE
     1 SER1        1 GROUP   
     2 ALA2       11 GROUP   
     3 ASP3       42 GROUP   
     4 LYS4       49 GROUP   
     5 PHE5       56 GROUP   
     6 GLY6       58 GROUP   
     7 CUB7       72 GROUP   
@<TRIPOS>SET

