#    Name: 5z4u_4_GTP
#    Modification time : Fri May 22 19:23:39 2020

@<TRIPOS>MOLECULE
5z4u_4_GTP
   32    34     1     0     1
SMALL
NO_CHARGES


@<TRIPOS>ATOM
      1 PG        -26.7870   11.3770  -45.0540 P.3       1 GTP501      0.0000 
      2 O1G       -27.4600   10.2310  -45.7710 O.co2     1 GTP501      0.0000 
      3 O2G       -25.5070   11.7920  -45.7400 O.co2     1 GTP501      0.0000 
      4 O3G       -27.6800   12.5150  -44.6270 O.co2     1 GTP501      0.0000 
      5 O3B       -26.3940   10.7760  -43.6100 O.3       1 GTP501      0.0000 
      6 PB        -25.0580    9.9270  -43.3130 P.3       1 GTP501      0.0000 
      7 O1B       -24.7370    9.0680  -44.5160 O.co2     1 GTP501      0.0000 
      8 O2B       -25.2650    9.2940  -41.9560 O.co2     1 GTP501      0.0000 
      9 O3A       -23.9470   11.0870  -43.1650 O.3       1 GTP501      0.0000 
     10 PA        -22.4320   10.8440  -42.6680 P.3       1 GTP501      0.0000 
     11 O1A       -21.5150   11.3760  -43.7380 O.co2     1 GTP501      0.0000 
     12 O2A       -22.2530    9.4000  -42.2640 O.co2     1 GTP501      0.0000 
     13 O5'       -22.4070   11.7750  -41.3410 O.3       1 GTP501      0.0000 
     14 C5'       -21.7700   13.0540  -41.2150 C.3       1 GTP501      0.0000 
     15 C4'       -20.5730   12.9310  -40.2750 C.3       1 GTP501      0.0000 
     16 O4'       -19.8660   11.7270  -40.5900 O.3       1 GTP501      0.0000 
     17 C3'       -19.5610   14.0750  -40.3760 C.3       1 GTP501      0.0000 
     18 O3'       -19.3380   14.6720  -39.0890 O.3       1 GTP501      0.0000 
     19 C2'       -18.2910   13.4440  -40.9250 C.3       1 GTP501      0.0000 
     20 O2'       -17.0930   13.9920  -40.3520 O.3       1 GTP501      0.0000 
     21 C1'       -18.4640   11.9770  -40.5790 C.3       1 GTP501      0.0000 
     22 N9        -17.8110   11.0490  -41.5240 N.pl3     1 GTP501      0.0000 
     23 C8        -18.1940   10.7620  -42.7810 C.2       1 GTP501      0.0000 
     24 N7        -17.3630    9.8470  -43.3370 N.2       1 GTP501      0.0000 
     25 C5        -16.4390    9.5330  -42.4160 C.2       1 GTP501      0.0000 
     26 C6        -15.2620    8.6340  -42.3270 C.2       1 GTP501      0.0000 
     27 O6        -14.9370    7.9240  -43.3010 O.2       1 GTP501      0.0000 
     28 N1        -14.5590    8.6060  -41.1750 N.am      1 GTP501      0.0000 
     29 C2        -14.8840    9.3620  -40.1040 C.2       1 GTP501      0.0000 
     30 N2        -14.1190    9.2690  -38.9880 N.pl3     1 GTP501      0.0000 
     31 N3        -15.9520   10.2100  -40.1110 N.2       1 GTP501      0.0000 
     32 C4        -16.7410   10.3290  -41.2170 C.2       1 GTP501      0.0000 
@<TRIPOS>BOND
     1    1    2 ar   
     2    1    3 ar   
     3    1    4 ar   
     4    1    5 1    
     5    5    6 1    
     6    6    7 ar   
     7    6    8 ar   
     8    6    9 1    
     9    9   10 1    
    10   10   11 ar   
    11   10   12 ar   
    12   10   13 1    
    13   13   14 1    
    14   14   15 1    
    15   15   16 1    
    16   15   17 1    
    17   16   21 1    
    18   17   18 1    
    19   17   19 1    
    20   19   20 1    
    21   19   21 1    
    22   21   22 1    
    23   22   23 1    
    24   22   32 1    
    25   23   24 2    
    26   24   25 1    
    27   25   26 1    
    28   25   32 2    
    29   26   27 2    
    30   26   28 am   
    31   28   29 1    
    32   29   30 1    
    33   29   31 2    
    34   31   32 1    
@<TRIPOS>SUBSTRUCTURE
     1 GTP501      1 GROUP   
@<TRIPOS>SET
ATOM$ORANGE STATIC     ATOMS   COLORGROUP SYSTEM 
20 14 14 15 15 17 17 19 19 21 21 23 23 25 25 26 26 29 \
29 32 32 

