#    Name: 6fua_1_ADP
#    Modification time : Fri May 22 19:26:29 2020

@<TRIPOS>MOLECULE
6fua_1_ADP
   27    29     1     0     1
SMALL
NO_CHARGES


@<TRIPOS>ATOM
      1 PB         33.2370   -7.0690   26.9650 P.3       1 ADP301      0.0000 
      2 O1B        33.6320   -6.0590   25.9170 O.co2     1 ADP301      0.0000 
      3 O2B        31.7400   -7.2250   27.0820 O.co2     1 ADP301      0.0000 
      4 O3B        33.9120   -6.8310   28.2940 O.co2     1 ADP301      0.0000 
      5 PA         33.9660   -9.8800   27.2180 P.3       1 ADP301      0.0000 
      6 O1A        35.3640  -10.3740   27.0390 O.co2     1 ADP301      0.0000 
      7 O2A        33.4460   -9.7460   28.6090 O.co2     1 ADP301      0.0000 
      8 O3A        33.8050   -8.4820   26.4570 O.3       1 ADP301      0.0000 
      9 O5'        32.9450  -10.7760   26.3690 O.3       1 ADP301      0.0000 
     10 C5'        33.4290  -11.8400   25.5160 C.3       1 ADP301      0.0000 
     11 C4'        32.4820  -13.0150   25.5670 C.3       1 ADP301      0.0000 
     12 O4'        32.9030  -13.9280   26.6110 O.3       1 ADP301      0.0000 
     13 C3'        31.0130  -12.7100   25.8750 C.3       1 ADP301      0.0000 
     14 O3'        30.3290  -12.3870   24.6720 O.3       1 ADP301      0.0000 
     15 C2'        30.5490  -14.0310   26.4930 C.3       1 ADP301      0.0000 
     16 O2'        30.2240  -14.9990   25.5190 O.3       1 ADP301      0.0000 
     17 C1'        31.7840  -14.4740   27.2730 C.3       1 ADP301      0.0000 
     18 N9         31.8340  -14.0320   28.6630 N.pl3     1 ADP301      0.0000 
     19 C8         31.4860  -12.8030   29.1640 C.2       1 ADP301      0.0000 
     20 N7         31.6570  -12.7240   30.4630 N.2       1 ADP301      0.0000 
     21 C5         32.1620  -13.9630   30.8330 C.ar      1 ADP301      0.0000 
     22 C6         32.5620  -14.5010   32.0730 C.ar      1 ADP301      0.0000 
     23 N6         32.5130  -13.8300   33.2200 N.pl3     1 ADP301      0.0000 
     24 N1         33.0330  -15.7740   32.0820 N.ar      1 ADP301      0.0000 
     25 C2         33.0870  -16.4450   30.9220 C.ar      1 ADP301      0.0000 
     26 N3         32.7340  -16.0430   29.7010 N.ar      1 ADP301      0.0000 
     27 C4         32.2780  -14.7760   29.7250 C.ar      1 ADP301      0.0000 
@<TRIPOS>BOND
     1    1    2 ar   
     2    1    3 ar   
     3    1    4 ar   
     4    1    8 1    
     5    5    6 ar   
     6    5    7 ar   
     7    5    8 1    
     8    5    9 1    
     9    9   10 1    
    10   10   11 1    
    11   11   12 1    
    12   11   13 1    
    13   12   17 1    
    14   13   14 1    
    15   13   15 1    
    16   15   16 1    
    17   15   17 1    
    18   17   18 1    
    19   18   19 1    
    20   18   27 1    
    21   19   20 2    
    22   20   21 1    
    23   21   22 ar   
    24   21   27 ar   
    25   22   23 1    
    26   22   24 ar   
    27   24   25 ar   
    28   25   26 ar   
    29   26   27 ar   
@<TRIPOS>SUBSTRUCTURE
     1 ADP301      1 GROUP   
@<TRIPOS>SET
ATOM$ORANGE STATIC     ATOMS   COLORGROUP SYSTEM 
20 10 10 11 11 13 13 15 15 17 17 19 19 21 21 22 22 25 \
25 27 27 

