#    Name: 6fua_2_ADP_CAVITY_N1_8
#    Modification time : Fri May 22 19:26:34 2020

@<TRIPOS>MOLECULE
6fua_2_ADP_CAVITY_N1_8
   77     0     6     0     0
SMALL
NO_CHARGES


@<TRIPOS>ATOM
      1 OG         30.7000    9.3600   23.6800 O.3       1 SER1        0.0000 
      2 OG         32.7700    9.3200   23.2000 O.3       1 SER1        0.0000 
      3 OG         31.9000   10.1900   24.0500 O.3       1 SER1        0.0000 
      4 O          29.2700   12.8100   26.6000 O.2       2 ALA2        0.0000 
      5 N          33.1600   13.6200   24.4800 N.am      2 ALA2        0.0000 
      6 N          32.2800   14.4900   25.3300 N.am      2 ALA2        0.0000 
      7 N          31.4100   15.3600   26.1800 N.am      2 ALA2        0.0000 
      8 N          34.9700   14.4700   22.8300 N.am      2 ALA2        0.0000 
      9 N          34.3500   14.4400   24.8600 N.am      2 ALA2        0.0000 
     10 N          33.4700   15.3200   25.7100 N.am      2 ALA2        0.0000 
     11 N          37.9200   13.5500   21.5100 N.am      2 ALA2        0.0000 
     12 O          37.0400   14.4200   22.3600 O.2       2 ALA2        0.0000 
     13 O          39.1100   14.3800   21.8800 O.2       2 ALA2        0.0000 
     14 N          37.0500   17.8000   26.8400 N.am      2 ALA2        0.0000 
     15 OD1        30.9500    8.4700   24.8500 O.co2     3 ASP3        0.0000 
     16 OD1        34.5300   10.9500   25.9800 O.co2     3 ASP3        0.0000 
     17 OD1        36.3500   11.8000   24.3300 O.co2     3 ASP3        0.0000 
     18 OD1        35.4700   12.6800   25.1800 O.co2     3 ASP3        0.0000 
     19 OD1        35.9700   10.8800   27.5400 O.co2     3 ASP3        0.0000 
     20 OD1        37.2900   13.5300   23.5300 O.co2     3 ASP3        0.0000 
     21 OD1        36.4200   14.4000   24.3800 O.co2     3 ASP3        0.0000 
     22 OD1        37.4100   10.8200   29.0900 O.co2     3 ASP3        0.0000 
     23 OD1        39.3600   13.4800   23.0600 O.co2     3 ASP3        0.0000 
     24 OD1        38.4800   14.3500   23.9100 O.co2     3 ASP3        0.0000 
     25 OD1        37.6100   15.2300   24.7600 O.co2     3 ASP3        0.0000 
     26 OD1        36.7300   16.1000   25.6100 O.co2     3 ASP3        0.0000 
     27 OD1        40.5500   14.3100   23.4400 O.co2     3 ASP3        0.0000 
     28 OD1        39.6800   15.1800   24.2900 O.co2     3 ASP3        0.0000 
     29 OD1        38.8000   16.0600   25.1400 O.co2     3 ASP3        0.0000 
     30 OD1        37.9300   16.9300   25.9900 O.co2     3 ASP3        0.0000 
     31 OD1        39.3700   16.8600   27.5400 O.co2     3 ASP3        0.0000 
     32 NZ         29.8300   10.2400   24.5300 N.4       4 LYS4        0.0000 
     33 NZ         31.0200   11.0700   24.9000 N.4       4 LYS4        0.0000 
     34 NZ         30.1500   11.9400   25.7500 N.4       4 LYS4        0.0000 
     35 NZ         31.9600   12.7900   24.1000 N.4       4 LYS4        0.0000 
     36 NZ         31.0900   13.6600   24.9500 N.4       4 LYS4        0.0000 
     37 NZ         30.2100   14.5400   25.8000 N.4       4 LYS4        0.0000 
     38 NZ         32.2100   11.8900   25.2800 N.4       4 LYS4        0.0000 
     39 NZ         31.3400   12.7700   26.1300 N.4       4 LYS4        0.0000 
     40 NZ         39.1200   17.7600   26.3700 N.4       4 LYS4        0.0000 
     41 CA         30.0800    9.3400   25.7000 C.3       5 GLY6        0.0000 
     42 CA         31.2700   10.1700   26.0800 C.3       5 GLY6        0.0000 
     43 CA         30.4000   11.0400   26.9300 C.3       5 GLY6        0.0000 
     44 CA         31.5200    9.2700   27.2600 C.3       5 GLY6        0.0000 
     45 CA         30.4600   13.6400   26.9800 C.3       5 GLY6        0.0000 
     46 CA         30.7100   12.7400   28.1600 C.3       5 GLY6        0.0000 
     47 CA         31.8400   10.9700   28.4800 C.3       5 GLY6        0.0000 
     48 CA         34.2800   11.8500   24.8100 C.3       5 GLY6        0.0000 
     49 CA         31.6600   14.4700   27.3600 C.3       5 GLY6        0.0000 
     50 CA         32.7800   12.7000   27.6800 C.3       5 GLY6        0.0000 
     51 CA         33.0300   11.8000   28.8600 C.3       5 GLY6        0.0000 
     52 CA         36.9700   11.8300   22.3100 C.3       5 GLY6        0.0000 
     53 CA         36.1000   12.7000   23.1600 C.3       5 GLY6        0.0000 
     54 CA         35.2200   13.5700   24.0100 C.3       5 GLY6        0.0000 
     55 CA         34.6000   13.5500   26.0300 C.3       5 GLY6        0.0000 
     56 CA         33.7200   14.4200   26.8800 C.3       5 GLY6        0.0000 
     57 CA         32.8500   15.2900   27.7300 C.3       5 GLY6        0.0000 
     58 CA         34.8500   12.6500   27.2100 C.3       5 GLY6        0.0000 
     59 CA         33.9700   13.5300   28.0600 C.3       5 GLY6        0.0000 
     60 CA         35.1000   11.7600   28.3900 C.3       5 GLY6        0.0000 
     61 CA         35.3500   10.8600   29.5600 C.3       5 GLY6        0.0000 
     62 CA         36.1700   15.3000   23.2100 C.3       5 GLY6        0.0000 
     63 CA         35.5400   15.2700   25.2300 C.3       5 GLY6        0.0000 
     64 CA         38.2300   15.2500   22.7300 C.3       5 GLY6        0.0000 
     65 DU         32.1400    9.3000   25.2300 H         6 CUB7        0.0000 
     66 DU         33.3400   10.1200   25.6100 H         6 CUB7        0.0000 
     67 DU         32.4600   11.0000   26.4600 H         6 CUB7        0.0000 
     68 DU         31.5900   11.8700   27.3100 H         6 CUB7        0.0000 
     69 DU         32.7100   10.1000   27.6300 H         6 CUB7        0.0000 
     70 DU         33.4100   12.7200   25.6600 H         6 CUB7        0.0000 
     71 DU         32.5300   13.5900   26.5100 H         6 CUB7        0.0000 
     72 DU         33.6600   11.8300   26.8300 H         6 CUB7        0.0000 
     73 DU         34.7800   10.0600   27.1600 H         6 CUB7        0.0000 
     74 DU         33.9000   10.9300   28.0100 H         6 CUB7        0.0000 
     75 DU         35.0300    9.1600   28.3400 H         6 CUB7        0.0000 
     76 DU         34.1500   10.0300   29.1900 H         6 CUB7        0.0000 
     77 DU         38.1700   12.6500   22.6800 H         6 CUB7        0.0000 
@<TRIPOS>BOND
@<TRIPOS>SUBSTRUCTURE
     1 SER1        1 GROUP   
     2 ALA2        4 GROUP   
     3 ASP3       15 GROUP   
     4 LYS4       32 GROUP   
     5 GLY6       41 GROUP   
     6 CUB7       65 GROUP   
@<TRIPOS>SET

