#    Name: 6fua_2_ADP
#    Modification time : Fri May 22 19:26:32 2020

@<TRIPOS>MOLECULE
6fua_2_ADP
   27    29     1     0     1
SMALL
NO_CHARGES


@<TRIPOS>ATOM
      1 PB         32.8820    6.2360   27.3620 P.3       1 ADP302      0.0000 
      2 O1B        32.0450    5.8260   26.1720 O.co2     1 ADP302      0.0000 
      3 O2B        32.0850    6.2820   28.6450 O.co2     1 ADP302      0.0000 
      4 O3B        34.1380    5.4040   27.4910 O.co2     1 ADP302      0.0000 
      5 PA         34.0660    8.8590   28.0480 P.3       1 ADP302      0.0000 
      6 O1A        35.5250    8.5480   28.1570 O.co2     1 ADP302      0.0000 
      7 O2A        33.2550    8.9400   29.2990 O.co2     1 ADP302      0.0000 
      8 O3A        33.3660    7.7680   27.0970 O.3       1 ADP302      0.0000 
      9 O5'        33.8820   10.2080   27.1950 O.3       1 ADP302      0.0000 
     10 C5'        33.8200   11.5040   27.8520 C.3       1 ADP302      0.0000 
     11 C4'        32.5100   12.1780   27.5170 C.3       1 ADP302      0.0000 
     12 O4'        32.7510   13.5870   27.2700 O.3       1 ADP302      0.0000 
     13 C3'        31.7730   11.6450   26.2750 C.3       1 ADP302      0.0000 
     14 O3'        30.6370   10.8940   26.6820 O.3       1 ADP302      0.0000 
     15 C2'        31.4590   12.9110   25.4640 C.3       1 ADP302      0.0000 
     16 O2'        30.2080   13.4810   25.7750 O.3       1 ADP302      0.0000 
     17 C1'        32.5840   13.8440   25.8990 C.3       1 ADP302      0.0000 
     18 N9         33.8800   13.6350   25.2570 N.pl3     1 ADP302      0.0000 
     19 C8         34.3250   12.5190   24.5860 C.2       1 ADP302      0.0000 
     20 N7         35.5460   12.6620   24.1310 N.2       1 ADP302      0.0000 
     21 C5         35.9340   13.9280   24.5390 C.ar      1 ADP302      0.0000 
     22 C6         37.1270   14.6550   24.3660 C.ar      1 ADP302      0.0000 
     23 N6         38.1860   14.1830   23.7160 N.pl3     1 ADP302      0.0000 
     24 N1         37.1840   15.8950   24.9110 N.ar      1 ADP302      0.0000 
     25 C2         36.1070   16.3560   25.5650 C.ar      1 ADP302      0.0000 
     26 N3         34.9340   15.7640   25.7820 N.ar      1 ADP302      0.0000 
     27 C4         34.9140   14.5340   25.2390 C.ar      1 ADP302      0.0000 
@<TRIPOS>BOND
     1    1    2 ar   
     2    1    3 ar   
     3    1    4 ar   
     4    1    8 1    
     5    5    6 ar   
     6    5    7 ar   
     7    5    8 1    
     8    5    9 1    
     9    9   10 1    
    10   10   11 1    
    11   11   12 1    
    12   11   13 1    
    13   12   17 1    
    14   13   14 1    
    15   13   15 1    
    16   15   16 1    
    17   15   17 1    
    18   17   18 1    
    19   18   19 1    
    20   18   27 1    
    21   19   20 2    
    22   20   21 1    
    23   21   22 ar   
    24   21   27 ar   
    25   22   23 1    
    26   22   24 ar   
    27   24   25 ar   
    28   25   26 ar   
    29   26   27 ar   
@<TRIPOS>SUBSTRUCTURE
     1 ADP302      1 GROUP   
@<TRIPOS>SET
ATOM$ORANGE STATIC     ATOMS   COLORGROUP SYSTEM 
20 10 10 11 11 13 13 15 15 17 17 19 19 21 21 22 22 25 \
25 27 27 

