#    Name: 6gw1_2_CHO
#    Modification time : Fri May 22 19:26:21 2020

@<TRIPOS>MOLECULE
6gw1_2_CHO
   28    31     1     0     0
SMALL
NO_CHARGES


@<TRIPOS>ATOM
      1 C1        -50.5820   11.9720  -30.3560 C.3       1 CHO601      0.0000 
      2 C2        -51.8550   11.6540  -31.1440 C.3       1 CHO601      0.0000 
      3 C3        -51.8740   10.1970  -31.5520 C.3       1 CHO601      0.0000 
      4 O3        -53.0540    9.9660  -32.3250 O.3       1 CHO601      0.0000 
      5 C4        -50.6360    9.8740  -32.3570 C.3       1 CHO601      0.0000 
      6 C5        -49.3320   10.2070  -31.6300 C.3       1 CHO601      0.0000 
      7 C6        -48.0990    9.8270  -32.4620 C.3       1 CHO601      0.0000 
      8 C7        -47.7670   10.8040  -33.5880 C.3       1 CHO601      0.0000 
      9 O7        -48.6680   10.6170  -34.6830 O.3       1 CHO601      0.0000 
     10 C8        -47.8420   12.2690  -33.1430 C.3       1 CHO601      0.0000 
     11 C9        -49.1220   12.5920  -32.3740 C.3       1 CHO601      0.0000 
     12 C10       -49.2840   11.6730  -31.1310 C.3       1 CHO601      0.0000 
     13 C11       -49.1840   14.0800  -32.0100 C.3       1 CHO601      0.0000 
     14 C12       -48.9100   15.0270  -33.1730 C.3       1 CHO601      0.0000 
     15 C13       -47.6070   14.6980  -33.9310 C.3       1 CHO601      0.0000 
     16 C14       -47.7210   13.2350  -34.3270 C.3       1 CHO601      0.0000 
     17 C15       -46.5810   13.0230  -35.3380 C.3       1 CHO601      0.0000 
     18 C16       -46.5050   14.3670  -36.0850 C.3       1 CHO601      0.0000 
     19 C17       -47.4070   15.3590  -35.3250 C.3       1 CHO601      0.0000 
     20 C18       -46.3840   14.9850  -33.0310 C.3       1 CHO601      0.0000 
     21 C19       -48.0940   11.8910  -30.1680 C.3       1 CHO601      0.0000 
     22 C20       -46.8580   16.7970  -35.4610 C.3       1 CHO601      0.0000 
     23 C21       -47.6740   17.8590  -34.7310 C.3       1 CHO601      0.0000 
     24 C22       -46.7590   17.1110  -36.9650 C.3       1 CHO601      0.0000 
     25 C23       -46.6430   18.5800  -37.3370 C.3       1 CHO601      0.0000 
     26 C24       -46.5410   18.7840  -38.8350 C.2       1 CHO601      0.0000 
     27 O24       -46.0350   19.7990  -39.3100 O.2       1 CHO601      0.0000 
     28 N25       -47.0190   17.8060  -39.5970 N.am      1 CHO601      0.0000 
@<TRIPOS>BOND
     1    1    2 1    
     2    1   12 1    
     3    2    3 1    
     4    3    4 1    
     5    3    5 1    
     6    5    6 1    
     7    6    7 1    
     8    6   12 1    
     9    7    8 1    
    10    8    9 1    
    11    8   10 1    
    12   10   11 1    
    13   10   16 1    
    14   11   12 1    
    15   11   13 1    
    16   12   21 1    
    17   13   14 1    
    18   14   15 1    
    19   15   16 1    
    20   15   19 1    
    21   15   20 1    
    22   16   17 1    
    23   17   18 1    
    24   18   19 1    
    25   19   22 1    
    26   22   23 1    
    27   22   24 1    
    28   24   25 1    
    29   25   26 1    
    30   26   27 2    
    31   26   28 am   
@<TRIPOS>SUBSTRUCTURE
     1 CHO601      1 GROUP   
@<TRIPOS>SET

