#    Name: 6gw1_2_CHO_CAVITY_N1_4
#    Modification time : Fri May 22 19:26:22 2020

@<TRIPOS>MOLECULE
6gw1_2_CHO_CAVITY_N1_4
   93     0     6     0     0
SMALL
NO_CHARGES


@<TRIPOS>ATOM
      1 OG        -46.6900   14.6300  -37.1200 O.3       1 SER1        0.0000 
      2 OG        -47.5000   17.7000  -38.2100 O.3       1 SER1        0.0000 
      3 OG        -45.7700   15.2300  -36.1000 O.3       1 SER1        0.0000 
      4 OG        -45.5900   16.4400  -36.9800 O.3       1 SER1        0.0000 
      5 OG        -47.7500   18.9600  -36.5200 O.3       1 SER1        0.0000 
      6 OG        -47.3700   15.9500  -32.8800 O.3       1 SER1        0.0000 
      7 OG        -47.1900   17.1600  -33.7500 O.3       1 SER1        0.0000 
      8 OG        -46.6500   20.7700  -36.3800 O.3       1 SER1        0.0000 
      9 OG        -48.3600   17.8200  -33.0900 O.3       1 SER1        0.0000 
     10 N         -47.2300   11.0200  -34.5000 N.am      2 ALA2        0.0000 
     11 N         -47.0500   12.2200  -35.3800 N.am      2 ALA2        0.0000 
     12 O         -46.8700   13.4300  -36.2500 O.2       2 ALA2        0.0000 
     13 O         -49.9400    9.9300  -31.4200 O.2       2 ALA2        0.0000 
     14 N         -49.5800   12.3400  -33.1700 N.am      2 ALA2        0.0000 
     15 N         -49.3900   13.5400  -34.0400 N.am      2 ALA2        0.0000 
     16 N         -49.2100   14.7500  -34.9200 N.am      2 ALA2        0.0000 
     17 O         -51.1100   10.5900  -30.7500 O.2       2 ALA2        0.0000 
     18 N         -50.9300   11.7900  -31.6300 N.am      2 ALA2        0.0000 
     19 N         -50.7500   13.0000  -32.5000 N.am      2 ALA2        0.0000 
     20 O         -45.9500   14.0300  -35.2300 O.2       2 ALA2        0.0000 
     21 N         -50.0100   12.3900  -30.6100 N.am      2 ALA2        0.0000 
     22 N         -49.8300   13.6000  -31.4800 N.am      2 ALA2        0.0000 
     23 N         -49.6400   14.8000  -32.3600 N.am      2 ALA2        0.0000 
     24 N         -49.4600   16.0100  -33.2300 N.am      2 ALA2        0.0000 
     25 N         -51.3600   11.8500  -29.0700 N.am      2 ALA2        0.0000 
     26 O         -47.0100   18.3600  -34.6300 O.2       2 ALA2        0.0000 
     27 O         -49.2700   11.7900  -28.7100 O.2       2 ALA2        0.0000 
     28 N         -49.0900   13.0000  -29.5900 N.am      2 ALA2        0.0000 
     29 NZ        -46.8300   19.5700  -35.5000 N.4       3 LYS4        0.0000 
     30 NZ        -48.1800   19.0200  -33.9600 N.4       3 LYS4        0.0000 
     31 CZ        -48.7800   14.6900  -37.4800 C.ar      4 PHE5        0.0000 
     32 CZ        -48.6000   15.8900  -38.3500 C.ar      4 PHE5        0.0000 
     33 CZ        -44.7900   18.7900  -41.2900 C.ar      4 PHE5        0.0000 
     34 CZ        -47.6000    8.6100  -32.7500 C.ar      4 PHE5        0.0000 
     35 CZ        -46.1400   18.2500  -39.7500 C.ar      4 PHE5        0.0000 
     36 CZ        -48.7700    9.2700  -32.0800 C.ar      4 PHE5        0.0000 
     37 CZ        -47.6800   16.5000  -37.3300 C.ar      4 PHE5        0.0000 
     38 CZ        -47.3200   18.9100  -39.0800 C.ar      4 PHE5        0.0000 
     39 CZ        -45.4100   17.6400  -37.8500 C.ar      4 PHE5        0.0000 
     40 CZ        -45.2200   18.8500  -38.7300 C.ar      4 PHE5        0.0000 
     41 CZ        -47.8500    9.8700  -31.0600 C.ar      4 PHE5        0.0000 
     42 CZ        -46.5800   18.3000  -37.1900 C.ar      4 PHE5        0.0000 
     43 CZ        -46.4000   19.5100  -38.0600 C.ar      4 PHE5        0.0000 
     44 CZ        -49.0200   10.5300  -30.4000 C.ar      4 PHE5        0.0000 
     45 CZ        -47.9300   17.7600  -35.6500 C.ar      4 PHE5        0.0000 
     46 CZ        -47.5700   20.1700  -37.4000 C.ar      4 PHE5        0.0000 
     47 CZ        -47.3800   21.3700  -38.2700 C.ar      4 PHE5        0.0000 
     48 CZ        -50.1900   11.1900  -29.7300 C.ar      4 PHE5        0.0000 
     49 CZ        -49.2800   17.2100  -34.1100 C.ar      4 PHE5        0.0000 
     50 CZ        -48.1000   11.1300  -29.3800 C.ar      4 PHE5        0.0000 
     51 CA        -49.9500   15.3500  -36.8100 C.3       5 GLY6        0.0000 
     52 CA        -49.0300   15.9500  -35.7900 C.3       5 GLY6        0.0000 
     53 CA        -52.2800   11.2500  -30.0900 C.3       5 GLY6        0.0000 
     54 CA        -52.1000   12.4500  -30.9600 C.3       5 GLY6        0.0000 
     55 CA        -53.4500   11.9100  -29.4200 C.3       5 GLY6        0.0000 
     56 CA        -46.5000   10.4100  -32.6100 C.3       5 GLY6        0.0000 
     57 CA        -46.3100   11.6200  -33.4800 C.3       5 GLY6        0.0000 
     58 CA        -46.1300   12.8200  -34.3500 C.3       5 GLY6        0.0000 
     59 CA        -45.0400   20.0500  -39.6000 C.3       5 GLY6        0.0000 
     60 CA        -47.6700   11.0700  -31.9400 C.3       5 GLY6        0.0000 
     61 CA        -47.4800   12.2800  -32.8100 C.3       5 GLY6        0.0000 
     62 CA        -46.7600   17.1000  -36.3100 C.3       5 GLY6        0.0000 
     63 CA        -46.2100   20.7100  -38.9400 C.3       5 GLY6        0.0000 
     64 CA        -46.0300   21.9200  -39.8100 C.3       5 GLY6        0.0000 
     65 CA        -48.4700   14.1400  -33.0200 C.3       5 GLY6        0.0000 
     66 CA        -48.1100   16.5500  -34.7700 C.3       5 GLY6        0.0000 
     67 CA        -49.1000   18.4200  -34.9800 C.3       5 GLY6        0.0000 
     68 CA        -51.1800   13.0500  -29.9400 C.3       5 GLY6        0.0000 
     69 CA        -45.0300   14.6300  -34.2100 C.3       5 GLY6        0.0000 
     70 CA        -46.5600   12.8800  -31.7900 C.3       5 GLY6        0.0000 
     71 CA        -46.3800   14.0900  -32.6700 C.3       5 GLY6        0.0000 
     72 CA        -46.2000   15.2900  -33.5400 C.3       5 GLY6        0.0000 
     73 CA        -46.0200   16.5000  -34.4200 C.3       5 GLY6        0.0000 
     74 CA        -45.8400   17.7000  -35.2900 C.3       5 GLY6        0.0000 
     75 CA        -45.6600   18.9100  -36.1700 C.3       5 GLY6        0.0000 
     76 CA        -47.9200   12.3400  -30.2500 C.3       5 GLY6        0.0000 
     77 CA        -47.7400   13.5400  -31.1300 C.3       5 GLY6        0.0000 
     78 CA        -47.5500   14.7500  -32.0000 C.3       5 GLY6        0.0000 
     79 CA        -48.9100   14.2000  -30.4600 C.3       5 GLY6        0.0000 
     80 DU        -48.9600   13.4800  -36.6000 H         6 CUB7        0.0000 
     81 DU        -47.4200    9.8100  -33.6300 H         6 CUB7        0.0000 
     82 DU        -48.5900   10.4700  -32.9600 H         6 CUB7        0.0000 
     83 DU        -48.4000   11.6800  -33.8300 H         6 CUB7        0.0000 
     84 DU        -48.2200   12.8800  -34.7100 H         6 CUB7        0.0000 
     85 DU        -48.0400   14.0900  -35.5800 H         6 CUB7        0.0000 
     86 DU        -47.8600   15.2900  -36.4600 H         6 CUB7        0.0000 
     87 DU        -49.7600   11.1300  -32.2900 H         6 CUB7        0.0000 
     88 DU        -47.3000   13.4800  -33.6900 H         6 CUB7        0.0000 
     89 DU        -47.1200   14.6900  -34.5600 H         6 CUB7        0.0000 
     90 DU        -46.9400   15.8900  -35.4400 H         6 CUB7        0.0000 
     91 DU        -48.8400   11.7300  -31.2700 H         6 CUB7        0.0000 
     92 DU        -48.6600   12.9400  -32.1500 H         6 CUB7        0.0000 
     93 DU        -48.2900   15.3500  -33.9000 H         6 CUB7        0.0000 
@<TRIPOS>BOND
@<TRIPOS>SUBSTRUCTURE
     1 SER1        1 GROUP   
     2 ALA2       10 GROUP   
     3 LYS4       29 GROUP   
     4 PHE5       31 GROUP   
     5 GLY6       51 GROUP   
     6 CUB7       80 GROUP   
@<TRIPOS>SET

