#    Name: 6gw1_1_CHO
#    Modification time : Fri May 22 19:26:17 2020

@<TRIPOS>MOLECULE
6gw1_1_CHO
   28    31     1     0     0
SMALL
NO_CHARGES


@<TRIPOS>ATOM
      1 C1        -49.2200   -0.6240  -14.1150 C.3       1 CHO601      0.0000 
      2 C2        -50.5870   -0.5220  -13.4310 C.3       1 CHO601      0.0000 
      3 C3        -50.8770    0.9220  -13.0650 C.3       1 CHO601      0.0000 
      4 O3        -52.1650    1.0090  -12.4460 O.3       1 CHO601      0.0000 
      5 C4        -49.7920    1.4140  -12.1430 C.3       1 CHO601      0.0000 
      6 C5        -48.4200    1.3840  -12.8110 C.3       1 CHO601      0.0000 
      7 C6        -47.3460    2.0100  -11.9150 C.3       1 CHO601      0.0000 
      8 C7        -46.8480    1.1350  -10.7700 C.3       1 CHO601      0.0000 
      9 O7        -47.7810    1.1770   -9.6880 O.3       1 CHO601      0.0000 
     10 C8        -46.6240   -0.3250  -11.1880 C.3       1 CHO601      0.0000 
     11 C9        -47.7660   -0.8950  -12.0360 C.3       1 CHO601      0.0000 
     12 C10       -48.0510   -0.0370  -13.2990 C.3       1 CHO601      0.0000 
     13 C11       -47.5260   -2.3660  -12.3900 C.3       1 CHO601      0.0000 
     14 C12       -47.1670   -3.2170  -11.1860 C.3       1 CHO601      0.0000 
     15 C13       -45.9950   -2.6400  -10.3710 C.3       1 CHO601      0.0000 
     16 C14       -46.4060   -1.2370   -9.9780 C.3       1 CHO601      0.0000 
     17 C15       -45.3850   -0.8280   -8.9010 C.3       1 CHO601      0.0000 
     18 C16       -45.0810   -2.1450   -8.1570 C.3       1 CHO601      0.0000 
     19 C17       -45.7540   -3.2690   -8.9720 C.3       1 CHO601      0.0000 
     20 C18       -44.7000   -2.6300  -11.2110 C.3       1 CHO601      0.0000 
     21 C19       -46.8170    0.0100  -14.2270 C.3       1 CHO601      0.0000 
     22 C20       -44.9670   -4.5830   -8.8230 C.3       1 CHO601      0.0000 
     23 C21       -45.4800   -5.7520   -9.6530 C.3       1 CHO601      0.0000 
     24 C22       -44.9720   -4.9720   -7.3340 C.3       1 CHO601      0.0000 
     25 C23       -43.9100   -5.9820   -6.9450 C.3       1 CHO601      0.0000 
     26 C24       -44.2390   -6.6930   -5.6510 C.2       1 CHO601      0.0000 
     27 O24       -43.9480   -7.8730   -5.5010 O.2       1 CHO601      0.0000 
     28 N25       -44.8530   -5.9810   -4.7120 N.am      1 CHO601      0.0000 
@<TRIPOS>BOND
     1    1    2 1    
     2    1   12 1    
     3    2    3 1    
     4    3    4 1    
     5    3    5 1    
     6    5    6 1    
     7    6    7 1    
     8    6   12 1    
     9    7    8 1    
    10    8    9 1    
    11    8   10 1    
    12   10   11 1    
    13   10   16 1    
    14   11   12 1    
    15   11   13 1    
    16   12   21 1    
    17   13   14 1    
    18   14   15 1    
    19   15   16 1    
    20   15   19 1    
    21   15   20 1    
    22   16   17 1    
    23   17   18 1    
    24   18   19 1    
    25   19   22 1    
    26   22   23 1    
    27   22   24 1    
    28   24   25 1    
    29   25   26 1    
    30   26   27 2    
    31   26   28 am   
@<TRIPOS>SUBSTRUCTURE
     1 CHO601      1 GROUP   
@<TRIPOS>SET

