#    Name: 6nmp_5_CHD
#    Modification time : Fri May 22 19:31:08 2020

@<TRIPOS>MOLECULE
6nmp_5_CHD
   29    32     1     0     0
SMALL
NO_CHARGES


@<TRIPOS>ATOM
      1 C1         23.6920  -20.1010  -29.0460 C.3       1 CHD302      0.0000 
      2 C2         24.3610  -20.4830  -30.3490 C.3       1 CHD302      0.0000 
      3 C3         24.1070  -21.9360  -30.7410 C.3       1 CHD302      0.0000 
      4 O3         25.1150  -22.3210  -31.6980 O.3       1 CHD302      0.0000 
      5 C4         24.1760  -22.9230  -29.5780 C.3       1 CHD302      0.0000 
      6 C5         23.6660  -22.4130  -28.2330 C.3       1 CHD302      0.0000 
      7 C6         24.0660  -23.4360  -27.1640 C.3       1 CHD302      0.0000 
      8 C7         25.5250  -23.3480  -26.6950 C.3       1 CHD302      0.0000 
      9 O7         26.3250  -23.9920  -27.6920 O.3       1 CHD302      0.0000 
     10 C8         26.0040  -21.9160  -26.4130 C.3       1 CHD302      0.0000 
     11 C9         25.6440  -20.9980  -27.5960 C.3       1 CHD302      0.0000 
     12 C10        24.1220  -20.9970  -27.8900 C.3       1 CHD302      0.0000 
     13 C11        26.2590  -19.5950  -27.4670 C.3       1 CHD302      0.0000 
     14 C12        27.7340  -19.5500  -27.0190 C.3       1 CHD302      0.0000 
     15 O12        28.5930  -19.9070  -28.1140 O.3       1 CHD302      0.0000 
     16 C13        27.9990  -20.4030  -25.7750 C.3       1 CHD302      0.0000 
     17 C14        27.5060  -21.8110  -26.1120 C.3       1 CHD302      0.0000 
     18 C15        28.0500  -22.6700  -24.9830 C.3       1 CHD302      0.0000 
     19 C16        29.3340  -21.9680  -24.5480 C.3       1 CHD302      0.0000 
     20 C17        29.4530  -20.6660  -25.3520 C.3       1 CHD302      0.0000 
     21 C18        27.2620  -19.7500  -24.5890 C.3       1 CHD302      0.0000 
     22 C19        23.2990  -20.4790  -26.7030 C.3       1 CHD302      0.0000 
     23 C20        30.2080  -19.5730  -24.5810 C.3       1 CHD302      0.0000 
     24 C21        30.3390  -18.2920  -25.4010 C.3       1 CHD302      0.0000 
     25 C22        31.5820  -20.0130  -24.0430 C.3       1 CHD302      0.0000 
     26 C23        32.8400  -19.6700  -24.8540 C.3       1 CHD302      0.0000 
     27 O25        34.7450  -20.7360  -23.9750 O.co2     1 CHD302      0.0000 
     28 C24        34.0870  -19.6730  -23.9890 C.2       1 CHD302      0.0000 
     29 O26        34.4190  -18.6230  -23.3570 O.co2     1 CHD302      0.0000 
@<TRIPOS>BOND
     1    1    2 1    
     2    1   12 1    
     3    2    3 1    
     4    3    4 1    
     5    3    5 1    
     6    5    6 1    
     7    6    7 1    
     8    6   12 1    
     9    7    8 1    
    10    8    9 1    
    11    8   10 1    
    12   10   11 1    
    13   10   17 1    
    14   11   12 1    
    15   11   13 1    
    16   12   22 1    
    17   13   14 1    
    18   14   15 1    
    19   14   16 1    
    20   16   17 1    
    21   16   20 1    
    22   16   21 1    
    23   17   18 1    
    24   18   19 1    
    25   19   20 1    
    26   20   23 1    
    27   23   24 1    
    28   23   25 1    
    29   25   26 1    
    30   26   28 1    
    31   27   28 ar   
    32   28   29 ar   
@<TRIPOS>SUBSTRUCTURE
     1 CHD302      1 GROUP   
@<TRIPOS>SET

