#    Name: 6nmp_1_CHD
#    Modification time : Fri May 22 19:30:55 2020

@<TRIPOS>MOLECULE
6nmp_1_CHD
   29    32     1     0     0
SMALL
NO_CHARGES


@<TRIPOS>ATOM
      1 C1         25.8340   15.8940   22.1970 C.3       1 CHD303      0.0000 
      2 C2         26.4230   16.1220   23.5640 C.3       1 CHD303      0.0000 
      3 C3         26.2490   17.5660   24.0240 C.3       1 CHD303      0.0000 
      4 O3         27.0090   17.7940   25.2280 O.3       1 CHD303      0.0000 
      5 C4         26.7630   18.5450   22.9780 C.3       1 CHD303      0.0000 
      6 C5         26.2920   18.2550   21.5570 C.3       1 CHD303      0.0000 
      7 C6         26.9650   19.2730   20.6230 C.3       1 CHD303      0.0000 
      8 C7         28.3870   18.9440   20.1700 C.3       1 CHD303      0.0000 
      9 O7         29.3280   19.3230   21.1890 O.3       1 CHD303      0.0000 
     10 C8         28.5290   17.4750   19.7630 C.3       1 CHD303      0.0000 
     11 C9         27.9820   16.5470   20.8730 C.3       1 CHD303      0.0000 
     12 C10        26.4740   16.7890   21.1330 C.3       1 CHD303      0.0000 
     13 C11        28.3600   15.0710   20.6800 C.3       1 CHD303      0.0000 
     14 C12        29.8250   14.8360   20.2750 C.3       1 CHD303      0.0000 
     15 O12        30.6940   15.1280   21.3840 O.3       1 CHD303      0.0000 
     16 C13        30.2160   15.6680   19.0630 C.3       1 CHD303      0.0000 
     17 C14        29.9750   17.1330   19.4090 C.3       1 CHD303      0.0000 
     18 C15        30.6020   17.9070   18.2600 C.3       1 CHD303      0.0000 
     19 C16        31.7470   17.0000   17.8080 C.3       1 CHD303      0.0000 
     20 C17        31.7030   15.7430   18.6850 C.3       1 CHD303      0.0000 
     21 C18        29.3640   15.1900   17.8720 C.3       1 CHD303      0.0000 
     22 C19        25.6190   16.5320   19.8840 C.3       1 CHD303      0.0000 
     23 C20        32.3610   14.4960   18.0770 C.3       1 CHD303      0.0000 
     24 C21        32.6610   13.4300   19.1240 C.3       1 CHD303      0.0000 
     25 C22        33.6330   14.7690   17.2590 C.3       1 CHD303      0.0000 
     26 C23        34.9110   15.1530   18.0300 C.3       1 CHD303      0.0000 
     27 O25        37.1220   15.2880   17.2120 O.co2     1 CHD303      0.0000 
     28 C24        36.1370   14.5400   17.3830 C.2       1 CHD303      0.0000 
     29 O26        36.1230   13.3210   17.0480 O.co2     1 CHD303      0.0000 
@<TRIPOS>BOND
     1    1    2 1    
     2    1   12 1    
     3    2    3 1    
     4    3    4 1    
     5    3    5 1    
     6    5    6 1    
     7    6    7 1    
     8    6   12 1    
     9    7    8 1    
    10    8    9 1    
    11    8   10 1    
    12   10   11 1    
    13   10   17 1    
    14   11   12 1    
    15   11   13 1    
    16   12   22 1    
    17   13   14 1    
    18   14   15 1    
    19   14   16 1    
    20   16   17 1    
    21   16   20 1    
    22   16   21 1    
    23   17   18 1    
    24   18   19 1    
    25   19   20 1    
    26   20   23 1    
    27   23   24 1    
    28   23   25 1    
    29   25   26 1    
    30   26   28 1    
    31   27   28 ar   
    32   28   29 ar   
@<TRIPOS>SUBSTRUCTURE
     1 CHD303      1 GROUP   
@<TRIPOS>SET

