#    Name: 6fux_1_ADP
#    Modification time : Fri May 22 19:26:46 2020

@<TRIPOS>MOLECULE
6fux_1_ADP
   19    21     1     0     1
SMALL
NO_CHARGES


@<TRIPOS>ATOM
      1 O5'        40.0650   67.4440   14.8650 O.3       1 ADP302      0.0000 
      2 C5'        40.7540   68.2760   15.9000 C.3       1 ADP302      0.0000 
      3 C4'        40.8730   69.7970   15.5680 C.3       1 ADP302      0.0000 
      4 O4'        41.4420   70.0270   14.2700 O.3       1 ADP302      0.0000 
      5 C3'        39.5160   70.6220   15.4810 C.3       1 ADP302      0.0000 
      6 O3'        39.0400   71.1310   16.7220 O.3       1 ADP302      0.0000 
      7 C2'        39.4650   71.5920   14.2320 C.3       1 ADP302      0.0000 
      8 O2'        39.4770   73.0810   14.0980 O.3       1 ADP302      0.0000 
      9 C1'        40.5450   70.8850   13.4320 C.3       1 ADP302      0.0000 
     10 N9         40.0450   70.1750   12.1880 N.pl3     1 ADP302      0.0000 
     11 C8         40.0280   68.8530   11.8500 C.2       1 ADP302      0.0000 
     12 N7         39.5960   68.6270   10.5450 N.2       1 ADP302      0.0000 
     13 C5         39.3290   69.8550   10.0850 C.ar      1 ADP302      0.0000 
     14 C6         38.8290   70.2720    8.8530 C.ar      1 ADP302      0.0000 
     15 N6         38.7040   69.1150    7.9270 N.pl3     1 ADP302      0.0000 
     16 N1         38.6280   71.6630    8.8550 N.ar      1 ADP302      0.0000 
     17 C2         38.8590   72.5600    9.8020 C.ar      1 ADP302      0.0000 
     18 N3         39.3950   72.2320   11.0090 N.ar      1 ADP302      0.0000 
     19 C4         39.6160   70.9070   11.1540 C.ar      1 ADP302      0.0000 
@<TRIPOS>BOND
     1    1    2 1    
     2    2    3 1    
     3    3    4 1    
     4    3    5 1    
     5    4    9 1    
     6    5    6 1    
     7    5    7 1    
     8    7    8 1    
     9    7    9 1    
    10    9   10 1    
    11   10   11 1    
    12   10   19 1    
    13   11   12 2    
    14   12   13 1    
    15   13   14 ar   
    16   13   19 ar   
    17   14   15 1    
    18   14   16 ar   
    19   16   17 ar   
    20   17   18 ar   
    21   18   19 ar   
@<TRIPOS>SUBSTRUCTURE
     1 ADP302      1 GROUP   
@<TRIPOS>SET
ATOM$ORANGE STATIC     ATOMS   COLORGROUP SYSTEM 
20 2 2 3 3 5 5 7 7 9 9 11 11 13 13 14 14 17 \
17 19 19 

