#    Name: 6o2z_1_NAP
#    Modification time : Fri May 22 19:28:08 2020

@<TRIPOS>MOLECULE
6o2z_1_NAP
   48    52     1     0     1
SMALL
NO_CHARGES


@<TRIPOS>ATOM
      1 PA        -29.3690   16.4720  -14.5560 P.3       1 NAP501      0.0000 
      2 O1A       -29.2710   15.0440  -14.1320 O.co2     1 NAP501      0.0000 
      3 O2A       -29.4310   16.7960  -16.0110 O.co2     1 NAP501      0.0000 
      4 O5B       -28.1240   17.2740  -13.9540 O.3       1 NAP501      0.0000 
      5 C5B       -27.9210   17.4000  -12.5190 C.3       1 NAP501      0.0000 
      6 C4B       -26.4620   17.6780  -12.2720 C.3       1 NAP501      0.0000 
      7 O4B       -25.7700   16.4260  -12.0080 O.3       1 NAP501      0.0000 
      8 C3B       -25.6850   18.2880  -13.4460 C.3       1 NAP501      0.0000 
      9 O3B       -25.9240   19.6850  -13.5500 O.3       1 NAP501      0.0000 
     10 C2B       -24.2680   17.8740  -13.0600 C.3       1 NAP501      0.0000 
     11 O2B       -23.7850   18.5110  -11.8630 O.3       1 NAP501      0.0000 
     12 C1B       -24.5320   16.4190  -12.6920 C.3       1 NAP501      0.0000 
     13 N9A       -24.6060   15.5020  -13.8310 N.pl3     1 NAP501      0.0000 
     14 C8A       -25.7240   14.8380  -14.2760 C.2       1 NAP501      0.0000 
     15 N7A       -25.4970   14.0620  -15.3040 N.2       1 NAP501      0.0000 
     16 C5A       -24.1390   14.1980  -15.5500 C.ar      1 NAP501      0.0000 
     17 C6A       -23.2850   13.6150  -16.5080 C.ar      1 NAP501      0.0000 
     18 N6A       -23.6880   12.7560  -17.4380 N.pl3     1 NAP501      0.0000 
     19 N1A       -21.9770   13.9630  -16.4770 N.ar      1 NAP501      0.0000 
     20 C2A       -21.5730   14.8380  -15.5460 C.ar      1 NAP501      0.0000 
     21 N3A       -22.2830   15.4450  -14.5950 N.ar      1 NAP501      0.0000 
     22 C4A       -23.5780   15.0860  -14.6480 C.ar      1 NAP501      0.0000 
     23 O3        -30.6570   17.1140  -13.8310 O.3       1 NAP501      0.0000 
     24 PN        -31.3380   18.5690  -13.9640 P.3       1 NAP501      0.0000 
     25 O1N       -32.0790   18.8680  -12.6960 O.co2     1 NAP501      0.0000 
     26 O2N       -30.2650   19.4920  -14.4730 O.co2     1 NAP501      0.0000 
     27 O5D       -32.4240   18.3500  -15.1220 O.3       1 NAP501      0.0000 
     28 C5D       -32.2110   18.8710  -16.4690 C.3       1 NAP501      0.0000 
     29 C4D       -33.3550   18.4000  -17.3310 C.3       1 NAP501      0.0000 
     30 O4D       -33.3340   16.9490  -17.3600 O.3       1 NAP501      0.0000 
     31 C3D       -34.7580   18.8140  -16.8420 C.3       1 NAP501      0.0000 
     32 O3D       -35.4810   19.5320  -17.8360 O.3       1 NAP501      0.0000 
     33 C2D       -35.4080   17.4810  -16.4310 C.3       1 NAP501      0.0000 
     34 O2D       -36.7880   17.3680  -16.7290 O.3       1 NAP501      0.0000 
     35 C1D       -34.6520   16.4460  -17.2480 C.3       1 NAP501      0.0000 
     36 N1N       -34.6550   15.0710  -16.6320 N.pl3     1 NAP501      0.0000 
     37 C2N       -34.8450   13.9970  -17.4650 C.ar      1 NAP501      0.0000 
     38 C3N       -34.8000   12.6910  -17.0370 C.ar      1 NAP501      0.0000 
     39 C7N       -34.8590   11.6580  -18.1080 C.2       1 NAP501      0.0000 
     40 O7N       -34.4070   10.5260  -17.9080 O.2       1 NAP501      0.0000 
     41 N7N       -35.3860   12.0090  -19.2720 N.am      1 NAP501      0.0000 
     42 C4N       -34.6920   12.4280  -15.5690 C.ar      1 NAP501      0.0000 
     43 C5N       -34.3890   13.6400  -14.7570 C.ar      1 NAP501      0.0000 
     44 C6N       -34.4680   14.8580  -15.2620 C.ar      1 NAP501      0.0000 
     45 P2B       -22.8200   19.8230  -11.9810 P.3       1 NAP501      0.0000 
     46 O1X       -22.4790   19.9410  -10.4920 O.co2     1 NAP501      0.0000 
     47 O2X       -21.6110   19.5610  -12.8690 O.co2     1 NAP501      0.0000 
     48 O3X       -23.6400   21.0110  -12.4950 O.co2     1 NAP501      0.0000 
@<TRIPOS>BOND
     1    1    2 ar   
     2    1    3 ar   
     3    1    4 1    
     4    1   23 1    
     5    4    5 1    
     6    5    6 1    
     7    6    7 1    
     8    6    8 1    
     9    7   12 1    
    10    8    9 1    
    11    8   10 1    
    12   10   11 1    
    13   10   12 1    
    14   11   45 1    
    15   12   13 1    
    16   13   14 1    
    17   13   22 1    
    18   14   15 2    
    19   15   16 1    
    20   16   17 ar   
    21   16   22 ar   
    22   17   18 1    
    23   17   19 ar   
    24   19   20 ar   
    25   20   21 ar   
    26   21   22 ar   
    27   23   24 1    
    28   24   25 ar   
    29   24   26 ar   
    30   24   27 1    
    31   27   28 1    
    32   28   29 1    
    33   29   30 1    
    34   29   31 1    
    35   30   35 1    
    36   31   32 1    
    37   31   33 1    
    38   33   34 1    
    39   33   35 1    
    40   35   36 1    
    41   36   37 ar   
    42   36   44 ar   
    43   37   38 ar   
    44   38   39 1    
    45   38   42 ar   
    46   39   40 2    
    47   39   41 am   
    48   42   43 ar   
    49   43   44 ar   
    50   45   46 ar   
    51   45   47 ar   
    52   45   48 ar   
@<TRIPOS>SUBSTRUCTURE
     1 NAP501      1 GROUP   
@<TRIPOS>SET
ATOM$ORANGE STATIC     ATOMS   COLORGROUP SYSTEM 
42 5 5 6 6 8 8 10 10 12 12 14 14 16 16 17 17 20 \
20 22 22 28 28 29 29 31 31 33 33 35 35 37 37 38 38 39 \
39 42 42 43 43 44 44 

