#    Name: 6o2z_2_NAP_CAVITY_N1_4
#    Modification time : Fri May 22 19:28:26 2020

@<TRIPOS>MOLECULE
6o2z_2_NAP_CAVITY_N1_4
   92     0     6     0     0
SMALL
NO_CHARGES


@<TRIPOS>ATOM
      1 OG        -31.3600   -3.7800   17.0900 O.3       1 SER1        0.0000 
      2 OG        -30.5400   -4.7600   18.7800 O.3       1 SER1        0.0000 
      3 OG        -30.6500   -3.3300   18.3300 O.3       1 SER1        0.0000 
      4 OG        -25.7600   -6.0800   18.3400 O.3       1 SER1        0.0000 
      5 OG        -26.9600   -7.3900   19.5000 O.3       1 SER1        0.0000 
      6 OG        -27.0800   -5.9700   19.0500 O.3       1 SER1        0.0000 
      7 O         -25.6000   -3.3800   11.8500 O.2       2 ALA2        0.0000 
      8 O         -26.9200   -3.2600   12.5600 O.2       2 ALA2        0.0000 
      9 N         -28.3600   -1.7200   12.8200 N.am      2 ALA2        0.0000 
     10 N         -29.5500   -3.0300   13.9800 N.am      2 ALA2        0.0000 
     11 N         -30.5200   -7.2000   16.0300 N.am      2 ALA2        0.0000 
     12 N         -30.8700   -2.9200   14.6900 N.am      2 ALA2        0.0000 
     13 N         -31.8400   -7.0800   16.7400 N.am      2 ALA2        0.0000 
     14 O         -32.1900   -2.8000   15.4000 O.2       2 ALA2        0.0000 
     15 O         -23.7000   -1.6200   11.9400 O.2       2 ALA2        0.0000 
     16 O         -24.9000   -2.9300   13.0900 O.2       2 ALA2        0.0000 
     17 O         -25.0100   -1.5000   12.6500 O.2       2 ALA2        0.0000 
     18 O         -26.3300   -1.3900   13.3600 O.2       2 ALA2        0.0000 
     19 N         -27.6500   -1.2700   14.0700 N.am      2 ALA2        0.0000 
     20 N         -27.7600    0.1500   13.6200 N.am      2 ALA2        0.0000 
     21 N         -28.8500   -2.5900   15.2200 N.am      2 ALA2        0.0000 
     22 N         -29.8100   -6.7500   17.2800 N.am      2 ALA2        0.0000 
     23 N         -30.1600   -2.4700   15.9300 N.am      2 ALA2        0.0000 
     24 O         -31.4800   -2.3600   16.6400 O.2       2 ALA2        0.0000 
     25 O         -32.8000   -2.2400   17.3500 O.2       2 ALA2        0.0000 
     26 O         -24.1900   -2.4800   14.3400 O.2       2 ALA2        0.0000 
     27 O         -25.5000   -2.3700   15.0500 O.2       2 ALA2        0.0000 
     28 O         -25.6200   -0.9400   14.6000 O.2       2 ALA2        0.0000 
     29 O         -26.8200   -2.2500   15.7600 O.2       2 ALA2        0.0000 
     30 O         -26.9400   -0.8200   15.3100 O.2       2 ALA2        0.0000 
     31 N         -28.2500   -0.7100   16.0200 N.am      2 ALA2        0.0000 
     32 N         -28.3700    0.7200   15.5700 N.am      2 ALA2        0.0000 
     33 O         -28.9900   -7.7300   18.9700 O.2       2 ALA2        0.0000 
     34 O         -29.1000   -6.3000   18.5200 O.2       2 ALA2        0.0000 
     35 N         -29.2200   -4.8800   18.0700 N.am      2 ALA2        0.0000 
     36 N         -29.5700   -0.6000   16.7300 N.am      2 ALA2        0.0000 
     37 N         -29.6900    0.8300   16.2800 N.am      2 ALA2        0.0000 
     38 N         -29.8000    2.2600   15.8300 N.am      2 ALA2        0.0000 
     39 O         -30.7700   -1.9100   17.8800 O.2       2 ALA2        0.0000 
     40 O         -30.8900   -0.4800   17.4400 O.2       2 ALA2        0.0000 
     41 O         -31.0000    0.9500   16.9900 O.2       2 ALA2        0.0000 
     42 N         -32.0900   -1.7900   18.5900 N.am      2 ALA2        0.0000 
     43 O         -32.2000   -0.3700   18.1500 O.2       2 ALA2        0.0000 
     44 O         -32.3200    1.0600   17.7000 O.2       2 ALA2        0.0000 
     45 O         -27.6600    1.1700   16.8100 O.2       2 ALA2        0.0000 
     46 N         -28.3900   -5.8500   19.7600 N.am      2 ALA2        0.0000 
     47 N         -28.5100   -4.4300   19.3200 N.am      2 ALA2        0.0000 
     48 N         -28.6300   -3.0000   18.8700 N.am      2 ALA2        0.0000 
     49 N         -28.7400   -1.5700   18.4200 N.am      2 ALA2        0.0000 
     50 N         -28.8600   -0.1500   17.9700 N.am      2 ALA2        0.0000 
     51 N         -28.9800    1.2800   17.5200 N.am      2 ALA2        0.0000 
     52 N         -29.9400   -2.8800   19.5800 N.am      2 ALA2        0.0000 
     53 N         -30.0600   -1.4600   19.1300 N.am      2 ALA2        0.0000 
     54 N         -30.1800   -0.0300   18.6800 N.am      2 ALA2        0.0000 
     55 O         -30.3000    1.3900   18.2300 O.2       2 ALA2        0.0000 
     56 O         -31.6100    1.5100   18.9400 O.2       2 ALA2        0.0000 
     57 N         -28.0400   -1.1200   19.6600 N.am      2 ALA2        0.0000 
     58 N         -28.2700    1.7300   18.7700 N.am      2 ALA2        0.0000 
     59 N         -28.3900    3.1600   18.3200 N.am      2 ALA2        0.0000 
     60 N         -29.3500   -1.0100   20.3700 N.am      2 ALA2        0.0000 
     61 N         -29.4700    0.4200   19.9200 N.am      2 ALA2        0.0000 
     62 O         -29.5900    1.8400   19.4700 O.2       2 ALA2        0.0000 
     63 OD1       -27.6700   -7.8400   18.2600 O.co2     3 ASP3        0.0000 
     64 NZ        -29.7000    3.2700   19.0300 N.4       4 LYS4        0.0000 
     65 CA        -31.9500   -5.6600   16.2900 C.3       5 GLY6        0.0000 
     66 CA        -31.1300   -6.6400   17.9900 C.3       5 GLY6        0.0000 
     67 CA        -31.2400   -5.2100   17.5400 C.3       5 GLY6        0.0000 
     68 CA        -22.9900   -1.1700   13.1800 C.3       5 GLY6        0.0000 
     69 CA        -23.1000    0.2600   12.7300 C.3       5 GLY6        0.0000 
     70 CA        -24.3000   -1.0500   13.8900 C.3       5 GLY6        0.0000 
     71 CA        -24.4200    0.3700   13.4400 C.3       5 GLY6        0.0000 
     72 CA        -25.7400    0.4900   14.1500 C.3       5 GLY6        0.0000 
     73 CA        -27.0500    0.6000   14.8600 C.3       5 GLY6        0.0000 
     74 CA        -27.9000   -4.9900   17.3600 C.3       5 GLY6        0.0000 
     75 CA        -28.0200   -3.5600   16.9100 C.3       5 GLY6        0.0000 
     76 CA        -28.1400   -2.1400   16.4700 C.3       5 GLY6        0.0000 
     77 CA        -29.1000    2.7100   17.0700 C.3       5 GLY6        0.0000 
     78 DU        -28.2400   -3.1500   13.2700 H         6 CUB7        0.0000 
     79 DU        -29.4400   -4.4600   14.4300 H         6 CUB7        0.0000 
     80 DU        -30.6400   -5.7700   15.5900 H         6 CUB7        0.0000 
     81 DU        -30.7500   -4.3500   15.1400 H         6 CUB7        0.0000 
     82 DU        -32.0700   -4.2300   15.8500 H         6 CUB7        0.0000 
     83 DU        -23.5800   -3.0400   12.3900 H         6 CUB7        0.0000 
     84 DU        -26.2100   -2.8200   13.8000 H         6 CUB7        0.0000 
     85 DU        -27.5300   -2.7000   14.5100 H         6 CUB7        0.0000 
     86 DU        -28.4900   -6.8700   16.5700 H         6 CUB7        0.0000 
     87 DU        -28.7300   -4.0100   15.6700 H         6 CUB7        0.0000 
     88 DU        -29.9300   -5.3200   16.8300 H         6 CUB7        0.0000 
     89 DU        -30.0500   -3.9000   16.3800 H         6 CUB7        0.0000 
     90 DU        -27.7900   -6.4200   17.8100 H         6 CUB7        0.0000 
     91 DU        -29.3400   -3.4500   17.6200 H         6 CUB7        0.0000 
     92 DU        -29.4500   -2.0200   17.1800 H         6 CUB7        0.0000 
@<TRIPOS>BOND
@<TRIPOS>SUBSTRUCTURE
     1 SER1        1 GROUP   
     2 ALA2        7 GROUP   
     3 ASP3       63 GROUP   
     4 LYS4       64 GROUP   
     5 GLY6       65 GROUP   
     6 CUB7       78 GROUP   
@<TRIPOS>SET

