#    Name: 6o2z_2_NAP
#    Modification time : Fri May 22 19:28:24 2020

@<TRIPOS>MOLECULE
6o2z_2_NAP
   48    52     1     0     1
SMALL
NO_CHARGES


@<TRIPOS>ATOM
      1 PA        -23.2820   -3.6800   15.4800 P.3       1 NAP501      0.0000 
      2 O1A       -23.6080   -2.3070   14.9830 O.co2     1 NAP501      0.0000 
      3 O2A       -23.1470   -3.9720   16.9370 O.co2     1 NAP501      0.0000 
      4 O5B       -21.9520   -4.1790   14.7550 O.3       1 NAP501      0.0000 
      5 C5B       -21.9670   -4.3780   13.3210 C.3       1 NAP501      0.0000 
      6 C4B       -20.5510   -4.2360   12.8340 C.3       1 NAP501      0.0000 
      7 O4B       -20.2300   -2.8220   12.7520 O.3       1 NAP501      0.0000 
      8 C3B       -19.4610   -4.8250   13.7460 C.3       1 NAP501      0.0000 
      9 O3B       -19.3190   -6.2290   13.5670 O.3       1 NAP501      0.0000 
     10 C2B       -18.2650   -3.9900   13.3060 C.3       1 NAP501      0.0000 
     11 O2B       -17.8030   -4.3520   12.0010 O.3       1 NAP501      0.0000 
     12 C1B       -18.9050   -2.6080   13.2020 C.3       1 NAP501      0.0000 
     13 N9A       -18.9390   -1.8350   14.4490 N.pl3     1 NAP501      0.0000 
     14 C8A       -20.0660   -1.4060   15.1200 C.2       1 NAP501      0.0000 
     15 N7A       -19.8040   -0.7020   16.1940 N.2       1 NAP501      0.0000 
     16 C5A       -18.4200   -0.6590   16.2430 C.ar      1 NAP501      0.0000 
     17 C6A       -17.5310   -0.0630   17.1580 C.ar      1 NAP501      0.0000 
     18 N6A       -17.9390    0.6100   18.2290 N.pl3     1 NAP501      0.0000 
     19 N1A       -16.1980   -0.2180   16.9330 N.ar      1 NAP501      0.0000 
     20 C2A       -15.8040   -0.9130   15.8560 C.ar      1 NAP501      0.0000 
     21 N3A       -16.5530   -1.5100   14.9230 N.ar      1 NAP501      0.0000 
     22 C4A       -17.8690   -1.3530   15.1760 C.ar      1 NAP501      0.0000 
     23 O3        -24.3850   -4.6780   14.8710 O.3       1 NAP501      0.0000 
     24 PN        -24.5150   -6.2690   15.0290 P.3       1 NAP501      0.0000 
     25 O1N       -24.9510   -6.8090   13.7100 O.co2     1 NAP501      0.0000 
     26 O2N       -23.2490   -6.7720   15.6520 O.co2     1 NAP501      0.0000 
     27 O5D       -25.7000   -6.4260   16.0950 O.3       1 NAP501      0.0000 
     28 C5D       -25.3630   -7.0240   17.3770 C.3       1 NAP501      0.0000 
     29 C4D       -26.5180   -6.8420   18.3300 C.3       1 NAP501      0.0000 
     30 O4D       -26.7530   -5.4220   18.5150 O.3       1 NAP501      0.0000 
     31 C3D       -27.8540   -7.4600   17.8730 C.3       1 NAP501      0.0000 
     32 O3D       -28.2470   -8.5300   18.7240 O.3       1 NAP501      0.0000 
     33 C2D       -28.8320   -6.2690   17.8850 C.3       1 NAP501      0.0000 
     34 O2D       -30.0800   -6.6280   18.4530 O.3       1 NAP501      0.0000 
     35 C1D       -28.1330   -5.1960   18.7220 C.3       1 NAP501      0.0000 
     36 N1N       -28.5000   -3.7860   18.3370 N.pl3     1 NAP501      0.0000 
     37 C2N       -28.9820   -2.9190   19.2890 C.ar      1 NAP501      0.0000 
     38 C3N       -29.0420   -1.5660   19.0770 C.ar      1 NAP501      0.0000 
     39 C7N       -29.0520   -0.6800   20.2710 C.2       1 NAP501      0.0000 
     40 O7N       -28.4020    0.3670   20.2630 O.2       1 NAP501      0.0000 
     41 N7N       -29.7790   -1.0280   21.3170 N.am      1 NAP501      0.0000 
     42 C4N       -29.1070   -1.0800   17.6580 C.ar      1 NAP501      0.0000 
     43 C5N       -28.7620   -2.1190   16.6570 C.ar      1 NAP501      0.0000 
     44 C6N       -28.3700   -3.3330   17.0210 C.ar      1 NAP501      0.0000 
     45 P2B       -16.6120   -5.4450   11.9080 P.3       1 NAP501      0.0000 
     46 O1X       -17.1230   -6.7620   12.4690 O.co2     1 NAP501      0.0000 
     47 O2X       -16.2850   -5.5710   10.4210 O.co2     1 NAP501      0.0000 
     48 O3X       -15.4630   -4.8530   12.7280 O.co2     1 NAP501      0.0000 
@<TRIPOS>BOND
     1    1    2 ar   
     2    1    3 ar   
     3    1    4 1    
     4    1   23 1    
     5    4    5 1    
     6    5    6 1    
     7    6    7 1    
     8    6    8 1    
     9    7   12 1    
    10    8    9 1    
    11    8   10 1    
    12   10   11 1    
    13   10   12 1    
    14   11   45 1    
    15   12   13 1    
    16   13   14 1    
    17   13   22 1    
    18   14   15 2    
    19   15   16 1    
    20   16   17 ar   
    21   16   22 ar   
    22   17   18 1    
    23   17   19 ar   
    24   19   20 ar   
    25   20   21 ar   
    26   21   22 ar   
    27   23   24 1    
    28   24   25 ar   
    29   24   26 ar   
    30   24   27 1    
    31   27   28 1    
    32   28   29 1    
    33   29   30 1    
    34   29   31 1    
    35   30   35 1    
    36   31   32 1    
    37   31   33 1    
    38   33   34 1    
    39   33   35 1    
    40   35   36 1    
    41   36   37 ar   
    42   36   44 ar   
    43   37   38 ar   
    44   38   39 1    
    45   38   42 ar   
    46   39   40 2    
    47   39   41 am   
    48   42   43 ar   
    49   43   44 ar   
    50   45   46 ar   
    51   45   47 ar   
    52   45   48 ar   
@<TRIPOS>SUBSTRUCTURE
     1 NAP501      1 GROUP   
@<TRIPOS>SET
ATOM$ORANGE STATIC     ATOMS   COLORGROUP SYSTEM 
42 5 5 6 6 8 8 10 10 12 12 14 14 16 16 17 17 20 \
20 22 22 28 28 29 29 31 31 33 33 35 35 37 37 38 38 39 \
39 42 42 43 43 44 44 

