#    Name: 6o2z_2_NAP_CAVITY_N1_6
#    Modification time : Fri May 22 19:28:26 2020

@<TRIPOS>MOLECULE
6o2z_2_NAP_CAVITY_N1_6
  146     0     6     0     0
SMALL
NO_CHARGES


@<TRIPOS>ATOM
      1 OG        -31.3600   -3.7800   17.0900 O.3       1 SER1        0.0000 
      2 OG        -34.1100   -2.1300   18.0600 O.3       1 SER1        0.0000 
      3 OG        -30.5400   -4.7600   18.7800 O.3       1 SER1        0.0000 
      4 OG        -30.6500   -3.3300   18.3300 O.3       1 SER1        0.0000 
      5 OG        -25.7600   -6.0800   18.3400 O.3       1 SER1        0.0000 
      6 OG        -26.9600   -7.3900   19.5000 O.3       1 SER1        0.0000 
      7 OG        -27.0800   -5.9700   19.0500 O.3       1 SER1        0.0000 
      8 OG        -31.8500    4.3600   18.0400 O.3       1 SER1        0.0000 
      9 OG        -29.8200    4.7000   18.5800 O.3       1 SER1        0.0000 
     10 O         -29.0600   -2.1700   11.5800 O.2       2 ALA2        0.0000 
     11 N         -30.2600   -3.4800   12.7400 N.am      2 ALA2        0.0000 
     12 N         -30.3800   -2.0600   12.2900 N.am      2 ALA2        0.0000 
     13 N         -31.5800   -3.3700   13.4500 N.am      2 ALA2        0.0000 
     14 O         -32.9000   -3.2500   14.1500 O.2       2 ALA2        0.0000 
     15 O         -34.2100   -3.1400   14.8600 O.2       2 ALA2        0.0000 
     16 O         -25.6000   -3.3800   11.8500 O.2       2 ALA2        0.0000 
     17 O         -26.9200   -3.2600   12.5600 O.2       2 ALA2        0.0000 
     18 N         -28.3600   -1.7200   12.8200 N.am      2 ALA2        0.0000 
     19 N         -29.5500   -3.0300   13.9800 N.am      2 ALA2        0.0000 
     20 N         -30.5200   -7.2000   16.0300 N.am      2 ALA2        0.0000 
     21 N         -30.8700   -2.9200   14.6900 N.am      2 ALA2        0.0000 
     22 N         -31.8400   -7.0800   16.7400 N.am      2 ALA2        0.0000 
     23 O         -32.1900   -2.8000   15.4000 O.2       2 ALA2        0.0000 
     24 O         -33.5000   -2.6900   16.1100 O.2       2 ALA2        0.0000 
     25 O         -34.8200   -2.5800   16.8200 O.2       2 ALA2        0.0000 
     26 O         -34.9400   -1.1500   16.3700 O.2       2 ALA2        0.0000 
     27 O         -23.7000   -1.6200   11.9400 O.2       2 ALA2        0.0000 
     28 O         -23.8100   -0.1900   11.4900 O.2       2 ALA2        0.0000 
     29 O         -24.9000   -2.9300   13.0900 O.2       2 ALA2        0.0000 
     30 O         -25.0100   -1.5000   12.6500 O.2       2 ALA2        0.0000 
     31 O         -25.2500    1.3500   11.7500 O.2       2 ALA2        0.0000 
     32 O         -26.3300   -1.3900   13.3600 O.2       2 ALA2        0.0000 
     33 O         -26.5600    1.4600   12.4600 O.2       2 ALA2        0.0000 
     34 N         -27.6500   -1.2700   14.0700 N.am      2 ALA2        0.0000 
     35 N         -27.7600    0.1500   13.6200 N.am      2 ALA2        0.0000 
     36 N         -27.8800    1.5800   13.1700 N.am      2 ALA2        0.0000 
     37 N         -28.8500   -2.5900   15.2200 N.am      2 ALA2        0.0000 
     38 N         -29.8100   -6.7500   17.2800 N.am      2 ALA2        0.0000 
     39 N         -30.1600   -2.4700   15.9300 N.am      2 ALA2        0.0000 
     40 O         -31.4800   -2.3600   16.6400 O.2       2 ALA2        0.0000 
     41 O         -32.8000   -2.2400   17.3500 O.2       2 ALA2        0.0000 
     42 O         -34.2300   -0.7000   17.6100 O.2       2 ALA2        0.0000 
     43 O         -34.3500    0.7300   17.1600 O.2       2 ALA2        0.0000 
     44 O         -24.1900   -2.4800   14.3400 O.2       2 ALA2        0.0000 
     45 N         -24.5400    1.8000   12.9900 N.am      2 ALA2        0.0000 
     46 O         -25.5000   -2.3700   15.0500 O.2       2 ALA2        0.0000 
     47 O         -25.6200   -0.9400   14.6000 O.2       2 ALA2        0.0000 
     48 N         -25.8500    1.9100   13.7000 N.am      2 ALA2        0.0000 
     49 O         -26.8200   -2.2500   15.7600 O.2       2 ALA2        0.0000 
     50 O         -26.9400   -0.8200   15.3100 O.2       2 ALA2        0.0000 
     51 N         -27.1700    2.0300   14.4100 N.am      2 ALA2        0.0000 
     52 N         -28.2500   -0.7100   16.0200 N.am      2 ALA2        0.0000 
     53 N         -28.3700    0.7200   15.5700 N.am      2 ALA2        0.0000 
     54 N         -28.4900    2.1400   15.1200 N.am      2 ALA2        0.0000 
     55 O         -28.9900   -7.7300   18.9700 O.2       2 ALA2        0.0000 
     56 O         -29.1000   -6.3000   18.5200 O.2       2 ALA2        0.0000 
     57 N         -29.2200   -4.8800   18.0700 N.am      2 ALA2        0.0000 
     58 N         -29.5700   -0.6000   16.7300 N.am      2 ALA2        0.0000 
     59 N         -29.6900    0.8300   16.2800 N.am      2 ALA2        0.0000 
     60 N         -29.8000    2.2600   15.8300 N.am      2 ALA2        0.0000 
     61 O         -30.7700   -1.9100   17.8800 O.2       2 ALA2        0.0000 
     62 O         -30.8900   -0.4800   17.4400 O.2       2 ALA2        0.0000 
     63 O         -31.0000    0.9500   16.9900 O.2       2 ALA2        0.0000 
     64 O         -31.1200    2.3700   16.5400 O.2       2 ALA2        0.0000 
     65 N         -32.0900   -1.7900   18.5900 N.am      2 ALA2        0.0000 
     66 O         -32.2000   -0.3700   18.1500 O.2       2 ALA2        0.0000 
     67 O         -32.3200    1.0600   17.7000 O.2       2 ALA2        0.0000 
     68 O         -32.4400    2.4900   17.2500 O.2       2 ALA2        0.0000 
     69 O         -27.6600    1.1700   16.8100 O.2       2 ALA2        0.0000 
     70 N         -28.3900   -5.8500   19.7600 N.am      2 ALA2        0.0000 
     71 N         -28.5100   -4.4300   19.3200 N.am      2 ALA2        0.0000 
     72 N         -28.6300   -3.0000   18.8700 N.am      2 ALA2        0.0000 
     73 N         -28.7400   -1.5700   18.4200 N.am      2 ALA2        0.0000 
     74 N         -28.8600   -0.1500   17.9700 N.am      2 ALA2        0.0000 
     75 N         -28.9800    1.2800   17.5200 N.am      2 ALA2        0.0000 
     76 N         -29.9400   -2.8800   19.5800 N.am      2 ALA2        0.0000 
     77 N         -30.0600   -1.4600   19.1300 N.am      2 ALA2        0.0000 
     78 N         -30.1800   -0.0300   18.6800 N.am      2 ALA2        0.0000 
     79 O         -30.3000    1.3900   18.2300 O.2       2 ALA2        0.0000 
     80 O         -31.6100    1.5100   18.9400 O.2       2 ALA2        0.0000 
     81 O         -31.7300    2.9400   18.4900 O.2       2 ALA2        0.0000 
     82 N         -28.0400   -1.1200   19.6600 N.am      2 ALA2        0.0000 
     83 N         -28.2700    1.7300   18.7700 N.am      2 ALA2        0.0000 
     84 N         -28.3900    3.1600   18.3200 N.am      2 ALA2        0.0000 
     85 N         -29.3500   -1.0100   20.3700 N.am      2 ALA2        0.0000 
     86 N         -29.4700    0.4200   19.9200 N.am      2 ALA2        0.0000 
     87 O         -29.5900    1.8400   19.4700 O.2       2 ALA2        0.0000 
     88 OD1       -27.6700   -7.8400   18.2600 O.co2     3 ASP3        0.0000 
     89 OD1       -33.7500    2.6000   17.9600 O.co2     3 ASP3        0.0000 
     90 NZ        -29.4200   -6.9000   11.6800 N.4       4 LYS4        0.0000 
     91 NZ        -29.5400   -5.4700   11.2300 N.4       4 LYS4        0.0000 
     92 NZ        -33.3700   -6.5600   13.8100 N.4       4 LYS4        0.0000 
     93 NZ        -30.0300   -6.3400   13.6300 N.4       4 LYS4        0.0000 
     94 NZ        -29.7000    3.2700   19.0300 N.4       4 LYS4        0.0000 
     95 NZ        -31.1400    4.8100   19.2900 N.4       4 LYS4        0.0000 
     96 CA        -30.9700   -3.9300   11.4900 C.3       5 GLY6        0.0000 
     97 CA        -32.2900   -3.8200   12.2000 C.3       5 GLY6        0.0000 
     98 CA        -27.6300   -3.7100   11.3200 C.3       5 GLY6        0.0000 
     99 CA        -28.9500   -3.6000   12.0300 C.3       5 GLY6        0.0000 
    100 CA        -33.9800   -5.9900   15.7600 C.3       5 GLY6        0.0000 
    101 CA        -31.9500   -5.6600   16.2900 C.3       5 GLY6        0.0000 
    102 CA        -33.3900   -4.1200   16.5600 C.3       5 GLY6        0.0000 
    103 CA        -34.7000   -4.0000   17.2600 C.3       5 GLY6        0.0000 
    104 CA        -31.1300   -6.6400   17.9900 C.3       5 GLY6        0.0000 
    105 CA        -31.2400   -5.2100   17.5400 C.3       5 GLY6        0.0000 
    106 CA        -22.9900   -1.1700   13.1800 C.3       5 GLY6        0.0000 
    107 CA        -23.1000    0.2600   12.7300 C.3       5 GLY6        0.0000 
    108 CA        -24.3000   -1.0500   13.8900 C.3       5 GLY6        0.0000 
    109 CA        -24.4200    0.3700   13.4400 C.3       5 GLY6        0.0000 
    110 CA        -25.7400    0.4900   14.1500 C.3       5 GLY6        0.0000 
    111 CA        -27.0500    0.6000   14.8600 C.3       5 GLY6        0.0000 
    112 CA        -27.9000   -4.9900   17.3600 C.3       5 GLY6        0.0000 
    113 CA        -28.0200   -3.5600   16.9100 C.3       5 GLY6        0.0000 
    114 CA        -28.1400   -2.1400   16.4700 C.3       5 GLY6        0.0000 
    115 CA        -31.2400    3.8000   16.0900 C.3       5 GLY6        0.0000 
    116 CA        -33.5200   -0.2500   18.8600 C.3       5 GLY6        0.0000 
    117 CA        -33.6400    1.1800   18.4100 C.3       5 GLY6        0.0000 
    118 CA        -27.7800    2.5900   16.3600 C.3       5 GLY6        0.0000 
    119 CA        -29.1000    2.7100   17.0700 C.3       5 GLY6        0.0000 
    120 CA        -29.2100    4.1300   16.6300 C.3       5 GLY6        0.0000 
    121 CA        -30.5300    4.2500   17.3400 C.3       5 GLY6        0.0000 
    122 CA        -33.0500    3.0500   19.2000 C.3       5 GLY6        0.0000 
    123 CA        -28.5000    4.5800   17.8700 C.3       5 GLY6        0.0000 
    124 DU        -28.8300   -5.0200   12.4700 H         6 CUB7        0.0000 
    125 DU        -30.1500   -4.9100   13.1800 H         6 CUB7        0.0000 
    126 DU        -31.3500   -6.2200   14.3400 H         6 CUB7        0.0000 
    127 DU        -31.4600   -4.8000   13.8900 H         6 CUB7        0.0000 
    128 DU        -32.6600   -6.1100   15.0500 H         6 CUB7        0.0000 
    129 DU        -32.7800   -4.6800   14.6000 H         6 CUB7        0.0000 
    130 DU        -34.1000   -4.5700   15.3100 H         6 CUB7        0.0000 
    131 DU        -28.2400   -3.1500   13.2700 H         6 CUB7        0.0000 
    132 DU        -29.4400   -4.4600   14.4300 H         6 CUB7        0.0000 
    133 DU        -30.6400   -5.7700   15.5900 H         6 CUB7        0.0000 
    134 DU        -30.7500   -4.3500   15.1400 H         6 CUB7        0.0000 
    135 DU        -32.0700   -4.2300   15.8500 H         6 CUB7        0.0000 
    136 DU        -23.5800   -3.0400   12.3900 H         6 CUB7        0.0000 
    137 DU        -26.2100   -2.8200   13.8000 H         6 CUB7        0.0000 
    138 DU        -27.5300   -2.7000   14.5100 H         6 CUB7        0.0000 
    139 DU        -28.4900   -6.8700   16.5700 H         6 CUB7        0.0000 
    140 DU        -28.7300   -4.0100   15.6700 H         6 CUB7        0.0000 
    141 DU        -29.9300   -5.3200   16.8300 H         6 CUB7        0.0000 
    142 DU        -30.0500   -3.9000   16.3800 H         6 CUB7        0.0000 
    143 DU        -27.7900   -6.4200   17.8100 H         6 CUB7        0.0000 
    144 DU        -29.3400   -3.4500   17.6200 H         6 CUB7        0.0000 
    145 DU        -29.4500   -2.0200   17.1800 H         6 CUB7        0.0000 
    146 DU        -30.4100    2.8200   17.7800 H         6 CUB7        0.0000 
@<TRIPOS>BOND
@<TRIPOS>SUBSTRUCTURE
     1 SER1        1 GROUP   
     2 ALA2       10 GROUP   
     3 ASP3       88 GROUP   
     4 LYS4       90 GROUP   
     5 GLY6       96 GROUP   
     6 CUB7      124 GROUP   
@<TRIPOS>SET

