#    Name: 5nmx_1_FAD
#    Modification time : Fri May 22 19:18:55 2020

@<TRIPOS>MOLECULE
5nmx_1_FAD
   53    58     1     0     1
SMALL
NO_CHARGES


@<TRIPOS>ATOM
      1 PA         -8.3240   12.4760  -35.2170 P.3       1 FAD501      0.0000 
      2 O1A        -8.1090   13.5020  -34.1930 O.co2     1 FAD501      0.0000 
      3 O2A        -7.2050   11.5330  -35.5120 O.co2     1 FAD501      0.0000 
      4 O5B        -9.6290   11.7490  -34.8610 O.3       1 FAD501      0.0000 
      5 C5B       -10.0750   10.6040  -35.6000 C.3       1 FAD501      0.0000 
      6 C4B       -10.9790    9.7570  -34.7470 C.3       1 FAD501      0.0000 
      7 O4B       -11.5040    8.6740  -35.5180 O.3       1 FAD501      0.0000 
      8 C3B       -10.2740    9.1860  -33.5450 C.3       1 FAD501      0.0000 
      9 O3B       -11.0460    9.5310  -32.3530 O.3       1 FAD501      0.0000 
     10 C2B       -10.3540    7.6940  -33.8030 C.3       1 FAD501      0.0000 
     11 O2B       -10.4390    6.9300  -32.5650 O.3       1 FAD501      0.0000 
     12 C1B       -11.6180    7.5270  -34.6580 C.3       1 FAD501      0.0000 
     13 N9A       -11.5600    6.3180  -35.4700 N.pl3     1 FAD501      0.0000 
     14 C8A       -10.5750    6.0220  -36.4180 C.2       1 FAD501      0.0000 
     15 N7A       -10.9270    4.8980  -37.0500 N.2       1 FAD501      0.0000 
     16 C5A       -12.1360    4.4960  -36.5350 C.ar      1 FAD501      0.0000 
     17 C6A       -12.9930    3.3640  -36.7840 C.ar      1 FAD501      0.0000 
     18 N6A       -12.7370    2.4570  -37.7160 N.pl3     1 FAD501      0.0000 
     19 N1A       -14.1460    3.3050  -36.0580 N.ar      1 FAD501      0.0000 
     20 C2A       -14.4760    4.1910  -35.1210 C.ar      1 FAD501      0.0000 
     21 N3A       -13.6860    5.2400  -34.8030 N.ar      1 FAD501      0.0000 
     22 C4A       -12.5210    5.4370  -35.5170 C.ar      1 FAD501      0.0000 
     23 N1         -2.7810   20.2510  -34.5280 N.2       1 FAD501      0.0000 
     24 C2         -2.7550   21.5690  -34.1280 C.2       1 FAD501      0.0000 
     25 O2         -3.5200   22.3970  -34.5650 O.2       1 FAD501      0.0000 
     26 N3         -1.8960   21.9400  -33.1940 N.am      1 FAD501      0.0000 
     27 C4         -1.0740   21.0910  -32.5960 C.2       1 FAD501      0.0000 
     28 O4         -0.2220   21.3850  -31.7060 O.2       1 FAD501      0.0000 
     29 C4X        -1.0030   19.7000  -33.0060 C.2       1 FAD501      0.0000 
     30 N5         -0.1850   18.7850  -32.4460 N.2       1 FAD501      0.0000 
     31 C5X        -0.2320   17.4690  -32.7930 C.ar      1 FAD501      0.0000 
     32 C6          0.6450   16.5100  -32.2360 C.ar      1 FAD501      0.0000 
     33 C7          0.6130   15.1440  -32.6410 C.ar      1 FAD501      0.0000 
     34 C7M         1.5310   14.0720  -32.0300 C.3       1 FAD501      0.0000 
     35 C8         -0.3410   14.7350  -33.6850 C.ar      1 FAD501      0.0000 
     36 C8M        -0.3670   13.2670  -34.1760 C.3       1 FAD501      0.0000 
     37 C9         -1.1640   15.7010  -34.2350 C.ar      1 FAD501      0.0000 
     38 C9A        -1.1440   17.0740  -33.8720 C.ar      1 FAD501      0.0000 
     39 N10        -2.0330   17.9930  -34.4340 N.pl3     1 FAD501      0.0000 
     40 C10        -2.0090   19.3620  -34.0120 C.2       1 FAD501      0.0000 
     41 C1'        -2.9410   17.6210  -35.5220 C.3       1 FAD501      0.0000 
     42 C2'        -4.2380   17.1530  -34.8620 C.3       1 FAD501      0.0000 
     43 O2'        -4.0810   16.0970  -33.9420 O.3       1 FAD501      0.0000 
     44 C3'        -5.1220   16.8050  -35.9860 C.3       1 FAD501      0.0000 
     45 O3'        -5.1830   17.9570  -36.8570 O.3       1 FAD501      0.0000 
     46 C4'        -6.5680   16.6460  -35.4870 C.3       1 FAD501      0.0000 
     47 O4'        -6.5440   15.7510  -34.3360 O.3       1 FAD501      0.0000 
     48 C5'        -7.2590   15.9840  -36.6130 C.3       1 FAD501      0.0000 
     49 O5'        -8.5990   15.6700  -36.2270 O.3       1 FAD501      0.0000 
     50 P          -9.4120   14.5580  -36.9410 P.3       1 FAD501      0.0000 
     51 O1P        -9.4400   14.7320  -38.4270 O.co2     1 FAD501      0.0000 
     52 O2P       -10.6870   14.5240  -36.2470 O.co2     1 FAD501      0.0000 
     53 O3P        -8.5290   13.2400  -36.6470 O.3       1 FAD501      0.0000 
@<TRIPOS>BOND
     1    1    2 ar   
     2    1    3 ar   
     3    1    4 1    
     4    1   53 1    
     5    4    5 1    
     6    5    6 1    
     7    6    7 1    
     8    6    8 1    
     9    7   12 1    
    10    8    9 1    
    11    8   10 1    
    12   10   11 1    
    13   10   12 1    
    14   12   13 1    
    15   13   14 1    
    16   13   22 1    
    17   14   15 2    
    18   15   16 1    
    19   16   17 ar   
    20   16   22 ar   
    21   17   18 1    
    22   17   19 ar   
    23   19   20 ar   
    24   20   21 ar   
    25   21   22 ar   
    26   23   24 1    
    27   23   40 2    
    28   24   25 2    
    29   24   26 am   
    30   26   27 am   
    31   27   28 2    
    32   27   29 1    
    33   29   30 2    
    34   29   40 1    
    35   30   31 1    
    36   31   32 ar   
    37   31   38 ar   
    38   32   33 ar   
    39   33   34 1    
    40   33   35 ar   
    41   35   36 1    
    42   35   37 ar   
    43   37   38 ar   
    44   38   39 1    
    45   39   40 1    
    46   39   41 1    
    47   41   42 1    
    48   42   43 1    
    49   42   44 1    
    50   44   45 1    
    51   44   46 1    
    52   46   47 1    
    53   46   48 1    
    54   48   49 1    
    55   49   50 1    
    56   50   51 ar   
    57   50   52 ar   
    58   50   53 1    
@<TRIPOS>SUBSTRUCTURE
     1 FAD501      1 GROUP   
@<TRIPOS>SET
ATOM$ORANGE STATIC     ATOMS   COLORGROUP SYSTEM 
54 5 5 6 6 8 8 10 10 12 12 14 14 16 16 17 17 20 \
20 22 22 24 24 27 27 29 29 31 31 32 32 33 33 34 34 35 \
35 36 36 37 37 38 38 40 40 41 41 42 42 44 44 46 46 48 \
48 

