#    Name: 5nmx_3_FAD
#    Modification time : Fri May 22 19:19:01 2020

@<TRIPOS>MOLECULE
5nmx_3_FAD
   53    58     1     0     1
SMALL
NO_CHARGES


@<TRIPOS>ATOM
      1 PA        -34.4340    2.9930   41.1720 P.3       1 FAD501      0.0000 
      2 O1A       -34.6320    1.8420   42.1320 O.co2     1 FAD501      0.0000 
      3 O2A       -35.5280    3.9450   40.8900 O.co2     1 FAD501      0.0000 
      4 O5B       -33.1750    3.7460   41.6260 O.3       1 FAD501      0.0000 
      5 C5B       -32.7270    4.9650   41.0300 C.3       1 FAD501      0.0000 
      6 C4B       -31.8490    5.7370   41.9660 C.3       1 FAD501      0.0000 
      7 O4B       -31.3420    6.9330   41.3420 O.3       1 FAD501      0.0000 
      8 C3B       -32.5870    6.2300   43.2000 C.3       1 FAD501      0.0000 
      9 O3B       -31.9060    5.7160   44.3590 O.3       1 FAD501      0.0000 
     10 C2B       -32.5890    7.7190   43.1210 C.3       1 FAD501      0.0000 
     11 O2B       -32.5890    8.3560   44.4140 O.3       1 FAD501      0.0000 
     12 C1B       -31.3080    7.9680   42.3260 C.3       1 FAD501      0.0000 
     13 N9A       -31.3900    9.2050   41.5960 N.pl3     1 FAD501      0.0000 
     14 C8A       -32.2880    9.5520   40.6320 C.2       1 FAD501      0.0000 
     15 N7A       -32.0250   10.7650   40.0920 N.2       1 FAD501      0.0000 
     16 C5A       -30.8280   11.1530   40.7140 C.ar      1 FAD501      0.0000 
     17 C6A       -29.9820   12.3160   40.6230 C.ar      1 FAD501      0.0000 
     18 N6A       -30.3290   13.3220   39.7510 N.pl3     1 FAD501      0.0000 
     19 N1A       -28.9020   12.3720   41.3900 N.ar      1 FAD501      0.0000 
     20 C2A       -28.5720   11.3850   42.2730 C.ar      1 FAD501      0.0000 
     21 N3A       -29.2950   10.2430   42.4300 N.ar      1 FAD501      0.0000 
     22 C4A       -30.4370   10.1150   41.6950 C.ar      1 FAD501      0.0000 
     23 N1        -39.7170   -4.7530   40.7430 N.2       1 FAD501      0.0000 
     24 C2        -39.7160   -6.0790   41.0970 C.2       1 FAD501      0.0000 
     25 O2        -38.8190   -6.8160   40.6150 O.2       1 FAD501      0.0000 
     26 N3        -40.6320   -6.6010   41.9360 N.am      1 FAD501      0.0000 
     27 C4        -41.5740   -5.9020   42.5610 C.2       1 FAD501      0.0000 
     28 O4        -42.4380   -6.4040   43.3410 O.2       1 FAD501      0.0000 
     29 C4X       -41.6530   -4.4750   42.2450 C.2       1 FAD501      0.0000 
     30 N5        -42.5810   -3.6740   42.8280 N.2       1 FAD501      0.0000 
     31 C5X       -42.5590   -2.3730   42.5520 C.ar      1 FAD501      0.0000 
     32 C6        -43.4760   -1.5160   43.2000 C.ar      1 FAD501      0.0000 
     33 C7        -43.4480   -0.1260   42.8970 C.ar      1 FAD501      0.0000 
     34 C7M       -44.4520    0.8650   43.4950 C.3       1 FAD501      0.0000 
     35 C8        -42.4230    0.3820   41.9280 C.ar      1 FAD501      0.0000 
     36 C8M       -42.3930    1.8470   41.5350 C.3       1 FAD501      0.0000 
     37 C9        -41.5780   -0.4820   41.3160 C.ar      1 FAD501      0.0000 
     38 C9A       -41.5480   -1.7980   41.6440 C.ar      1 FAD501      0.0000 
     39 N10       -40.6490   -2.5940   41.0140 N.pl3     1 FAD501      0.0000 
     40 C10       -40.6390   -3.9640   41.3110 C.2       1 FAD501      0.0000 
     41 C1'       -39.6890   -2.1140   40.0180 C.3       1 FAD501      0.0000 
     42 C2'       -38.4120   -1.8460   40.7430 C.3       1 FAD501      0.0000 
     43 O2'       -38.7070   -0.8580   41.7470 O.3       1 FAD501      0.0000 
     44 C3'       -37.4620   -1.3660   39.7720 C.3       1 FAD501      0.0000 
     45 O3'       -37.3020   -2.2890   38.6790 O.3       1 FAD501      0.0000 
     46 C4'       -36.0350   -1.2150   40.4020 C.3       1 FAD501      0.0000 
     47 O4'       -36.1180   -0.3810   41.5440 O.3       1 FAD501      0.0000 
     48 C5'       -35.3230   -0.3610   39.3980 C.3       1 FAD501      0.0000 
     49 O5'       -34.0010   -0.1130   39.8730 O.3       1 FAD501      0.0000 
     50 P         -33.1080    1.1120   39.3860 P.3       1 FAD501      0.0000 
     51 O1P       -31.8370    1.0950   40.1440 O.co2     1 FAD501      0.0000 
     52 O2P       -33.0860    1.0790   37.8930 O.co2     1 FAD501      0.0000 
     53 O3P       -33.9740    2.4440   39.7390 O.3       1 FAD501      0.0000 
@<TRIPOS>BOND
     1    1    2 ar   
     2    1    3 ar   
     3    1    4 1    
     4    1   53 1    
     5    4    5 1    
     6    5    6 1    
     7    6    7 1    
     8    6    8 1    
     9    7   12 1    
    10    8    9 1    
    11    8   10 1    
    12   10   11 1    
    13   10   12 1    
    14   12   13 1    
    15   13   14 1    
    16   13   22 1    
    17   14   15 2    
    18   15   16 1    
    19   16   17 ar   
    20   16   22 ar   
    21   17   18 1    
    22   17   19 ar   
    23   19   20 ar   
    24   20   21 ar   
    25   21   22 ar   
    26   23   24 1    
    27   23   40 2    
    28   24   25 2    
    29   24   26 am   
    30   26   27 am   
    31   27   28 2    
    32   27   29 1    
    33   29   30 2    
    34   29   40 1    
    35   30   31 1    
    36   31   32 ar   
    37   31   38 ar   
    38   32   33 ar   
    39   33   34 1    
    40   33   35 ar   
    41   35   36 1    
    42   35   37 ar   
    43   37   38 ar   
    44   38   39 1    
    45   39   40 1    
    46   39   41 1    
    47   41   42 1    
    48   42   43 1    
    49   42   44 1    
    50   44   45 1    
    51   44   46 1    
    52   46   47 1    
    53   46   48 1    
    54   48   49 1    
    55   49   50 1    
    56   50   51 ar   
    57   50   52 ar   
    58   50   53 1    
@<TRIPOS>SUBSTRUCTURE
     1 FAD501      1 GROUP   
@<TRIPOS>SET
ATOM$ORANGE STATIC     ATOMS   COLORGROUP SYSTEM 
54 5 5 6 6 8 8 10 10 12 12 14 14 16 16 17 17 20 \
20 22 22 24 24 27 27 29 29 31 31 32 32 33 33 34 34 35 \
35 36 36 37 37 38 38 40 40 41 41 42 42 44 44 46 46 48 \
48 

