#    Name: 6ihd_1_NAD
#    Modification time : Fri May 22 19:27:15 2020

@<TRIPOS>MOLECULE
6ihd_1_NAD
   44    48     1     0     1
SMALL
NO_CHARGES


@<TRIPOS>ATOM
      1 PA         22.3220    2.9160   24.9740 P.3       1 NAD401      0.0000 
      2 O1A        22.5730    2.1390   26.1810 O.co2     1 NAD401      0.0000 
      3 O2A        23.4290    3.6880   24.3970 O.co2     1 NAD401      0.0000 
      4 O5B        21.1120    3.8760   25.2140 O.3       1 NAD401      0.0000 
      5 C5B        20.1540    3.7120   26.2220 C.3       1 NAD401      0.0000 
      6 C4B        19.8600    5.0740   26.8140 C.3       1 NAD401      0.0000 
      7 O4B        18.5880    5.0970   27.4200 O.3       1 NAD401      0.0000 
      8 C3B        20.8270    5.4570   27.9070 C.3       1 NAD401      0.0000 
      9 O3B        21.2720    6.7550   27.5980 O.3       1 NAD401      0.0000 
     10 C2B        20.0130    5.4830   29.1750 C.3       1 NAD401      0.0000 
     11 O2B        20.4120    6.4770   30.0930 O.3       1 NAD401      0.0000 
     12 C1B        18.6670    5.8060   28.6340 C.3       1 NAD401      0.0000 
     13 N9A        17.6600    5.2930   29.5460 N.pl3     1 NAD401      0.0000 
     14 C8A        17.6400    4.1310   30.2000 C.2       1 NAD401      0.0000 
     15 N7A        16.5370    4.0220   30.9450 N.2       1 NAD401      0.0000 
     16 C5A        15.8390    5.1350   30.7580 C.ar      1 NAD401      0.0000 
     17 C6A        14.5750    5.6990   31.2330 C.ar      1 NAD401      0.0000 
     18 N6A        13.7710    5.0730   32.0810 N.pl3     1 NAD401      0.0000 
     19 N1A        14.2160    6.8780   30.7860 N.ar      1 NAD401      0.0000 
     20 C2A        14.9830    7.5550   29.9400 C.ar      1 NAD401      0.0000 
     21 N3A        16.1430    7.1260   29.4740 N.ar      1 NAD401      0.0000 
     22 C4A        16.5930    5.9510   29.8410 C.ar      1 NAD401      0.0000 
     23 O3         21.7970    1.8620   23.9350 O.3       1 NAD401      0.0000 
     24 PN         21.2570    2.1120   22.4790 P.3       1 NAD401      0.0000 
     25 O1N        22.2100    1.4970   21.5500 O.co2     1 NAD401      0.0000 
     26 O2N        20.8320    3.5120   22.3300 O.co2     1 NAD401      0.0000 
     27 O5D        19.9790    1.2080   22.4180 O.3       1 NAD401      0.0000 
     28 C5D        18.7870    1.5870   23.0560 C.3       1 NAD401      0.0000 
     29 C4D        17.7240    0.5140   22.9160 C.3       1 NAD401      0.0000 
     30 O4D        17.1910    0.4630   21.6050 O.3       1 NAD401      0.0000 
     31 C3D        18.3010   -0.8360   23.1950 C.3       1 NAD401      0.0000 
     32 O3D        17.2940   -1.5790   23.8450 O.3       1 NAD401      0.0000 
     33 C2D        18.5130   -1.4080   21.8360 C.3       1 NAD401      0.0000 
     34 O2D        18.4070   -2.8170   21.8690 O.3       1 NAD401      0.0000 
     35 C1D        17.3940   -0.8050   21.0270 C.3       1 NAD401      0.0000 
     36 N1N        17.7140   -0.7350   19.6020 N.pl3     1 NAD401      0.0000 
     37 C2N        16.7770   -1.0220   18.7170 C.ar      1 NAD401      0.0000 
     38 C3N        17.0310   -0.9800   17.3690 C.ar      1 NAD401      0.0000 
     39 C7N        15.9820   -1.2930   16.3770 C.2       1 NAD401      0.0000 
     40 O7N        14.8380   -1.2080   16.6770 O.2       1 NAD401      0.0000 
     41 N7N        16.3450   -1.6590   15.1720 N.am      1 NAD401      0.0000 
     42 C4N        18.2810   -0.6480   16.9230 C.ar      1 NAD401      0.0000 
     43 C5N        19.2430   -0.3610   17.8550 C.ar      1 NAD401      0.0000 
     44 C6N        18.9280   -0.4160   19.1930 C.ar      1 NAD401      0.0000 
@<TRIPOS>BOND
     1    1    2 ar   
     2    1    3 ar   
     3    1    4 1    
     4    1   23 1    
     5    4    5 1    
     6    5    6 1    
     7    6    7 1    
     8    6    8 1    
     9    7   12 1    
    10    8    9 1    
    11    8   10 1    
    12   10   11 1    
    13   10   12 1    
    14   12   13 1    
    15   13   14 1    
    16   13   22 1    
    17   14   15 2    
    18   15   16 1    
    19   16   17 ar   
    20   16   22 ar   
    21   17   18 1    
    22   17   19 ar   
    23   19   20 ar   
    24   20   21 ar   
    25   21   22 ar   
    26   23   24 1    
    27   24   25 ar   
    28   24   26 ar   
    29   24   27 1    
    30   27   28 1    
    31   28   29 1    
    32   29   30 1    
    33   29   31 1    
    34   30   35 1    
    35   31   32 1    
    36   31   33 1    
    37   33   34 1    
    38   33   35 1    
    39   35   36 1    
    40   36   37 ar   
    41   36   44 ar   
    42   37   38 ar   
    43   38   39 1    
    44   38   42 ar   
    45   39   40 2    
    46   39   41 am   
    47   42   43 ar   
    48   43   44 ar   
@<TRIPOS>SUBSTRUCTURE
     1 NAD401      1 GROUP   
@<TRIPOS>SET
ATOM$ORANGE STATIC     ATOMS   COLORGROUP SYSTEM 
42 5 5 6 6 8 8 10 10 12 12 14 14 16 16 17 17 20 \
20 22 22 28 28 29 29 31 31 33 33 35 35 37 37 38 38 39 \
39 42 42 43 43 44 44 

