#    Name: 6ihd_2_NAD
#    Modification time : Fri May 22 19:27:20 2020

@<TRIPOS>MOLECULE
6ihd_2_NAD
   44    48     1     0     1
SMALL
NO_CHARGES


@<TRIPOS>ATOM
      1 PA         38.4790    7.4270   18.2130 P.3       1 NAD401      0.0000 
      2 O1A        39.3320    6.9350   19.3680 O.co2     1 NAD401      0.0000 
      3 O2A        37.0000    7.0390   18.1110 O.co2     1 NAD401      0.0000 
      4 O5B        38.9420    6.9040   16.7740 O.3       1 NAD401      0.0000 
      5 C5B        40.2160    7.0830   16.1950 C.3       1 NAD401      0.0000 
      6 C4B        40.3360    5.9350   15.2060 C.3       1 NAD401      0.0000 
      7 O4B        41.5900    6.1070   14.5890 O.3       1 NAD401      0.0000 
      8 C3B        40.3020    4.5410   15.8230 C.3       1 NAD401      0.0000 
      9 O3B        39.2570    3.7520   15.2270 O.3       1 NAD401      0.0000 
     10 C2B        41.6940    4.0080   15.5320 C.3       1 NAD401      0.0000 
     11 O2B        41.7680    2.6500   15.1040 O.3       1 NAD401      0.0000 
     12 C1B        42.1520    4.8340   14.3710 C.3       1 NAD401      0.0000 
     13 N9A        43.6210    4.9380   14.2330 N.pl3     1 NAD401      0.0000 
     14 C8A        44.5430    5.2310   15.1540 C.2       1 NAD401      0.0000 
     15 N7A        45.7680    5.2650   14.5790 N.2       1 NAD401      0.0000 
     16 C5A        45.6300    4.9900   13.2710 C.ar      1 NAD401      0.0000 
     17 C6A        46.4930    4.8640   12.0680 C.ar      1 NAD401      0.0000 
     18 N6A        47.8120    5.0240   12.1540 N.pl3     1 NAD401      0.0000 
     19 N1A        45.9330    4.5880   10.8760 N.ar      1 NAD401      0.0000 
     20 C2A        44.5930    4.4390   10.7640 C.ar      1 NAD401      0.0000 
     21 N3A        43.7540    4.5360   11.8150 N.ar      1 NAD401      0.0000 
     22 C4A        44.2070    4.8030   13.0580 C.ar      1 NAD401      0.0000 
     23 O3         38.6760    9.0760   18.2590 O.3       1 NAD401      0.0000 
     24 PN         37.6890   10.1250   17.5110 P.3       1 NAD401      0.0000 
     25 O1N        36.4740   10.4330   18.3070 O.co2     1 NAD401      0.0000 
     26 O2N        37.2410    9.5770   16.1910 O.co2     1 NAD401      0.0000 
     27 O5D        38.6820   11.4320   17.3890 O.3       1 NAD401      0.0000 
     28 C5D        39.7420   11.1810   16.4710 C.3       1 NAD401      0.0000 
     29 C4D        40.6790   12.3640   16.3860 C.3       1 NAD401      0.0000 
     30 O4D        39.9470   13.4240   15.8380 O.3       1 NAD401      0.0000 
     31 C3D        41.1470   12.8290   17.7250 C.3       1 NAD401      0.0000 
     32 O3D        42.4530   13.2970   17.5590 O.3       1 NAD401      0.0000 
     33 C2D        40.2400   13.9810   18.1210 C.3       1 NAD401      0.0000 
     34 O2D        40.7210   14.9610   19.1070 O.3       1 NAD401      0.0000 
     35 C1D        39.9740   14.5480   16.7250 C.3       1 NAD401      0.0000 
     36 N1N        38.6870   15.2460   16.5910 N.pl3     1 NAD401      0.0000 
     37 C2N        38.7190   16.4560   15.9640 C.ar      1 NAD401      0.0000 
     38 C3N        37.5490   17.2220   15.7670 C.ar      1 NAD401      0.0000 
     39 C7N        37.6820   18.5250   15.0420 C.2       1 NAD401      0.0000 
     40 O7N        38.6910   18.7390   14.3390 O.2       1 NAD401      0.0000 
     41 N7N        36.7110   19.4190   15.1820 N.am      1 NAD401      0.0000 
     42 C4N        36.3410   16.7060   16.2380 C.ar      1 NAD401      0.0000 
     43 C5N        36.3240   15.4480   16.8760 C.ar      1 NAD401      0.0000 
     44 C6N        37.5100   14.7160   17.0340 C.ar      1 NAD401      0.0000 
@<TRIPOS>BOND
     1    1    2 ar   
     2    1    3 ar   
     3    1    4 1    
     4    1   23 1    
     5    4    5 1    
     6    5    6 1    
     7    6    7 1    
     8    6    8 1    
     9    7   12 1    
    10    8    9 1    
    11    8   10 1    
    12   10   11 1    
    13   10   12 1    
    14   12   13 1    
    15   13   14 1    
    16   13   22 1    
    17   14   15 2    
    18   15   16 1    
    19   16   17 ar   
    20   16   22 ar   
    21   17   18 1    
    22   17   19 ar   
    23   19   20 ar   
    24   20   21 ar   
    25   21   22 ar   
    26   23   24 1    
    27   24   25 ar   
    28   24   26 ar   
    29   24   27 1    
    30   27   28 1    
    31   28   29 1    
    32   29   30 1    
    33   29   31 1    
    34   30   35 1    
    35   31   32 1    
    36   31   33 1    
    37   33   34 1    
    38   33   35 1    
    39   35   36 1    
    40   36   37 ar   
    41   36   44 ar   
    42   37   38 ar   
    43   38   39 1    
    44   38   42 ar   
    45   39   40 2    
    46   39   41 am   
    47   42   43 ar   
    48   43   44 ar   
@<TRIPOS>SUBSTRUCTURE
     1 NAD401      1 GROUP   
@<TRIPOS>SET
ATOM$ORANGE STATIC     ATOMS   COLORGROUP SYSTEM 
42 5 5 6 6 8 8 10 10 12 12 14 14 16 16 17 17 20 \
20 22 22 28 28 29 29 31 31 33 33 35 35 37 37 38 38 39 \
39 42 42 43 43 44 44 

