#    Name: 5yd5_1_ILE_ALA_TYR_TYR_THR_SER_GLU_PRO
#    Modification time : Fri May 22 19:18:21 2020

@<TRIPOS>MOLECULE
5yd5_1_ILE_ALA_TYR_TYR_THR_SER_GLU_PRO
   67    69     8     0     0
SMALL
NO_CHARGES


@<TRIPOS>ATOM
      1 N          25.7810    5.8240   43.8100 N.4       1 ILE2        0.0000 
      2 CA         26.3710    7.1310   44.2050 C.3       1 ILE2        0.0000 
      3 C          27.8520    7.1520   43.8220 C.2       1 ILE2        0.0000 
      4 O          28.6060    6.2450   44.1650 O.2       1 ILE2        0.0000 
      5 CB         26.1400    7.4040   45.6970 C.3       1 ILE2        0.0000 
      6 CG1        24.6480    7.6840   45.9090 C.3       1 ILE2        0.0000 
      7 CG2        26.9530    8.6080   46.1760 C.3       1 ILE2        0.0000 
      8 CD1        24.1820    7.4030   47.2990 C.3       1 ILE2        0.0000 
      9 N          28.2520    8.1910   43.1080 N.am      2 ALA3        0.0000 
     10 CA         29.6140    8.3060   42.6130 C.3       2 ALA3        0.0000 
     11 C          30.5840    8.4210   43.8030 C.2       2 ALA3        0.0000 
     12 O          30.3150    9.1610   44.7800 O.2       2 ALA3        0.0000 
     13 CB         29.7450    9.5250   41.7200 C.3       2 ALA3        0.0000 
     14 N          31.7020    7.7020   43.7050 N.am      3 TYR4        0.0000 
     15 CA         32.7380    7.8140   44.7300 C.3       3 TYR4        0.0000 
     16 C          33.5530    9.0910   44.6320 C.2       3 TYR4        0.0000 
     17 O          34.3290    9.3470   45.5150 O.2       3 TYR4        0.0000 
     18 CB         33.6870    6.6240   44.7090 C.3       3 TYR4        0.0000 
     19 CG         34.5070    6.5610   43.4650 C.ar      3 TYR4        0.0000 
     20 CD1        35.7000    7.2800   43.3380 C.ar      3 TYR4        0.0000 
     21 CD2        34.0700    5.8000   42.3890 C.ar      3 TYR4        0.0000 
     22 CE1        36.4390    7.2220   42.1560 C.ar      3 TYR4        0.0000 
     23 CE2        34.7870    5.7410   41.2060 C.ar      3 TYR4        0.0000 
     24 CZ         35.9630    6.4460   41.0860 C.ar      3 TYR4        0.0000 
     25 OH         36.6290    6.3170   39.8790 O.3       3 TYR4        0.0000 
     26 N          33.3840    9.8840   43.5730 N.am      4 TYR5        0.0000 
     27 CA         34.3250   11.0040   43.2970 C.3       4 TYR5        0.0000 
     28 C          33.6860   12.3670   43.4970 C.2       4 TYR5        0.0000 
     29 O          34.4020   13.3650   43.5310 O.2       4 TYR5        0.0000 
     30 CB         34.9490   10.9160   41.8880 C.3       4 TYR5        0.0000 
     31 CG         33.9310   10.6960   40.8530 C.ar      4 TYR5        0.0000 
     32 CD1        33.5970    9.4060   40.4570 C.ar      4 TYR5        0.0000 
     33 CD2        33.2510   11.7740   40.2700 C.ar      4 TYR5        0.0000 
     34 CE1        32.6060    9.1970   39.5130 C.ar      4 TYR5        0.0000 
     35 CE2        32.2620   11.5690   39.3220 C.ar      4 TYR5        0.0000 
     36 CZ         31.9440   10.2920   38.9590 C.ar      4 TYR5        0.0000 
     37 OH         30.9860   10.0900   38.0510 O.3       4 TYR5        0.0000 
     38 N          32.3540   12.4160   43.5790 N.am      5 THR6        0.0000 
     39 CA         31.6130   13.6320   43.9830 C.3       5 THR6        0.0000 
     40 C          30.2470   13.2900   44.5070 C.2       5 THR6        0.0000 
     41 O          29.6470   12.2530   44.1180 O.2       5 THR6        0.0000 
     42 CB         31.4250   14.6340   42.8150 C.3       5 THR6        0.0000 
     43 OG1        30.7750   15.8360   43.2810 O.3       5 THR6        0.0000 
     44 CG2        30.6170   14.0380   41.6830 C.3       5 THR6        0.0000 
     45 N          29.7340   14.1620   45.3660 N.am      6 SER7        0.0000 
     46 CA         28.3320   14.0420   45.7990 C.3       6 SER7        0.0000 
     47 C          27.3720   14.8470   44.9430 C.2       6 SER7        0.0000 
     48 O          26.1680   14.7610   45.1090 O.2       6 SER7        0.0000 
     49 CB         28.1840   14.4600   47.2380 C.3       6 SER7        0.0000 
     50 OG         28.3370   15.8700   47.3840 O.3       6 SER7        0.0000 
     51 N          27.9240   15.6740   44.0630 N.am      7 GLU8        0.0000 
     52 CA         27.1310   16.5400   43.2100 C.3       7 GLU8        0.0000 
     53 C          26.3250   15.6760   42.2350 C.2       7 GLU8        0.0000 
     54 O          26.8270   14.6470   41.7680 O.2       7 GLU8        0.0000 
     55 CB         28.0260   17.4630   42.4000 C.3       7 GLU8        0.0000 
     56 CG         28.9110   18.3860   43.1980 C.3       7 GLU8        0.0000 
     57 CD         30.0230   18.9470   42.3470 C.2       7 GLU8        0.0000 
     58 OE1        30.0960   20.1910   42.2330 O.co2     7 GLU8        0.0000 
     59 OE2        30.8120   18.1290   41.8200 O.co2     7 GLU8        0.0000 
     60 N          25.0780   16.0680   41.9530 N.am      8 PRO9        0.0000 
     61 CA         24.2530   15.3020   41.0340 C.3       8 PRO9        0.0000 
     62 C          24.7500   15.4280   39.6140 C.2       8 PRO9        0.0000 
     63 O          24.5790   14.4720   38.8530 O.2       8 PRO9        0.0000 
     64 CB         22.8470   15.9290   41.1940 C.3       8 PRO9        0.0000 
     65 CG         23.1100   17.3340   41.6630 C.3       8 PRO9        0.0000 
     66 CD         24.3520   17.2270   42.5140 C.3       8 PRO9        0.0000 
     67 OXT        25.3280   16.4440   39.1730 O.3       8 PRO9        0.0000 
@<TRIPOS>BOND
     1    1    2 1    
     2    2    3 1    
     3    2    5 1    
     4    3    4 2    
     5    3    9 am   
     6    5    6 1    
     7    5    7 1    
     8    6    8 1    
     9    9   10 1    
    10   10   11 1    
    11   10   13 1    
    12   11   12 2    
    13   11   14 am   
    14   14   15 1    
    15   15   16 1    
    16   15   18 1    
    17   16   17 2    
    18   16   26 am   
    19   18   19 1    
    20   19   20 ar   
    21   19   21 ar   
    22   20   22 ar   
    23   21   23 ar   
    24   22   24 ar   
    25   23   24 ar   
    26   24   25 1    
    27   26   27 1    
    28   27   28 1    
    29   27   30 1    
    30   28   29 2    
    31   28   38 am   
    32   30   31 1    
    33   31   32 ar   
    34   31   33 ar   
    35   32   34 ar   
    36   33   35 ar   
    37   34   36 ar   
    38   35   36 ar   
    39   36   37 1    
    40   38   39 1    
    41   39   40 1    
    42   39   42 1    
    43   40   45 am   
    44   40   41 2    
    45   42   43 1    
    46   42   44 1    
    47   45   46 1    
    48   46   47 1    
    49   46   49 1    
    50   47   48 2    
    51   47   51 am   
    52   49   50 1    
    53   51   52 1    
    54   52   53 1    
    55   52   55 1    
    56   53   54 2    
    57   53   60 am   
    58   55   56 1    
    59   56   57 1    
    60   57   58 ar   
    61   57   59 ar   
    62   60   61 1    
    63   60   66 1    
    64   61   62 1    
    65   61   64 1    
    66   62   63 2    
    67   62   67 1    
    68   64   65 1    
    69   65   66 1    
@<TRIPOS>SUBSTRUCTURE
     1 ILE2        1 RESIDUE 
     2 ALA3        9 RESIDUE 
     3 TYR4       14 RESIDUE 
     4 TYR5       26 RESIDUE 
     5 THR6       38 RESIDUE 
     6 SER7       45 RESIDUE 
     7 GLU8       51 RESIDUE 
     8 PRO9       60 RESIDUE 
@<TRIPOS>SET

