#    Name: 5yd5_1_ILE_ALA_TYR_TYR_THR_SER_GLU_PRO_CAVITY_N1_4
#    Modification time : Fri May 22 19:18:23 2020

@<TRIPOS>MOLECULE
5yd5_1_ILE_ALA_TYR_TYR_THR_SER_GLU_PRO_CAVITY_N1_4
   35     0     6     0     0
SMALL
NO_CHARGES


@<TRIPOS>ATOM
      1 OG         26.7600   17.9200   37.0000 O.3       1 SER1        0.0000 
      2 OG         27.9600   15.5600   44.0200 O.3       1 SER1        0.0000 
      3 OG         27.9600   17.6000   43.4200 O.3       1 SER1        0.0000 
      4 OG         28.5800   16.3400   42.8900 O.3       1 SER1        0.0000 
      5 OG         31.0400   19.4400   38.3800 O.3       1 SER1        0.0000 
      6 OG         29.1800   15.8100   44.8500 O.3       1 SER1        0.0000 
      7 OG         29.8000   14.5500   44.3200 O.3       1 SER1        0.0000 
      8 OG         29.1800   17.8400   44.2600 O.3       1 SER1        0.0000 
      9 OG         31.6400   18.9100   40.3500 O.3       1 SER1        0.0000 
     10 N          27.3500   18.1200   41.4600 N.am      2 ALA2        0.0000 
     11 N          27.9700   18.9000   40.3300 N.am      2 ALA2        0.0000 
     12 N          28.5800   19.6700   39.2000 N.am      2 ALA2        0.0000 
     13 N          27.9500   19.6300   42.8200 N.am      2 ALA2        0.0000 
     14 N          28.5700   18.3700   42.2900 N.am      2 ALA2        0.0000 
     15 N          29.1900   19.1500   41.1700 N.am      2 ALA2        0.0000 
     16 OD1        27.3800   16.6600   36.4700 O.co2     3 ASP3        0.0000 
     17 CZ         29.8000   16.5800   43.7300 C.ar      4 PHE5        0.0000 
     18 CZ         30.4100   15.3200   43.2000 C.ar      4 PHE5        0.0000 
     19 CZ         29.7900   18.6200   43.1300 C.ar      4 PHE5        0.0000 
     20 CZ         30.4100   17.3600   42.6000 C.ar      4 PHE5        0.0000 
     21 CZ         30.4100   19.3900   42.0000 C.ar      4 PHE5        0.0000 
     22 CA         27.9600   20.9300   39.7300 C.3       5 GLY6        0.0000 
     23 CA         28.5700   20.4100   41.7000 C.3       5 GLY6        0.0000 
     24 CA         29.1800   21.1800   40.5700 C.3       5 GLY6        0.0000 
     25 CA         29.8000   21.9600   39.4400 C.3       5 GLY6        0.0000 
     26 CA         30.4000   23.4600   40.8100 C.3       5 GLY6        0.0000 
     27 DU         27.3600   17.3900   38.9600 H         6 CUB7        0.0000 
     28 DU         27.9800   18.1700   37.8400 H         6 CUB7        0.0000 
     29 DU         28.6000   16.9100   37.3100 H         6 CUB7        0.0000 
     30 DU         28.5800   17.6400   39.8000 H         6 CUB7        0.0000 
     31 DU         29.2000   18.4100   38.6700 H         6 CUB7        0.0000 
     32 DU         29.1900   17.1100   41.7600 H         6 CUB7        0.0000 
     33 DU         29.8000   19.9200   40.0400 H         6 CUB7        0.0000 
     34 DU         30.4200   18.6600   39.5100 H         6 CUB7        0.0000 
     35 DU         30.4200   20.7000   38.9100 H         6 CUB7        0.0000 
@<TRIPOS>BOND
@<TRIPOS>SUBSTRUCTURE
     1 SER1        1 GROUP   
     2 ALA2       10 GROUP   
     3 ASP3       16 GROUP   
     4 PHE5       17 GROUP   
     5 GLY6       22 GROUP   
     6 CUB7       27 GROUP   
@<TRIPOS>SET

