#    Name: 5yd5_1_ILE_ALA_TYR_TYR_THR_SER_GLU_PRO_CAVITY_N1_ALL
#    Modification time : Fri May 22 19:18:23 2020

@<TRIPOS>MOLECULE
5yd5_1_ILE_ALA_TYR_TYR_THR_SER_GLU_PRO_CAVITY_N1_ALL
   77     0     7     0     0
SMALL
NO_CHARGES


@<TRIPOS>ATOM
      1 OG         26.7600   17.9200   37.0000 O.3       1 SER1        0.0000 
      2 OG         27.9900   17.4400   35.3400 O.3       1 SER1        0.0000 
      3 OG         29.2100   17.6800   36.1800 O.3       1 SER1        0.0000 
      4 OG         27.9600   15.5600   44.0200 O.3       1 SER1        0.0000 
      5 OG         27.9600   17.6000   43.4200 O.3       1 SER1        0.0000 
      6 OG         28.5800   16.3400   42.8900 O.3       1 SER1        0.0000 
      7 OG         31.0400   19.4400   38.3800 O.3       1 SER1        0.0000 
      8 OG         29.1800   15.8100   44.8500 O.3       1 SER1        0.0000 
      9 OG         29.8000   14.5500   44.3200 O.3       1 SER1        0.0000 
     10 OG         29.1800   17.8400   44.2600 O.3       1 SER1        0.0000 
     11 OG         31.6400   18.9100   40.3500 O.3       1 SER1        0.0000 
     12 N          28.6000   20.2500   33.6200 N.am      2 ALA2        0.0000 
     13 N          28.5900   20.9800   36.1100 N.am      2 ALA2        0.0000 
     14 N          29.2100   21.7500   34.9900 N.am      2 ALA2        0.0000 
     15 N          27.3500   18.1200   41.4600 N.am      2 ALA2        0.0000 
     16 N          27.9700   18.9000   40.3300 N.am      2 ALA2        0.0000 
     17 N          28.5800   19.6700   39.2000 N.am      2 ALA2        0.0000 
     18 N          29.8100   21.2300   36.9500 N.am      2 ALA2        0.0000 
     19 N          27.9500   19.6300   42.8200 N.am      2 ALA2        0.0000 
     20 N          28.5700   18.3700   42.2900 N.am      2 ALA2        0.0000 
     21 N          29.1900   19.1500   41.1700 N.am      2 ALA2        0.0000 
     22 N          31.0300   21.4700   37.7800 N.am      2 ALA2        0.0000 
     23 N          31.6500   22.2500   36.6600 N.am      2 ALA2        0.0000 
     24 O          31.0200   24.2400   39.6800 O.2       2 ALA2        0.0000 
     25 O          31.6300   22.9800   39.1500 O.2       2 ALA2        0.0000 
     26 O          31.6300   25.0200   38.5500 O.2       2 ALA2        0.0000 
     27 O          32.2500   23.7600   38.0200 O.2       2 ALA2        0.0000 
     28 OD1        26.1500   20.4800   34.4400 O.co2     3 ASP3        0.0000 
     29 OD1        26.7700   19.2200   33.9100 O.co2     3 ASP3        0.0000 
     30 OD1        26.7600   21.2600   33.3100 O.co2     3 ASP3        0.0000 
     31 OD1        27.3800   16.6600   36.4700 O.co2     3 ASP3        0.0000 
     32 OD1        27.3700   18.6900   35.8700 O.co2     3 ASP3        0.0000 
     33 OD1        27.9900   19.4700   34.7500 O.co2     3 ASP3        0.0000 
     34 NZ         26.1300   23.2500   36.3400 N.4       4 LYS4        0.0000 
     35 NZ         26.7500   24.0300   35.2100 N.4       4 LYS4        0.0000 
     36 NZ         27.3700   22.7700   34.6800 N.4       4 LYS4        0.0000 
     37 NZ         27.9800   21.5100   34.1500 N.4       4 LYS4        0.0000 
     38 NZ         27.3600   21.4600   37.7700 N.4       4 LYS4        0.0000 
     39 NZ         27.3500   23.5000   37.1700 N.4       4 LYS4        0.0000 
     40 NZ         27.9700   22.2400   36.6400 N.4       4 LYS4        0.0000 
     41 NZ         27.9700   24.2700   36.0400 N.4       4 LYS4        0.0000 
     42 NZ         28.5900   23.0100   35.5100 N.4       4 LYS4        0.0000 
     43 NZ         29.1900   22.4900   37.4800 N.4       4 LYS4        0.0000 
     44 NZ         29.1900   24.5200   36.8800 N.4       4 LYS4        0.0000 
     45 NZ         29.8100   23.2600   36.3500 N.4       4 LYS4        0.0000 
     46 NZ         29.8000   23.9900   38.8400 N.4       4 LYS4        0.0000 
     47 NZ         30.4100   24.7700   37.7200 N.4       4 LYS4        0.0000 
     48 NZ         31.0300   23.5100   37.1900 N.4       4 LYS4        0.0000 
     49 NZ         30.4000   25.5000   40.2100 N.4       4 LYS4        0.0000 
     50 CZ         29.8000   16.5800   43.7300 C.ar      5 PHE5        0.0000 
     51 CZ         30.4100   15.3200   43.2000 C.ar      5 PHE5        0.0000 
     52 CZ         29.7900   18.6200   43.1300 C.ar      5 PHE5        0.0000 
     53 CZ         30.4100   17.3600   42.6000 C.ar      5 PHE5        0.0000 
     54 CZ         30.4100   19.3900   42.0000 C.ar      5 PHE5        0.0000 
     55 CA         27.9600   20.9300   39.7300 C.3       6 GLY6        0.0000 
     56 CA         28.5800   21.7100   38.6100 C.3       6 GLY6        0.0000 
     57 CA         28.5700   20.4100   41.7000 C.3       6 GLY6        0.0000 
     58 CA         29.1800   21.1800   40.5700 C.3       6 GLY6        0.0000 
     59 CA         29.8000   21.9600   39.4400 C.3       6 GLY6        0.0000 
     60 CA         30.4000   23.4600   40.8100 C.3       6 GLY6        0.0000 
     61 DU         24.9100   23.0000   35.5000 H         7 CUB7        0.0000 
     62 DU         26.1500   22.5200   33.8400 H         7 CUB7        0.0000 
     63 DU         26.7500   21.9900   35.8100 H         7 CUB7        0.0000 
     64 DU         27.3700   20.7300   35.2800 H         7 CUB7        0.0000 
     65 DU         27.3600   17.3900   38.9600 H         7 CUB7        0.0000 
     66 DU         27.9800   18.1700   37.8400 H         7 CUB7        0.0000 
     67 DU         28.6000   16.9100   37.3100 H         7 CUB7        0.0000 
     68 DU         28.5900   18.9400   36.7100 H         7 CUB7        0.0000 
     69 DU         28.5800   17.6400   39.8000 H         7 CUB7        0.0000 
     70 DU         29.2000   18.4100   38.6700 H         7 CUB7        0.0000 
     71 DU         29.2000   20.4500   38.0800 H         7 CUB7        0.0000 
     72 DU         29.8100   19.1900   37.5500 H         7 CUB7        0.0000 
     73 DU         29.1900   17.1100   41.7600 H         7 CUB7        0.0000 
     74 DU         29.8000   19.9200   40.0400 H         7 CUB7        0.0000 
     75 DU         30.4200   18.6600   39.5100 H         7 CUB7        0.0000 
     76 DU         30.4200   20.7000   38.9100 H         7 CUB7        0.0000 
     77 DU         30.4100   22.7300   38.3100 H         7 CUB7        0.0000 
@<TRIPOS>BOND
@<TRIPOS>SUBSTRUCTURE
     1 SER1        1 GROUP   
     2 ALA2       12 GROUP   
     3 ASP3       28 GROUP   
     4 LYS4       34 GROUP   
     5 PHE5       50 GROUP   
     6 GLY6       55 GROUP   
     7 CUB7       61 GROUP   
@<TRIPOS>SET

