#    Name: 5yd5_1_ILE_ALA_TYR_TYR_THR_SER_GLU_PRO_CAVITY_N1_6
#    Modification time : Fri May 22 19:18:23 2020

@<TRIPOS>MOLECULE
5yd5_1_ILE_ALA_TYR_TYR_THR_SER_GLU_PRO_CAVITY_N1_6
   53     0     7     0     0
SMALL
NO_CHARGES


@<TRIPOS>ATOM
      1 OG         26.7600   17.9200   37.0000 O.3       1 SER1        0.0000 
      2 OG         27.9900   17.4400   35.3400 O.3       1 SER1        0.0000 
      3 OG         29.2100   17.6800   36.1800 O.3       1 SER1        0.0000 
      4 OG         27.9600   15.5600   44.0200 O.3       1 SER1        0.0000 
      5 OG         27.9600   17.6000   43.4200 O.3       1 SER1        0.0000 
      6 OG         28.5800   16.3400   42.8900 O.3       1 SER1        0.0000 
      7 OG         31.0400   19.4400   38.3800 O.3       1 SER1        0.0000 
      8 OG         29.1800   15.8100   44.8500 O.3       1 SER1        0.0000 
      9 OG         29.8000   14.5500   44.3200 O.3       1 SER1        0.0000 
     10 OG         29.1800   17.8400   44.2600 O.3       1 SER1        0.0000 
     11 OG         31.6400   18.9100   40.3500 O.3       1 SER1        0.0000 
     12 N          27.3500   18.1200   41.4600 N.am      2 ALA2        0.0000 
     13 N          27.9700   18.9000   40.3300 N.am      2 ALA2        0.0000 
     14 N          28.5800   19.6700   39.2000 N.am      2 ALA2        0.0000 
     15 N          29.8100   21.2300   36.9500 N.am      2 ALA2        0.0000 
     16 N          27.9500   19.6300   42.8200 N.am      2 ALA2        0.0000 
     17 N          28.5700   18.3700   42.2900 N.am      2 ALA2        0.0000 
     18 N          29.1900   19.1500   41.1700 N.am      2 ALA2        0.0000 
     19 N          31.0300   21.4700   37.7800 N.am      2 ALA2        0.0000 
     20 O          31.0200   24.2400   39.6800 O.2       2 ALA2        0.0000 
     21 O          31.6300   22.9800   39.1500 O.2       2 ALA2        0.0000 
     22 O          32.2500   23.7600   38.0200 O.2       2 ALA2        0.0000 
     23 OD1        27.3800   16.6600   36.4700 O.co2     3 ASP3        0.0000 
     24 OD1        27.3700   18.6900   35.8700 O.co2     3 ASP3        0.0000 
     25 OD1        27.9900   19.4700   34.7500 O.co2     3 ASP3        0.0000 
     26 NZ         27.3600   21.4600   37.7700 N.4       4 LYS4        0.0000 
     27 NZ         29.1900   22.4900   37.4800 N.4       4 LYS4        0.0000 
     28 NZ         29.8000   23.9900   38.8400 N.4       4 LYS4        0.0000 
     29 NZ         30.4000   25.5000   40.2100 N.4       4 LYS4        0.0000 
     30 CZ         29.8000   16.5800   43.7300 C.ar      5 PHE5        0.0000 
     31 CZ         30.4100   15.3200   43.2000 C.ar      5 PHE5        0.0000 
     32 CZ         29.7900   18.6200   43.1300 C.ar      5 PHE5        0.0000 
     33 CZ         30.4100   17.3600   42.6000 C.ar      5 PHE5        0.0000 
     34 CZ         30.4100   19.3900   42.0000 C.ar      5 PHE5        0.0000 
     35 CA         27.9600   20.9300   39.7300 C.3       6 GLY6        0.0000 
     36 CA         28.5800   21.7100   38.6100 C.3       6 GLY6        0.0000 
     37 CA         28.5700   20.4100   41.7000 C.3       6 GLY6        0.0000 
     38 CA         29.1800   21.1800   40.5700 C.3       6 GLY6        0.0000 
     39 CA         29.8000   21.9600   39.4400 C.3       6 GLY6        0.0000 
     40 CA         30.4000   23.4600   40.8100 C.3       6 GLY6        0.0000 
     41 DU         27.3600   17.3900   38.9600 H         7 CUB7        0.0000 
     42 DU         27.9800   18.1700   37.8400 H         7 CUB7        0.0000 
     43 DU         28.6000   16.9100   37.3100 H         7 CUB7        0.0000 
     44 DU         28.5900   18.9400   36.7100 H         7 CUB7        0.0000 
     45 DU         28.5800   17.6400   39.8000 H         7 CUB7        0.0000 
     46 DU         29.2000   18.4100   38.6700 H         7 CUB7        0.0000 
     47 DU         29.2000   20.4500   38.0800 H         7 CUB7        0.0000 
     48 DU         29.8100   19.1900   37.5500 H         7 CUB7        0.0000 
     49 DU         29.1900   17.1100   41.7600 H         7 CUB7        0.0000 
     50 DU         29.8000   19.9200   40.0400 H         7 CUB7        0.0000 
     51 DU         30.4200   18.6600   39.5100 H         7 CUB7        0.0000 
     52 DU         30.4200   20.7000   38.9100 H         7 CUB7        0.0000 
     53 DU         30.4100   22.7300   38.3100 H         7 CUB7        0.0000 
@<TRIPOS>BOND
@<TRIPOS>SUBSTRUCTURE
     1 SER1        1 GROUP   
     2 ALA2       12 GROUP   
     3 ASP3       23 GROUP   
     4 LYS4       26 GROUP   
     5 PHE5       30 GROUP   
     6 GLY6       35 GROUP   
     7 CUB7       41 GROUP   
@<TRIPOS>SET

