#    Name: 6ils_1_ATP
#    Modification time : Fri May 22 19:24:49 2020

@<TRIPOS>MOLECULE
6ils_1_ATP
   31    33     1     0     1
SMALL
NO_CHARGES


@<TRIPOS>ATOM
      1 PG         55.8170   15.0960  111.1090 P.3       1 ATP401      0.0000 
      2 O1G        56.8290   14.4010  110.2490 O.co2     1 ATP401      0.0000 
      3 O2G        54.5280   15.3120  110.3290 O.co2     1 ATP401      0.0000 
      4 O3G        56.3360   16.4180  111.5620 O.co2     1 ATP401      0.0000 
      5 PB         55.6100   12.6260  112.4820 P.3       1 ATP401      0.0000 
      6 O1B        57.0230   12.2100  112.5980 O.co2     1 ATP401      0.0000 
      7 O2B        54.8290   12.1690  113.6090 O.co2     1 ATP401      0.0000 
      8 O3B        55.5180   14.2080  112.4140 O.3       1 ATP401      0.0000 
      9 PA         54.3030   10.7440  110.8030 P.3       1 ATP401      0.0000 
     10 O1A        53.8890   10.7280  109.3390 O.co2     1 ATP401      0.0000 
     11 O2A        55.2240    9.5910  111.0850 O.co2     1 ATP401      0.0000 
     12 O3A        55.0600   12.0890  111.0800 O.3       1 ATP401      0.0000 
     13 O5'        53.0300   10.6770  111.7010 O.3       1 ATP401      0.0000 
     14 C5'        52.0210   11.6420  111.4680 C.3       1 ATP401      0.0000 
     15 C4'        51.0530   11.7520  112.7200 C.3       1 ATP401      0.0000 
     16 O4'        50.1150   10.5270  112.7810 O.3       1 ATP401      0.0000 
     17 C3'        51.6750   11.7760  113.8300 C.3       1 ATP401      0.0000 
     18 O3'        50.9260   12.5840  114.7590 O.3       1 ATP401      0.0000 
     19 C2'        51.6630   10.2230  114.4220 C.3       1 ATP401      0.0000 
     20 O2'        51.7050   10.2600  115.8750 O.3       1 ATP401      0.0000 
     21 C1'        50.5890    9.7010  114.0210 C.3       1 ATP401      0.0000 
     22 N9         50.8560    8.3310  113.5400 N.pl3     1 ATP401      0.0000 
     23 C8         51.8100    7.6520  112.8370 C.2       1 ATP401      0.0000 
     24 N7         51.4010    6.3550  112.7460 N.2       1 ATP401      0.0000 
     25 C5         50.1910    6.2350  113.3870 C.ar      1 ATP401      0.0000 
     26 C6         49.3430    5.1410  113.5870 C.ar      1 ATP401      0.0000 
     27 N6         49.5570    3.7970  113.1360 N.pl3     1 ATP401      0.0000 
     28 N1         48.1910    5.2940  114.2530 N.ar      1 ATP401      0.0000 
     29 C2         47.8490    6.5380  114.7520 C.ar      1 ATP401      0.0000 
     30 N3         48.6820    7.6110  114.5610 N.ar      1 ATP401      0.0000 
     31 C4         49.8520    7.4560  113.8770 C.ar      1 ATP401      0.0000 
@<TRIPOS>BOND
     1    1    2 ar   
     2    1    3 ar   
     3    1    4 ar   
     4    1    8 1    
     5    5    6 ar   
     6    5    7 ar   
     7    5    8 1    
     8    5   12 1    
     9    9   10 ar   
    10    9   11 ar   
    11    9   12 1    
    12    9   13 1    
    13   13   14 1    
    14   14   15 1    
    15   15   16 1    
    16   15   17 1    
    17   16   21 1    
    18   17   18 1    
    19   17   19 1    
    20   19   20 1    
    21   19   21 1    
    22   21   22 1    
    23   22   23 1    
    24   22   31 1    
    25   23   24 2    
    26   24   25 1    
    27   25   26 ar   
    28   25   31 ar   
    29   26   27 1    
    30   26   28 ar   
    31   28   29 ar   
    32   29   30 ar   
    33   30   31 ar   
@<TRIPOS>SUBSTRUCTURE
     1 ATP401      1 GROUP   
@<TRIPOS>SET
ATOM$ORANGE STATIC     ATOMS   COLORGROUP SYSTEM 
20 14 14 15 15 17 17 19 19 21 21 23 23 25 25 26 26 29 \
29 31 31 

