#    Name: 6ils_2_ATP
#    Modification time : Fri May 22 19:24:54 2020

@<TRIPOS>MOLECULE
6ils_2_ATP
   31    33     1     0     1
SMALL
NO_CHARGES


@<TRIPOS>ATOM
      1 PG         54.9950   19.4790   64.9030 P.3       1 ATP401      0.0000 
      2 O1G        53.8120   18.7030   64.4500 O.co2     1 ATP401      0.0000 
      3 O2G        54.6300   20.3810   66.0720 O.co2     1 ATP401      0.0000 
      4 O3G        56.0900   18.5740   65.3780 O.co2     1 ATP401      0.0000 
      5 PB         57.0050   20.5840   63.2770 P.3       1 ATP401      0.0000 
      6 O1B        57.0680   21.3980   62.0590 O.co2     1 ATP401      0.0000 
      7 O2B        57.7140   19.3400   62.9950 O.co2     1 ATP401      0.0000 
      8 O3B        55.4860   20.3190   63.6280 O.3       1 ATP401      0.0000 
      9 PA         58.2430   22.6720   64.8780 P.3       1 ATP401      0.0000 
     10 O1A        59.7020   22.7510   64.4430 O.co2     1 ATP401      0.0000 
     11 O2A        58.1300   22.9760   66.3500 O.co2     1 ATP401      0.0000 
     12 O3A        57.6810   21.2170   64.6000 O.3       1 ATP401      0.0000 
     13 O5'        57.4170   23.7430   64.0890 O.3       1 ATP401      0.0000 
     14 C5'        56.0110   23.8030   64.2260 C.3       1 ATP401      0.0000 
     15 C4'        55.4680   24.8160   63.1320 C.3       1 ATP401      0.0000 
     16 O4'        56.1740   26.1780   63.3090 O.3       1 ATP401      0.0000 
     17 C3'        55.7860   24.3950   61.9830 C.3       1 ATP401      0.0000 
     18 O3'        54.7370   24.6840   61.0410 O.3       1 ATP401      0.0000 
     19 C2'        57.1460   25.2270   61.5240 C.3       1 ATP401      0.0000 
     20 O2'        57.1970   25.1950   60.0690 O.3       1 ATP401      0.0000 
     21 C1'        57.0310   26.3840   62.0340 C.3       1 ATP401      0.0000 
     22 N9         58.3360   26.8610   62.5290 N.pl3     1 ATP401      0.0000 
     23 C8         59.3910   26.3950   63.2600 C.2       1 ATP401      0.0000 
     24 N7         60.3090   27.3960   63.3430 N.2       1 ATP401      0.0000 
     25 C5         59.8130   28.4850   62.6700 C.ar      1 ATP401      0.0000 
     26 C6         60.3370   29.7570   62.4470 C.ar      1 ATP401      0.0000 
     27 N6         61.6010   30.2800   62.8870 N.pl3     1 ATP401      0.0000 
     28 N1         59.6360   30.6410   61.7390 N.ar      1 ATP401      0.0000 
     29 C2         58.3930   30.3090   61.2410 C.ar      1 ATP401      0.0000 
     30 N3         57.8690   29.0750   61.4540 N.ar      1 ATP401      0.0000 
     31 C4         58.5930   28.1600   62.1710 C.ar      1 ATP401      0.0000 
@<TRIPOS>BOND
     1    1    2 ar   
     2    1    3 ar   
     3    1    4 ar   
     4    1    8 1    
     5    5    6 ar   
     6    5    7 ar   
     7    5    8 1    
     8    5   12 1    
     9    9   10 ar   
    10    9   11 ar   
    11    9   12 1    
    12    9   13 1    
    13   13   14 1    
    14   14   15 1    
    15   15   16 1    
    16   15   17 1    
    17   16   21 1    
    18   17   18 1    
    19   17   19 1    
    20   19   20 1    
    21   19   21 1    
    22   21   22 1    
    23   22   23 1    
    24   22   31 1    
    25   23   24 2    
    26   24   25 1    
    27   25   26 ar   
    28   25   31 ar   
    29   26   27 1    
    30   26   28 ar   
    31   28   29 ar   
    32   29   30 ar   
    33   30   31 ar   
@<TRIPOS>SUBSTRUCTURE
     1 ATP401      1 GROUP   
@<TRIPOS>SET
ATOM$ORANGE STATIC     ATOMS   COLORGROUP SYSTEM 
20 14 14 15 15 17 17 19 19 21 21 23 23 25 25 26 26 29 \
29 31 31 

