#    Name: 5zdc_3_AR6
#    Modification time : Fri May 22 19:26:21 2020

@<TRIPOS>MOLECULE
5zdc_3_AR6
   36    39     1     0     0
SMALL
NO_CHARGES


@<TRIPOS>ATOM
      1 N1        -60.7000   42.5570  -39.4450 N.ar      1 AR6301      0.0000 
      2 C2        -59.5470   43.1830  -39.1100 C.ar      1 AR6301      0.0000 
      3 N3        -59.1900   44.3310  -39.7320 N.ar      1 AR6301      0.0000 
      4 C4        -60.0000   44.8400  -40.6760 C.ar      1 AR6301      0.0000 
      5 C5        -61.1370   44.2060  -41.0030 C.ar      1 AR6301      0.0000 
      6 C6        -61.4890   43.0470  -40.3780 C.ar      1 AR6301      0.0000 
      7 N6        -62.6170   42.1370  -40.4980 N.pl3     1 AR6301      0.0000 
      8 N7        -61.7540   44.8920  -41.9570 N.2       1 AR6301      0.0000 
      9 C8        -60.9980   45.9640  -42.2250 C.2       1 AR6301      0.0000 
     10 N9        -59.9160   45.9470  -41.4330 N.pl3     1 AR6301      0.0000 
     11 PA        -62.8150   49.9680  -40.5190 P.3       1 AR6301      0.0000 
     12 PB        -63.0260   52.4090  -38.8460 P.3       1 AR6301      0.0000 
     13 C1'       -58.8750   46.9060  -41.4530 C.3       1 AR6301      0.0000 
     14 O1A       -62.7400   50.8190  -41.7480 O.co2     1 AR6301      0.0000 
     15 O1B       -61.9490   53.2200  -39.5160 O.co2     1 AR6301      0.0000 
     16 C1D       -67.9920   50.8750  -40.1970 C.3       1 AR6301      0.0000 
     17 O1D       -68.9690   51.1680  -40.9610 O.3       1 AR6301      0.0000 
     18 C2'       -58.8020   47.5920  -42.6110 C.3       1 AR6301      0.0000 
     19 O2'       -57.3830   47.8740  -42.9400 O.3       1 AR6301      0.0000 
     20 O2A       -63.9430   48.9650  -40.5170 O.co2     1 AR6301      0.0000 
     21 O2B       -62.8510   52.5220  -37.3660 O.co2     1 AR6301      0.0000 
     22 C2D       -68.3920   51.0730  -38.7360 C.3       1 AR6301      0.0000 
     23 O2D       -69.8060   50.6910  -38.5430 O.3       1 AR6301      0.0000 
     24 C3'       -59.4630   48.9590  -42.3210 C.3       1 AR6301      0.0000 
     25 O3'       -58.9650   49.9130  -43.1170 O.3       1 AR6301      0.0000 
     26 O3A       -62.9280   50.8080  -39.1210 O.3       1 AR6301      0.0000 
     27 C3D       -68.2220   52.3830  -38.5460 C.3       1 AR6301      0.0000 
     28 O3D       -69.3170   53.1310  -39.0790 O.3       1 AR6301      0.0000 
     29 C4'       -59.1130   49.2050  -40.7900 C.3       1 AR6301      0.0000 
     30 O4'       -59.0740   48.0130  -40.2520 O.3       1 AR6301      0.0000 
     31 C4D       -66.8770   52.7580  -39.3800 C.3       1 AR6301      0.0000 
     32 O4D       -66.8240   51.9260  -40.3820 O.3       1 AR6301      0.0000 
     33 C5'       -60.2490   49.9680  -40.1190 C.3       1 AR6301      0.0000 
     34 O5'       -61.3970   49.1960  -40.3000 O.3       1 AR6301      0.0000 
     35 C5D       -65.6490   52.5500  -38.5270 C.3       1 AR6301      0.0000 
     36 O5D       -64.5380   52.8820  -39.3320 O.3       1 AR6301      0.0000 
@<TRIPOS>BOND
     1    1    2 ar   
     2    1    6 ar   
     3    2    3 ar   
     4    3    4 ar   
     5    4    5 ar   
     6    4   10 1    
     7    5    6 ar   
     8    5    8 1    
     9    6    7 1    
    10    8    9 2    
    11    9   10 1    
    12   10   13 1    
    13   11   14 ar   
    14   11   20 ar   
    15   11   26 1    
    16   11   34 1    
    17   12   15 ar   
    18   12   21 ar   
    19   12   26 1    
    20   12   36 1    
    21   13   18 1    
    22   13   30 1    
    23   16   17 1    
    24   16   22 1    
    25   16   32 1    
    26   18   19 1    
    27   18   24 1    
    28   22   23 1    
    29   22   27 1    
    30   24   25 1    
    31   24   29 1    
    32   27   28 1    
    33   27   31 1    
    34   29   30 1    
    35   29   33 1    
    36   31   32 1    
    37   31   35 1    
    38   33   34 1    
    39   35   36 1    
@<TRIPOS>SUBSTRUCTURE
     1 AR6301      1 GROUP   
@<TRIPOS>SET

