#    Name: 5zdc_5_AR6
#    Modification time : Fri May 22 19:26:31 2020

@<TRIPOS>MOLECULE
5zdc_5_AR6
   36    39     1     0     0
SMALL
NO_CHARGES


@<TRIPOS>ATOM
      1 N1        -12.8930   62.7930    5.3150 N.ar      1 AR6301      0.0000 
      2 C2        -12.7930   61.4950    4.9610 C.ar      1 AR6301      0.0000 
      3 N3        -13.5880   60.5820    5.5520 N.ar      1 AR6301      0.0000 
      4 C4        -14.4820   60.9570    6.4770 C.ar      1 AR6301      0.0000 
      5 C5        -14.5720   62.2360    6.8110 C.ar      1 AR6301      0.0000 
      6 C6        -13.7750   63.1670    6.2220 C.ar      1 AR6301      0.0000 
      7 N6        -13.6340   64.6000    6.3760 N.pl3     1 AR6301      0.0000 
      8 N7        -15.4990   62.3750    7.7340 N.2       1 AR6301      0.0000 
      9 C8        -15.9950   61.1600    7.9870 C.2       1 AR6301      0.0000 
     10 N9        -15.3840   60.2670    7.2080 N.pl3     1 AR6301      0.0000 
     11 PA        -20.4330   60.4950    6.3470 P.3       1 AR6301      0.0000 
     12 PB        -22.5730   59.4240    4.6660 P.3       1 AR6301      0.0000 
     13 C1'       -15.6400   58.8650    7.2120 C.3       1 AR6301      0.0000 
     14 O1A       -21.1220   59.8310    7.4930 O.co2     1 AR6301      0.0000 
     15 O1B       -22.7350   58.2010    5.5230 O.co2     1 AR6301      0.0000 
     16 C1D       -23.9820   64.3240    6.0190 C.3       1 AR6301      0.0000 
     17 O1D       -24.7160   64.8550    6.9140 O.3       1 AR6301      0.0000 
     18 C2'       -16.1570   58.3820    8.3600 C.3       1 AR6301      0.0000 
     19 O2'       -15.8300   56.9400    8.4830 O.3       1 AR6301      0.0000 
     20 O2A       -20.2260   61.9630    6.5370 O.co2     1 AR6301      0.0000 
     21 O2B       -22.5900   59.0650    3.2150 O.co2     1 AR6301      0.0000 
     22 C2D       -24.4500   64.7030    4.6110 C.3       1 AR6301      0.0000 
     23 O2D       -25.0470   66.0500    4.6250 O.3       1 AR6301      0.0000 
     24 C3'       -17.6750   58.4280    8.1310 C.3       1 AR6301      0.0000 
     25 O3'       -18.3520   57.6550    8.9790 O.3       1 AR6301      0.0000 
     26 O3A       -21.1710   60.2150    4.9100 O.3       1 AR6301      0.0000 
     27 C3D       -25.3670   63.7700    4.2960 C.3       1 AR6301      0.0000 
     28 O3D       -26.6720   64.0950    4.7750 O.3       1 AR6301      0.0000 
     29 C4'       -17.7420   57.8740    6.6460 C.3       1 AR6301      0.0000 
     30 O4'       -16.7270   58.4450    6.0480 O.3       1 AR6301      0.0000 
     31 C4D       -24.9110   62.4140    5.0520 C.3       1 AR6301      0.0000 
     32 O4D       -24.1580   62.7540    6.0560 O.3       1 AR6301      0.0000 
     33 C5'       -19.0280   58.3670    5.9960 C.3       1 AR6301      0.0000 
     34 O5'       -18.9970   59.7490    6.1400 O.3       1 AR6301      0.0000 
     35 C5D       -24.0760   61.5460    4.1590 C.3       1 AR6301      0.0000 
     36 O5D       -23.8070   60.4620    5.0140 O.3       1 AR6301      0.0000 
@<TRIPOS>BOND
     1    1    2 ar   
     2    1    6 ar   
     3    2    3 ar   
     4    3    4 ar   
     5    4    5 ar   
     6    4   10 1    
     7    5    6 ar   
     8    5    8 1    
     9    6    7 1    
    10    8    9 2    
    11    9   10 1    
    12   10   13 1    
    13   11   14 ar   
    14   11   20 ar   
    15   11   26 1    
    16   11   34 1    
    17   12   15 ar   
    18   12   21 ar   
    19   12   26 1    
    20   12   36 1    
    21   13   18 1    
    22   13   30 1    
    23   16   17 1    
    24   16   22 1    
    25   16   32 1    
    26   18   19 1    
    27   18   24 1    
    28   22   23 1    
    29   22   27 1    
    30   24   25 1    
    31   24   29 1    
    32   27   28 1    
    33   27   31 1    
    34   29   30 1    
    35   29   33 1    
    36   31   32 1    
    37   31   35 1    
    38   33   34 1    
    39   35   36 1    
@<TRIPOS>SUBSTRUCTURE
     1 AR6301      1 GROUP   
@<TRIPOS>SET

