#    Name: 5zdc_1_AR6
#    Modification time : Fri May 22 19:26:15 2020

@<TRIPOS>MOLECULE
5zdc_1_AR6
   36    39     1     0     0
SMALL
NO_CHARGES


@<TRIPOS>ATOM
      1 N1         -7.8790   72.1880  -39.8650 N.ar      1 AR6301      0.0000 
      2 C2         -6.6980   72.7780  -39.5780 C.ar      1 AR6301      0.0000 
      3 N3         -6.3490   73.9300  -40.1880 N.ar      1 AR6301      0.0000 
      4 C4         -7.1750   74.4600  -41.1040 C.ar      1 AR6301      0.0000 
      5 C5         -8.3430   73.8780  -41.3930 C.ar      1 AR6301      0.0000 
      6 C6         -8.6890   72.7030  -40.7600 C.ar      1 AR6301      0.0000 
      7 N6         -9.8320   71.7920  -40.7820 N.pl3     1 AR6301      0.0000 
      8 N7         -8.9640   74.6260  -42.3160 N.2       1 AR6301      0.0000 
      9 C8         -8.1710   75.6660  -42.5850 C.2       1 AR6301      0.0000 
     10 N9         -7.0610   75.5680  -41.8390 N.pl3     1 AR6301      0.0000 
     11 PA         -9.5810   79.9310  -40.7510 P.3       1 AR6301      0.0000 
     12 PB         -9.5840   82.4330  -39.1470 P.3       1 AR6301      0.0000 
     13 C1'        -5.9550   76.4720  -41.8590 C.3       1 AR6301      0.0000 
     14 O1A        -9.4900   80.7600  -41.9960 O.co2     1 AR6301      0.0000 
     15 O1B        -8.5010   83.2570  -39.7720 O.co2     1 AR6301      0.0000 
     16 C1D       -14.5000   81.0480  -40.2720 C.3       1 AR6301      0.0000 
     17 O1D       -15.4580   81.1270  -41.0980 O.3       1 AR6301      0.0000 
     18 C2'        -5.9010   77.1730  -43.0080 C.3       1 AR6301      0.0000 
     19 O2'        -4.5240   77.2990  -43.5000 O.3       1 AR6301      0.0000 
     20 O2A       -10.8540   79.1400  -40.7560 O.co2     1 AR6301      0.0000 
     21 O2B        -9.6080   82.5170  -37.6600 O.co2     1 AR6301      0.0000 
     22 C2D       -14.9820   81.4560  -38.8760 C.3       1 AR6301      0.0000 
     23 O2D       -16.4420   81.2600  -38.8160 O.3       1 AR6301      0.0000 
     24 C3'        -6.3990   78.5750  -42.6400 C.3       1 AR6301      0.0000 
     25 O3'        -5.8320   79.4810  -43.4310 O.3       1 AR6301      0.0000 
     26 O3A        -9.3770   80.8290  -39.3900 O.3       1 AR6301      0.0000 
     27 C3D       -14.6600   82.7470  -38.7280 C.3       1 AR6301      0.0000 
     28 O3D       -15.6500   83.6580  -39.2200 O.3       1 AR6301      0.0000 
     29 C4'        -5.9740   78.7570  -41.1240 C.3       1 AR6301      0.0000 
     30 O4'        -5.9830   77.5530  -40.6220 O.3       1 AR6301      0.0000 
     31 C4D       -13.3460   82.9440  -39.6450 C.3       1 AR6301      0.0000 
     32 O4D       -13.4340   82.1280  -40.6600 O.3       1 AR6301      0.0000 
     33 C5'        -7.0210   79.5750  -40.3630 C.3       1 AR6301      0.0000 
     34 O5'        -8.2630   78.9610  -40.5820 O.3       1 AR6301      0.0000 
     35 C5D       -12.1410   82.5880  -38.8210 C.3       1 AR6301      0.0000 
     36 O5D       -11.0730   82.8280  -39.6970 O.3       1 AR6301      0.0000 
@<TRIPOS>BOND
     1    1    2 ar   
     2    1    6 ar   
     3    2    3 ar   
     4    3    4 ar   
     5    4    5 ar   
     6    4   10 1    
     7    5    6 ar   
     8    5    8 1    
     9    6    7 1    
    10    8    9 2    
    11    9   10 1    
    12   10   13 1    
    13   11   14 ar   
    14   11   20 ar   
    15   11   26 1    
    16   11   34 1    
    17   12   15 ar   
    18   12   21 ar   
    19   12   26 1    
    20   12   36 1    
    21   13   18 1    
    22   13   30 1    
    23   16   17 1    
    24   16   22 1    
    25   16   32 1    
    26   18   19 1    
    27   18   24 1    
    28   22   23 1    
    29   22   27 1    
    30   24   25 1    
    31   24   29 1    
    32   27   28 1    
    33   27   31 1    
    34   29   30 1    
    35   29   33 1    
    36   31   32 1    
    37   31   35 1    
    38   33   34 1    
    39   35   36 1    
@<TRIPOS>SUBSTRUCTURE
     1 AR6301      1 GROUP   
@<TRIPOS>SET

