#    Name: 5zdc_4_AR6
#    Modification time : Fri May 22 19:26:26 2020

@<TRIPOS>MOLECULE
5zdc_4_AR6
   36    39     1     0     0
SMALL
NO_CHARGES


@<TRIPOS>ATOM
      1 N1        -48.6410   82.8010  -38.4900 N.ar      1 AR6301      0.0000 
      2 C2        -47.5250   83.5040  -38.8000 C.ar      1 AR6301      0.0000 
      3 N3        -46.3640   83.2010  -38.1940 N.ar      1 AR6301      0.0000 
      4 C4        -46.3150   82.2050  -37.3010 C.ar      1 AR6301      0.0000 
      5 C5        -47.4180   81.5110  -37.0070 C.ar      1 AR6301      0.0000 
      6 C6        -48.5960   81.8100  -37.6170 C.ar      1 AR6301      0.0000 
      7 N6        -49.9500   81.2720  -37.5190 N.pl3     1 AR6301      0.0000 
      8 N7        -47.1260   80.5880  -36.0990 N.2       1 AR6301      0.0000 
      9 C8        -45.8140   80.7150  -35.8500 C.2       1 AR6301      0.0000 
     10 N9        -45.2950   81.7050  -36.5890 N.pl3     1 AR6301      0.0000 
     11 PA        -43.1930   77.1310  -37.3740 P.3       1 AR6301      0.0000 
     12 PB        -41.2290   75.7110  -39.0960 P.3       1 AR6301      0.0000 
     13 C1'       -43.9390   82.1570  -36.5640 C.3       1 AR6301      0.0000 
     14 O1A       -42.4090   76.5460  -36.2400 O.co2     1 AR6301      0.0000 
     15 O1B       -39.9600   76.1500  -38.4210 O.co2     1 AR6301      0.0000 
     16 C1D       -44.9290   72.4450  -37.7580 C.3       1 AR6301      0.0000 
     17 O1D       -45.3420   71.6590  -36.8630 O.3       1 AR6301      0.0000 
     18 C2'       -43.3010   81.9050  -35.4010 C.3       1 AR6301      0.0000 
     19 O2'       -42.3640   83.0090  -35.1390 O.3       1 AR6301      0.0000 
     20 O2A       -44.6550   76.7800  -37.2540 O.co2     1 AR6301      0.0000 
     21 O2B       -40.9870   75.7750  -40.5760 O.co2     1 AR6301      0.0000 
     22 C2D       -45.0420   71.7810  -39.1330 C.3       1 AR6301      0.0000 
     23 O2D       -46.0640   70.7160  -39.0890 O.3       1 AR6301      0.0000 
     24 C3'       -42.4640   80.6300  -35.6560 C.3       1 AR6301      0.0000 
     25 O3'       -41.3590   80.5490  -34.9040 O.3       1 AR6301      0.0000 
     26 O3A       -42.5260   76.6700  -38.8040 O.3       1 AR6301      0.0000 
     27 C3D       -43.8330   71.2560  -39.3690 C.3       1 AR6301      0.0000 
     28 O3D       -43.6880   69.9490  -38.7960 O.3       1 AR6301      0.0000 
     29 C4'       -42.0410   80.7930  -37.1720 C.3       1 AR6301      0.0000 
     30 O4'       -43.0140   81.4720  -37.7400 O.3       1 AR6301      0.0000 
     31 C4D       -42.7890   72.2340  -38.6170 C.3       1 AR6301      0.0000 
     32 O4D       -43.3870   72.6420  -37.5420 O.3       1 AR6301      0.0000 
     33 C5'       -41.9430   79.4000  -37.7920 C.3       1 AR6301      0.0000 
     34 O5'       -43.1310   78.7650  -37.4060 O.3       1 AR6301      0.0000 
     35 C5D       -42.4910   73.4460  -39.4500 C.3       1 AR6301      0.0000 
     36 O5D       -41.6140   74.1790  -38.6370 O.3       1 AR6301      0.0000 
@<TRIPOS>BOND
     1    1    2 ar   
     2    1    6 ar   
     3    2    3 ar   
     4    3    4 ar   
     5    4    5 ar   
     6    4   10 1    
     7    5    6 ar   
     8    5    8 1    
     9    6    7 1    
    10    8    9 2    
    11    9   10 1    
    12   10   13 1    
    13   11   14 ar   
    14   11   20 ar   
    15   11   26 1    
    16   11   34 1    
    17   12   15 ar   
    18   12   21 ar   
    19   12   26 1    
    20   12   36 1    
    21   13   18 1    
    22   13   30 1    
    23   16   17 1    
    24   16   22 1    
    25   16   32 1    
    26   18   19 1    
    27   18   24 1    
    28   22   23 1    
    29   22   27 1    
    30   24   25 1    
    31   24   29 1    
    32   27   28 1    
    33   27   31 1    
    34   29   30 1    
    35   29   33 1    
    36   31   32 1    
    37   31   35 1    
    38   33   34 1    
    39   35   36 1    
@<TRIPOS>SUBSTRUCTURE
     1 AR6301      1 GROUP   
@<TRIPOS>SET

