#    Name: 6bsn_1_FDA
#    Modification time : Fri May 22 19:35:34 2020

@<TRIPOS>MOLECULE
6bsn_1_FDA
   53    58     1     0     0
SMALL
NO_CHARGES


@<TRIPOS>ATOM
      1 PA         25.3540  -15.6070  -26.5040 P.3       1 FDA2001     0.0000 
      2 O1A        25.5740  -15.4280  -28.0330 O.co2     1 FDA2001     0.0000 
      3 O2A        26.4460  -15.4670  -25.6000 O.co2     1 FDA2001     0.0000 
      4 O5B        24.5040  -14.6020  -25.8230 O.3       1 FDA2001     0.0000 
      5 C5B        23.2510  -14.2570  -26.4020 C.3       1 FDA2001     0.0000 
      6 C4B        22.4240  -13.4400  -25.4130 C.3       1 FDA2001     0.0000 
      7 O4B        22.9510  -12.1580  -25.2020 O.3       1 FDA2001     0.0000 
      8 C3B        21.0040  -13.1820  -25.8040 C.3       1 FDA2001     0.0000 
      9 O3B        20.2270  -14.2820  -25.5750 O.3       1 FDA2001     0.0000 
     10 C2B        20.6470  -12.0510  -24.9270 C.3       1 FDA2001     0.0000 
     11 O2B        20.2740  -12.5050  -23.6690 O.3       1 FDA2001     0.0000 
     12 C1B        21.9280  -11.2870  -24.8510 C.3       1 FDA2001     0.0000 
     13 N9A        21.9770  -10.1310  -25.7310 N.pl3     1 FDA2001     0.0000 
     14 C8A        21.9870  -10.0970  -27.1180 C.2       1 FDA2001     0.0000 
     15 N7A        22.0260   -8.8360  -27.5220 N.2       1 FDA2001     0.0000 
     16 C5A        22.0410   -7.9920  -26.4140 C.ar      1 FDA2001     0.0000 
     17 C6A        22.0800   -6.6230  -26.2260 C.ar      1 FDA2001     0.0000 
     18 N6A        22.1250   -5.7330  -27.3530 N.pl3     1 FDA2001     0.0000 
     19 N1A        22.0880   -6.1080  -24.9870 N.ar      1 FDA2001     0.0000 
     20 C2A        22.0450   -6.8980  -23.8950 C.ar      1 FDA2001     0.0000 
     21 N3A        22.0130   -8.2490  -24.0490 N.ar      1 FDA2001     0.0000 
     22 C4A        22.0120   -8.8080  -25.2580 C.ar      1 FDA2001     0.0000 
     23 N1         16.6350  -17.9500  -21.0660 N.am      1 FDA2001     0.0000 
     24 C2         15.6840  -17.3380  -20.1930 C.2       1 FDA2001     0.0000 
     25 O2         15.4040  -16.0100  -20.3990 O.2       1 FDA2001     0.0000 
     26 N3         15.0640  -18.0910  -19.1610 N.am      1 FDA2001     0.0000 
     27 C4         15.3930  -19.4520  -18.9980 C.2       1 FDA2001     0.0000 
     28 O4         14.8180  -20.2050  -18.0080 O.2       1 FDA2001     0.0000 
     29 C4X        16.3920  -20.0840  -19.9050 C.2       1 FDA2001     0.0000 
     30 N5         16.7010  -21.4790  -19.7710 N.pl3     1 FDA2001     0.0000 
     31 C5X        17.8200  -22.0080  -20.5360 C.ar      1 FDA2001     0.0000 
     32 C6         18.2860  -23.4050  -20.2580 C.ar      1 FDA2001     0.0000 
     33 C7         19.4240  -23.8850  -20.9610 C.ar      1 FDA2001     0.0000 
     34 C7M        19.9050  -25.2850  -20.6920 C.3       1 FDA2001     0.0000 
     35 C8         20.1080  -23.0550  -21.9130 C.ar      1 FDA2001     0.0000 
     36 C8M        21.3190  -23.5360  -22.6750 C.3       1 FDA2001     0.0000 
     37 C9         19.6570  -21.7420  -22.1670 C.ar      1 FDA2001     0.0000 
     38 C9A        18.4730  -21.2260  -21.4430 C.ar      1 FDA2001     0.0000 
     39 N10        17.9590  -19.9110  -21.7710 N.pl3     1 FDA2001     0.0000 
     40 C10        16.9790  -19.3420  -20.8940 C.2       1 FDA2001     0.0000 
     41 C1'        18.3780  -19.1600  -22.9690 C.3       1 FDA2001     0.0000 
     42 C2'        19.4760  -18.1670  -22.6280 C.3       1 FDA2001     0.0000 
     43 O2'        18.9800  -17.1650  -21.8130 O.3       1 FDA2001     0.0000 
     44 C3'        20.0640  -17.5500  -23.8860 C.3       1 FDA2001     0.0000 
     45 O3'        19.0260  -16.9510  -24.5430 O.3       1 FDA2001     0.0000 
     46 C4'        20.7340  -18.5020  -24.8790 C.3       1 FDA2001     0.0000 
     47 O4'        21.2540  -19.6130  -24.2290 O.3       1 FDA2001     0.0000 
     48 C5'        21.8680  -17.8080  -25.6250 C.3       1 FDA2001     0.0000 
     49 O5'        22.7940  -17.2360  -24.7210 O.3       1 FDA2001     0.0000 
     50 P          24.3610  -17.6000  -24.6960 P.3       1 FDA2001     0.0000 
     51 O1P        25.1620  -17.4090  -23.3690 O.co2     1 FDA2001     0.0000 
     52 O2P        24.3010  -19.0500  -25.2920 O.co2     1 FDA2001     0.0000 
     53 O3P        24.8210  -16.9480  -26.1270 O.3       1 FDA2001     0.0000 
@<TRIPOS>BOND
     1    1    2 ar   
     2    1    3 ar   
     3    1    4 1    
     4    1   53 1    
     5    4    5 1    
     6    5    6 1    
     7    6    7 1    
     8    6    8 1    
     9    7   12 1    
    10    8    9 1    
    11    8   10 1    
    12   10   11 1    
    13   10   12 1    
    14   12   13 1    
    15   13   14 1    
    16   13   22 1    
    17   14   15 2    
    18   15   16 1    
    19   16   17 ar   
    20   16   22 ar   
    21   17   18 1    
    22   17   19 ar   
    23   19   20 ar   
    24   20   21 ar   
    25   21   22 ar   
    26   23   24 1    
    27   23   40 1    
    28   24   25 2    
    29   24   26 1    
    30   26   27 1    
    31   27   28 2    
    32   27   29 1    
    33   29   30 1    
    34   29   40 2    
    35   30   31 1    
    36   31   32 ar   
    37   31   38 ar   
    38   32   33 ar   
    39   33   34 1    
    40   33   35 ar   
    41   35   36 1    
    42   35   37 ar   
    43   37   38 ar   
    44   38   39 1    
    45   39   40 1    
    46   39   41 1    
    47   41   42 1    
    48   42   43 1    
    49   42   44 1    
    50   44   45 1    
    51   44   46 1    
    52   46   47 1    
    53   46   48 1    
    54   48   49 1    
    55   49   50 1    
    56   50   51 ar   
    57   50   52 ar   
    58   50   53 1    
@<TRIPOS>SUBSTRUCTURE
     1 FDA2001     1 GROUP   
@<TRIPOS>SET

