#    Name: 6bsn_2_FDA
#    Modification time : Fri May 22 19:35:42 2020

@<TRIPOS>MOLECULE
6bsn_2_FDA
   53    58     1     0     0
SMALL
NO_CHARGES


@<TRIPOS>ATOM
      1 PA         25.2460   51.3440  -66.2770 P.3       1 FDA1001     0.0000 
      2 O1A        25.2980   51.1660  -64.7270 O.co2     1 FDA1001     0.0000 
      3 O2A        26.4130   51.0880  -67.0730 O.co2     1 FDA1001     0.0000 
      4 O5B        24.4100   50.3700  -67.0370 O.3       1 FDA1001     0.0000 
      5 C5B        23.1450   49.9890  -66.5310 C.3       1 FDA1001     0.0000 
      6 C4B        22.3590   49.1290  -67.5260 C.3       1 FDA1001     0.0000 
      7 O4B        22.8750   47.8290  -67.7000 O.3       1 FDA1001     0.0000 
      8 C3B        20.9480   48.8740  -67.0970 C.3       1 FDA1001     0.0000 
      9 O3B        20.1530   49.9580  -67.3380 O.3       1 FDA1001     0.0000 
     10 C2B        20.5710   47.7150  -67.9170 C.3       1 FDA1001     0.0000 
     11 O2B        20.1790   48.1640  -69.1580 O.3       1 FDA1001     0.0000 
     12 C1B        21.8460   46.9510  -68.0080 C.3       1 FDA1001     0.0000 
     13 N9A        21.8790   45.8220  -67.0980 N.pl3     1 FDA1001     0.0000 
     14 C8A        21.9100   45.8220  -65.7110 C.2       1 FDA1001     0.0000 
     15 N7A        21.9270   44.5650  -65.2840 N.2       1 FDA1001     0.0000 
     16 C5A        21.9100   43.7030  -66.3740 C.ar      1 FDA1001     0.0000 
     17 C6A        21.9260   42.3300  -66.5300 C.ar      1 FDA1001     0.0000 
     18 N6A        21.9590   41.4780  -65.3760 N.pl3     1 FDA1001     0.0000 
     19 N1A        21.8880   41.7930  -67.7560 N.ar      1 FDA1001     0.0000 
     20 C2A        21.8640   42.5580  -68.8720 C.ar      1 FDA1001     0.0000 
     21 N3A        21.8720   43.9050  -68.7520 N.ar      1 FDA1001     0.0000 
     22 C4A        21.8780   44.4910  -67.5490 C.ar      1 FDA1001     0.0000 
     23 N1         16.5180   53.7090  -71.8240 N.am      1 FDA1001     0.0000 
     24 C2         15.5360   53.0830  -72.6730 C.2       1 FDA1001     0.0000 
     25 O2         15.2330   51.7680  -72.4590 O.2       1 FDA1001     0.0000 
     26 N3         14.9030   53.8110  -73.7090 N.am      1 FDA1001     0.0000 
     27 C4         15.2520   55.1690  -73.8950 C.2       1 FDA1001     0.0000 
     28 O4         14.6550   55.8870  -74.8910 O.2       1 FDA1001     0.0000 
     29 C4X        16.2710   55.8180  -73.0150 C.2       1 FDA1001     0.0000 
     30 N5         16.5980   57.2140  -73.1980 N.pl3     1 FDA1001     0.0000 
     31 C5X        17.7000   57.7570  -72.4240 C.ar      1 FDA1001     0.0000 
     32 C6         18.1650   59.1460  -72.7200 C.ar      1 FDA1001     0.0000 
     33 C7         19.2820   59.6630  -72.0250 C.ar      1 FDA1001     0.0000 
     34 C7M        19.7750   61.0620  -72.3040 C.3       1 FDA1001     0.0000 
     35 C8         19.9590   58.8730  -71.0500 C.ar      1 FDA1001     0.0000 
     36 C8M        21.1550   59.4240  -70.3130 C.3       1 FDA1001     0.0000 
     37 C9         19.5160   57.5580  -70.7720 C.ar      1 FDA1001     0.0000 
     38 C9A        18.3470   56.9990  -71.4910 C.ar      1 FDA1001     0.0000 
     39 N10        17.8750   55.6590  -71.1600 N.pl3     1 FDA1001     0.0000 
     40 C10        16.8730   55.0910  -72.0200 C.2       1 FDA1001     0.0000 
     41 C1'        18.3060   54.9290  -69.9400 C.3       1 FDA1001     0.0000 
     42 C2'        19.4110   53.9190  -70.2380 C.3       1 FDA1001     0.0000 
     43 O2'        18.9470   52.9040  -71.0340 O.3       1 FDA1001     0.0000 
     44 C3'        20.0080   53.2780  -68.9910 C.3       1 FDA1001     0.0000 
     45 O3'        19.0230   52.5890  -68.3100 O.3       1 FDA1001     0.0000 
     46 C4'        20.6970   54.2670  -68.0510 C.3       1 FDA1001     0.0000 
     47 O4'        21.2290   55.2820  -68.8260 O.3       1 FDA1001     0.0000 
     48 C5'        21.8270   53.6450  -67.2400 C.3       1 FDA1001     0.0000 
     49 O5'        22.7600   52.9780  -68.0660 O.3       1 FDA1001     0.0000 
     50 P          24.3150   53.3650  -68.1540 P.3       1 FDA1001     0.0000 
     51 O1P        25.0050   53.1730  -69.5470 O.co2     1 FDA1001     0.0000 
     52 O2P        24.2470   54.8500  -67.6320 O.co2     1 FDA1001     0.0000 
     53 O3P        24.9210   52.7440  -66.7510 O.3       1 FDA1001     0.0000 
@<TRIPOS>BOND
     1    1    2 ar   
     2    1    3 ar   
     3    1    4 1    
     4    1   53 1    
     5    4    5 1    
     6    5    6 1    
     7    6    7 1    
     8    6    8 1    
     9    7   12 1    
    10    8    9 1    
    11    8   10 1    
    12   10   11 1    
    13   10   12 1    
    14   12   13 1    
    15   13   14 1    
    16   13   22 1    
    17   14   15 2    
    18   15   16 1    
    19   16   17 ar   
    20   16   22 ar   
    21   17   18 1    
    22   17   19 ar   
    23   19   20 ar   
    24   20   21 ar   
    25   21   22 ar   
    26   23   24 1    
    27   23   40 1    
    28   24   25 2    
    29   24   26 1    
    30   26   27 1    
    31   27   28 2    
    32   27   29 1    
    33   29   30 1    
    34   29   40 2    
    35   30   31 1    
    36   31   32 ar   
    37   31   38 ar   
    38   32   33 ar   
    39   33   34 1    
    40   33   35 ar   
    41   35   36 1    
    42   35   37 ar   
    43   37   38 ar   
    44   38   39 1    
    45   39   40 1    
    46   39   41 1    
    47   41   42 1    
    48   42   43 1    
    49   42   44 1    
    50   44   45 1    
    51   44   46 1    
    52   46   47 1    
    53   46   48 1    
    54   48   49 1    
    55   49   50 1    
    56   50   51 ar   
    57   50   52 ar   
    58   50   53 1    
@<TRIPOS>SUBSTRUCTURE
     1 FDA1001     1 GROUP   
@<TRIPOS>SET

