#    Name: 6uqg_4_CMP
#    Modification time : Fri May 22 19:28:01 2020

@<TRIPOS>MOLECULE
6uqg_4_CMP
   22    25     1     0     1
SMALL
NO_CHARGES


@<TRIPOS>ATOM
      1 P         190.2320  174.8660  117.8320 P.3       1 CMP901      0.0000 
      2 O1P       190.2290  174.2610  116.4620 O.co2     1 CMP901      0.0000 
      3 O2P       189.0910  174.6080  118.7690 O.co2     1 CMP901      0.0000 
      4 O5'       191.5620  174.3430  118.5390 O.3       1 CMP901      0.0000 
      5 C5'       192.0440  174.9360  119.7360 C.3       1 CMP901      0.0000 
      6 C4'       191.7840  176.4060  119.6970 C.3       1 CMP901      0.0000 
      7 O4'       192.8880  177.1830  120.1890 O.3       1 CMP901      0.0000 
      8 C3'       191.6200  176.9330  118.3060 C.3       1 CMP901      0.0000 
      9 O3'       190.4330  176.4590  117.7240 O.3       1 CMP901      0.0000 
     10 C2'       191.7170  178.4280  118.5390 C.3       1 CMP901      0.0000 
     11 O2'       190.5060  178.9150  119.0870 O.3       1 CMP901      0.0000 
     12 C1'       192.7880  178.4780  119.6390 C.3       1 CMP901      0.0000 
     13 N9        194.0880  178.9140  119.1170 N.pl3     1 CMP901      0.0000 
     14 C8        194.7640  178.4100  118.0810 C.2       1 CMP901      0.0000 
     15 N7        195.9150  179.0870  117.8740 N.2       1 CMP901      0.0000 
     16 C5        195.9800  180.0520  118.7980 C.ar      1 CMP901      0.0000 
     17 C6        196.9230  181.1350  119.1540 C.ar      1 CMP901      0.0000 
     18 N6        198.0670  181.3210  118.4600 N.pl3     1 CMP901      0.0000 
     19 N1        196.6200  181.9290  120.1960 N.ar      1 CMP901      0.0000 
     20 C2        195.4890  181.7530  120.8900 C.ar      1 CMP901      0.0000 
     21 N3        194.5900  180.7930  120.6200 N.ar      1 CMP901      0.0000 
     22 C4        194.7770  179.9250  119.6100 C.ar      1 CMP901      0.0000 
@<TRIPOS>BOND
     1    1    2 ar   
     2    1    3 ar   
     3    1    4 1    
     4    1    9 1    
     5    4    5 1    
     6    5    6 1    
     7    6    7 1    
     8    6    8 1    
     9    7   12 1    
    10    8    9 1    
    11    8   10 1    
    12   10   11 1    
    13   10   12 1    
    14   12   13 1    
    15   13   14 1    
    16   13   22 1    
    17   14   15 2    
    18   15   16 1    
    19   16   17 ar   
    20   16   22 ar   
    21   17   18 1    
    22   17   19 ar   
    23   19   20 ar   
    24   20   21 ar   
    25   21   22 ar   
@<TRIPOS>SUBSTRUCTURE
     1 CMP901      1 GROUP   
@<TRIPOS>SET
ATOM$ORANGE STATIC     ATOMS   COLORGROUP SYSTEM 
20 5 5 6 6 8 8 10 10 12 12 14 14 16 16 17 17 20 \
20 22 22 

