#    Name: 6uqg_2_CMP
#    Modification time : Fri May 22 19:27:57 2020

@<TRIPOS>MOLECULE
6uqg_2_CMP
   22    25     1     0     1
SMALL
NO_CHARGES


@<TRIPOS>ATOM
      1 P         139.3600  154.7230  117.8620 P.3       1 CMP901      0.0000 
      2 O1P       139.3620  155.3270  116.4920 O.co2     1 CMP901      0.0000 
      3 O2P       140.5020  154.9810  118.7980 O.co2     1 CMP901      0.0000 
      4 O5'       138.0300  155.2450  118.5700 O.3       1 CMP901      0.0000 
      5 C5'       137.5500  154.6510  119.7670 C.3       1 CMP901      0.0000 
      6 C4'       137.8100  153.1810  119.7270 C.3       1 CMP901      0.0000 
      7 O4'       136.7070  152.4030  120.2190 O.3       1 CMP901      0.0000 
      8 C3'       137.9740  152.6540  118.3360 C.3       1 CMP901      0.0000 
      9 O3'       139.1610  153.1290  117.7530 O.3       1 CMP901      0.0000 
     10 C2'       137.8780  151.1590  118.5680 C.3       1 CMP901      0.0000 
     11 O2'       139.0900  150.6730  119.1160 O.3       1 CMP901      0.0000 
     12 C1'       136.8080  151.1080  119.6690 C.3       1 CMP901      0.0000 
     13 N9        135.5080  150.6720  119.1470 N.pl3     1 CMP901      0.0000 
     14 C8        134.8310  151.1760  118.1120 C.2       1 CMP901      0.0000 
     15 N7        133.6800  150.4980  117.9050 N.2       1 CMP901      0.0000 
     16 C5        133.6160  149.5330  118.8290 C.ar      1 CMP901      0.0000 
     17 C6        132.6740  148.4490  119.1860 C.ar      1 CMP901      0.0000 
     18 N6        131.5290  148.2630  118.4920 N.pl3     1 CMP901      0.0000 
     19 N1        132.9780  147.6550  120.2270 N.ar      1 CMP901      0.0000 
     20 C2        134.1100  147.8320  120.9210 C.ar      1 CMP901      0.0000 
     21 N3        135.0070  148.7920  120.6500 N.ar      1 CMP901      0.0000 
     22 C4        134.8200  149.6600  119.6410 C.ar      1 CMP901      0.0000 
@<TRIPOS>BOND
     1    1    2 ar   
     2    1    3 ar   
     3    1    4 1    
     4    1    9 1    
     5    4    5 1    
     6    5    6 1    
     7    6    7 1    
     8    6    8 1    
     9    7   12 1    
    10    8    9 1    
    11    8   10 1    
    12   10   11 1    
    13   10   12 1    
    14   12   13 1    
    15   13   14 1    
    16   13   22 1    
    17   14   15 2    
    18   15   16 1    
    19   16   17 ar   
    20   16   22 ar   
    21   17   18 1    
    22   17   19 ar   
    23   19   20 ar   
    24   20   21 ar   
    25   21   22 ar   
@<TRIPOS>SUBSTRUCTURE
     1 CMP901      1 GROUP   
@<TRIPOS>SET
ATOM$ORANGE STATIC     ATOMS   COLORGROUP SYSTEM 
20 5 5 6 6 8 8 10 10 12 12 14 14 16 16 17 17 20 \
20 22 22 

