#    Name: 6jzd_1_GLU_GLY_GLU_GLU_TYR_CAVITY_N1_12
#    Modification time : Fri May 22 19:36:00 2020

@<TRIPOS>MOLECULE
6jzd_1_GLU_GLY_GLU_GLU_TYR_CAVITY_N1_12
  149     0     7     0     0
SMALL
NO_CHARGES


@<TRIPOS>ATOM
      1 OG         -2.3800   28.9400  -23.8700 O.3       1 SER1        0.0000 
      2 OG         -3.5800   28.2500  -22.2600 O.3       1 SER1        0.0000 
      3 OG         -1.9900   27.0200  -21.5900 O.3       1 SER1        0.0000 
      4 OG         -1.7900   26.0700  -20.4500 O.3       1 SER1        0.0000 
      5 OG         -1.6800   29.1000  -21.8700 O.3       1 SER1        0.0000 
      6 OG         -0.0800   27.8700  -21.2000 O.3       1 SER1        0.0000 
      7 OG         -1.4800   28.1500  -20.7400 O.3       1 SER1        0.0000 
      8 OG          0.5000   25.0000  -17.7900 O.3       1 SER1        0.0000 
      9 OG         -0.9000   25.2800  -17.3200 O.3       1 SER1        0.0000 
     10 OG          1.0100   26.1300  -16.9300 O.3       1 SER1        0.0000 
     11 OG         -0.3900   26.4000  -16.4600 O.3       1 SER1        0.0000 
     12 OG          1.2000   25.1700  -15.7900 O.3       1 SER1        0.0000 
     13 OG          3.1000   26.0200  -15.4000 O.3       1 SER1        0.0000 
     14 OG          1.7100   26.2900  -14.9400 O.3       1 SER1        0.0000 
     15 OG          3.4100   28.1000  -15.6800 O.3       1 SER1        0.0000 
     16 OG          3.6100   27.1400  -14.5500 O.3       1 SER1        0.0000 
     17 OG          4.1100   28.2600  -13.6900 O.3       1 SER1        0.0000 
     18 N         -10.3800   27.4500  -27.7000 N.am      2 ALA2        0.0000 
     19 N          -8.7900   26.2200  -27.0300 N.am      2 ALA2        0.0000 
     20 N         -10.1900   26.4900  -26.5700 N.am      2 ALA2        0.0000 
     21 N          -9.9900   25.5300  -25.4300 N.am      2 ALA2        0.0000 
     22 N          -9.8800   28.5700  -26.8500 N.am      2 ALA2        0.0000 
     23 N          -9.6800   27.6100  -25.7100 N.am      2 ALA2        0.0000 
     24 N          -8.0900   26.3900  -25.0400 N.am      2 ALA2        0.0000 
     25 N          -4.2800   28.0900  -24.2600 N.am      2 ALA2        0.0000 
     26 N          -3.7800   29.2100  -23.4000 N.am      2 ALA2        0.0000 
     27 N          -7.3500   34.1800  -22.5600 N.am      2 ALA2        0.0000 
     28 N           3.8000   25.5800  -17.8700 N.am      2 ALA2        0.0000 
     29 N          -7.0400   36.2600  -22.8400 N.am      2 ALA2        0.0000 
     30 N          -6.8500   35.3100  -21.7000 N.am      2 ALA2        0.0000 
     31 N           4.1100   27.6600  -18.1500 N.am      2 ALA2        0.0000 
     32 N           2.9100   26.9800  -16.5400 N.am      2 ALA2        0.0000 
     33 N          -4.7500   35.2000  -20.1800 N.am      2 ALA2        0.0000 
     34 N          -4.5500   34.2400  -19.0400 N.am      2 ALA2        0.0000 
     35 N           6.0200   28.5100  -17.7600 N.am      2 ALA2        0.0000 
     36 N           4.6200   28.7800  -17.2900 N.am      2 ALA2        0.0000 
     37 N           4.8100   27.8300  -16.1500 N.am      2 ALA2        0.0000 
     38 N           5.0100   26.8700  -15.0100 N.am      2 ALA2        0.0000 
     39 N           8.0000   25.3700  -14.8100 N.am      2 ALA2        0.0000 
     40 N           6.6000   25.6400  -14.3400 N.am      2 ALA2        0.0000 
     41 N           6.7200   28.6800  -15.7600 N.am      2 ALA2        0.0000 
     42 N           5.3200   28.9500  -15.3000 N.am      2 ALA2        0.0000 
     43 N           8.3100   27.4500  -15.0900 N.am      2 ALA2        0.0000 
     44 N           6.9100   27.7200  -14.6200 N.am      2 ALA2        0.0000 
     45 N           5.5100   27.9900  -14.1600 N.am      2 ALA2        0.0000 
     46 OD1        -4.9800   28.5200  -21.8000 O.co2     3 ASP3        0.0000 
     47 OD1        -3.3900   27.3000  -21.1200 O.co2     3 ASP3        0.0000 
     48 OD1        -4.6700   30.6000  -22.0800 O.co2     3 ASP3        0.0000 
     49 OD1        -3.0800   29.3700  -21.4100 O.co2     3 ASP3        0.0000 
     50 OD1        -2.8800   28.4200  -20.2700 O.co2     3 ASP3        0.0000 
     51 OD1        -1.2900   27.1900  -19.6000 O.co2     3 ASP3        0.0000 
     52 OD1        -2.4900   26.5000  -17.9900 O.co2     3 ASP3        0.0000 
     53 OD1        -4.1600   31.7300  -21.2200 O.co2     3 ASP3        0.0000 
     54 OD1        -2.5700   30.5000  -20.5500 O.co2     3 ASP3        0.0000 
     55 OD1        -2.3800   29.5400  -19.4100 O.co2     3 ASP3        0.0000 
     56 OD1         1.3200   28.2100  -17.2100 O.co2     3 ASP3        0.0000 
     57 OD1         1.5100   27.2500  -16.0700 O.co2     3 ASP3        0.0000 
     58 OD1         0.0300   31.5100  -18.1600 O.co2     3 ASP3        0.0000 
     59 OD1         1.6300   30.2800  -17.4900 O.co2     3 ASP3        0.0000 
     60 OD1         3.2200   29.0600  -16.8200 O.co2     3 ASP3        0.0000 
     61 OD1         2.0200   28.3700  -15.2200 O.co2     3 ASP3        0.0000 
     62 OD1         3.7200   30.1800  -15.9700 O.co2     3 ASP3        0.0000 
     63 OD1         3.9200   29.2200  -14.8300 O.co2     3 ASP3        0.0000 
     64 NZ         -5.5600   32.0000  -20.7500 N.4       4 LYS4        0.0000 
     65 NZ         -5.0600   33.1200  -19.9000 N.4       4 LYS4        0.0000 
     66 NZ         -6.4600   33.3900  -19.4300 N.4       4 LYS4        0.0000 
     67 NZ         -3.4700   31.8900  -19.2200 N.4       4 LYS4        0.0000 
     68 CZ         -8.4800   28.3000  -27.3100 C.ar      5 PHE5        0.0000 
     69 CZ         -8.2800   27.3400  -26.1800 C.ar      5 PHE5        0.0000 
     70 CZ         -9.4900   26.6600  -24.5700 C.ar      5 PHE5        0.0000 
     71 CZ         -6.3800   28.1900  -25.7900 C.ar      5 PHE5        0.0000 
     72 CZ         -7.7800   28.4600  -25.3200 C.ar      5 PHE5        0.0000 
     73 CZ         -4.4800   29.0400  -25.4000 C.ar      5 PHE5        0.0000 
     74 CZ         -5.8700   29.3200  -24.9300 C.ar      5 PHE5        0.0000 
     75 CZ         -7.2700   29.5900  -24.4600 C.ar      5 PHE5        0.0000 
     76 CZ         -5.6800   28.3600  -23.7900 C.ar      5 PHE5        0.0000 
     77 CZ         -5.5600   31.3900  -25.2100 C.ar      5 PHE5        0.0000 
     78 CZ         -3.9700   30.1700  -24.5400 C.ar      5 PHE5        0.0000 
     79 CZ         -5.3700   30.4400  -24.0700 C.ar      5 PHE5        0.0000 
     80 CZ         -6.7700   30.7100  -23.6100 C.ar      5 PHE5        0.0000 
     81 CZ         -5.1700   29.4800  -22.9300 C.ar      5 PHE5        0.0000 
     82 CZ         -0.3900   25.7900  -20.9200 C.ar      5 PHE5        0.0000 
     83 CZ          1.2000   24.5700  -20.2500 C.ar      5 PHE5        0.0000 
     84 CZ         -3.8600   33.2000  -25.9600 C.ar      5 PHE5        0.0000 
     85 CZ         -5.2500   33.4700  -25.4900 C.ar      5 PHE5        0.0000 
     86 CZ         -5.0600   32.5200  -24.3500 C.ar      5 PHE5        0.0000 
     87 CZ         -6.4600   32.7900  -23.8900 C.ar      5 PHE5        0.0000 
     88 CZ         -3.4700   31.2900  -23.6800 C.ar      5 PHE5        0.0000 
     89 CZ         -6.2600   31.8300  -22.7500 C.ar      5 PHE5        0.0000 
     90 CZ         -7.6600   32.1000  -22.2800 C.ar      5 PHE5        0.0000 
     91 CZ         -1.8700   30.0600  -23.0100 C.ar      5 PHE5        0.0000 
     92 CZ         -3.2700   30.3300  -22.5500 C.ar      5 PHE5        0.0000 
     93 CZ         -6.0700   30.8800  -21.6100 C.ar      5 PHE5        0.0000 
     94 CZ          1.5100   26.6400  -20.5300 C.ar      5 PHE5        0.0000 
     95 CZ          0.1100   26.9200  -20.0700 C.ar      5 PHE5        0.0000 
     96 CZ         -6.1500   34.8700  -24.1700 C.ar      5 PHE5        0.0000 
     97 CZ         -1.5600   32.1400  -23.2900 C.ar      5 PHE5        0.0000 
     98 CZ         -2.9600   32.4100  -22.8300 C.ar      5 PHE5        0.0000 
     99 CZ         -1.3700   31.1800  -22.1600 C.ar      5 PHE5        0.0000 
    100 CZ         -1.1700   30.2300  -21.0200 C.ar      5 PHE5        0.0000 
    101 CZ          0.4200   29.0000  -20.3500 C.ar      5 PHE5        0.0000 
    102 CZ          2.0200   27.7700  -19.6800 C.ar      5 PHE5        0.0000 
    103 CZ          0.6200   28.0400  -19.2100 C.ar      5 PHE5        0.0000 
    104 CZ          0.9300   30.1200  -19.4900 C.ar      5 PHE5        0.0000 
    105 CZ         -0.4700   30.3900  -19.0200 C.ar      5 PHE5        0.0000 
    106 CZ          2.5200   28.8900  -18.8200 C.ar      5 PHE5        0.0000 
    107 CZ          1.1200   29.1600  -18.3500 C.ar      5 PHE5        0.0000 
    108 CZ          2.7100   27.9300  -17.6800 C.ar      5 PHE5        0.0000 
    109 CZ          4.4200   29.7400  -18.4300 C.ar      5 PHE5        0.0000 
    110 CZ          3.0300   30.0100  -17.9600 C.ar      5 PHE5        0.0000 
    111 CA         -8.9800   27.1800  -28.1700 C.3       6 GLY6        0.0000 
    112 CA         -6.1900   27.2400  -24.6500 C.3       6 GLY6        0.0000 
    113 CA         -0.2000   24.8400  -19.7800 C.3       6 GLY6        0.0000 
    114 CA         -1.6000   25.1100  -19.3200 C.3       6 GLY6        0.0000 
    115 CA         -1.4000   24.1500  -18.1800 C.3       6 GLY6        0.0000 
    116 CA          3.1000   25.4200  -19.8600 C.3       6 GLY6        0.0000 
    117 CA         -1.0900   26.2300  -18.4600 C.3       6 GLY6        0.0000 
    118 CA          1.9000   24.7300  -18.2600 C.3       6 GLY6        0.0000 
    119 CA         -7.5500   35.1400  -23.7000 C.3       6 GLY6        0.0000 
    120 CA         -5.9500   33.9100  -23.0300 C.3       6 GLY6        0.0000 
    121 CA         -7.1600   33.2300  -21.4200 C.3       6 GLY6        0.0000 
    122 CA         -6.9600   32.2700  -20.2800 C.3       6 GLY6        0.0000 
    123 CA         -0.7800   28.3100  -18.7400 C.3       6 GLY6        0.0000 
    124 CA         -2.1800   28.5800  -18.2700 C.3       6 GLY6        0.0000 
    125 CA          3.6100   26.5400  -19.0100 C.3       6 GLY6        0.0000 
    126 CA         -0.5900   27.3500  -17.6000 C.3       6 GLY6        0.0000 
    127 CA         -1.9900   27.6300  -17.1300 C.3       6 GLY6        0.0000 
    128 CA          2.4000   25.8500  -17.4000 C.3       6 GLY6        0.0000 
    129 CA         -6.6500   34.3500  -20.5700 C.3       6 GLY6        0.0000 
    130 CA         -1.8700   30.6600  -18.5500 C.3       6 GLY6        0.0000 
    131 CA         -0.2800   29.4300  -17.8800 C.3       6 GLY6        0.0000 
    132 CA         -0.0800   28.4800  -16.7400 C.3       6 GLY6        0.0000 
    133 CA          0.1100   27.5200  -15.6100 C.3       6 GLY6        0.0000 
    134 CA          5.2000   25.9100  -13.8800 C.3       6 GLY6        0.0000 
    135 DU         -4.8600   31.5600  -23.2200 H         7 CUB7        0.0000 
    136 DU          1.7000   25.6900  -19.3900 H         7 CUB7        0.0000 
    137 DU          0.3100   25.9600  -18.9300 H         7 CUB7        0.0000 
    138 DU         -4.5500   33.6400  -23.5000 H         7 CUB7        0.0000 
    139 DU         -4.3600   32.6800  -22.3600 H         7 CUB7        0.0000 
    140 DU         -5.7600   32.9600  -21.8900 H         7 CUB7        0.0000 
    141 DU         -2.7700   31.4500  -21.6900 H         7 CUB7        0.0000 
    142 DU         -0.9800   29.2700  -19.8800 H         7 CUB7        0.0000 
    143 DU          2.2100   26.8100  -18.5400 H         7 CUB7        0.0000 
    144 DU          0.8100   27.0800  -18.0700 H         7 CUB7        0.0000 
    145 DU         -5.4500   35.0300  -22.1700 H         7 CUB7        0.0000 
    146 DU         -5.2500   34.0800  -21.0300 H         7 CUB7        0.0000 
    147 DU         -3.6600   32.8500  -20.3600 H         7 CUB7        0.0000 
    148 DU          8.5100   26.4900  -13.9500 H         7 CUB7        0.0000 
    149 DU          7.4200   28.8400  -13.7700 H         7 CUB7        0.0000 
@<TRIPOS>BOND
@<TRIPOS>SUBSTRUCTURE
     1 SER1        1 GROUP   
     2 ALA2       18 GROUP   
     3 ASP3       46 GROUP   
     4 LYS4       64 GROUP   
     5 PHE5       68 GROUP   
     6 GLY6      111 GROUP   
     7 CUB7      135 GROUP   
@<TRIPOS>SET

