#    Name: 6jzd_1_GLU_GLY_GLU_GLU_TYR
#    Modification time : Fri May 22 19:35:59 2020

@<TRIPOS>MOLECULE
6jzd_1_GLU_GLY_GLU_GLU_TYR
   43    43     5     0     0
SMALL
NO_CHARGES


@<TRIPOS>ATOM
      1 N          -4.8150   37.3960  -24.3280 N.4       1 GLU11       0.0000 
      2 CA         -4.5560   36.5170  -23.1600 C.3       1 GLU11       0.0000 
      3 C          -3.4010   35.5780  -23.4880 C.2       1 GLU11       0.0000 
      4 O          -3.1250   35.3730  -24.6740 O.2       1 GLU11       0.0000 
      5 CB         -5.7660   35.6310  -22.8470 C.3       1 GLU11       0.0000 
      6 CG         -5.7770   35.0660  -21.4390 C.3       1 GLU11       0.0000 
      7 CD         -6.2530   33.6270  -21.3800 C.2       1 GLU11       0.0000 
      8 OE1        -6.1490   32.9910  -20.3300 O.co2     1 GLU11       0.0000 
      9 OE2        -6.7140   33.1540  -22.3990 O.co2     1 GLU11       0.0000 
     10 N          -2.6770   35.0990  -22.4960 N.am      2 GLY12       0.0000 
     11 CA         -1.7290   34.0150  -22.6830 C.3       2 GLY12       0.0000 
     12 C          -2.1940   32.8630  -21.8180 C.2       2 GLY12       0.0000 
     13 O          -2.6290   33.0730  -20.6810 O.2       2 GLY12       0.0000 
     14 N          -2.1400   31.6580  -22.3710 N.am      3 GLU13       0.0000 
     15 CA         -2.4530   30.4440  -21.6160 C.3       3 GLU13       0.0000 
     16 C          -1.2430   30.0600  -20.7810 C.2       3 GLU13       0.0000 
     17 O          -0.2940   29.4810  -21.3120 O.2       3 GLU13       0.0000 
     18 CB         -2.8020   29.3050  -22.5620 C.3       3 GLU13       0.0000 
     19 CG         -3.7400   29.6900  -23.6550 C.3       3 GLU13       0.0000 
     20 CD         -4.9890   28.8680  -23.6260 C.2       3 GLU13       0.0000 
     21 OE1        -5.8620   29.1090  -24.4870 O.co2     3 GLU13       0.0000 
     22 OE2        -5.0920   27.9830  -22.7420 O.co2     3 GLU13       0.0000 
     23 N          -1.2520   30.3400  -19.4740 N.am      4 GLU14       0.0000 
     24 CA         -0.0380   29.9140  -18.7510 C.3       4 GLU14       0.0000 
     25 C          -0.1080   28.4430  -18.3330 C.2       4 GLU14       0.0000 
     26 O          -1.1850   27.8850  -18.3070 O.2       4 GLU14       0.0000 
     27 CB          0.2960   30.9480  -17.6860 C.3       4 GLU14       0.0000 
     28 CG          0.3310   32.3560  -18.2420 C.3       4 GLU14       0.0000 
     29 CD          1.1830   33.3780  -17.5190 C.2       4 GLU14       0.0000 
     30 OE1         1.9680   32.9950  -16.6580 O.co2     4 GLU14       0.0000 
     31 OE2         1.0580   34.5530  -17.8440 O.co2     4 GLU14       0.0000 
     32 N           1.0690   27.8470  -18.0940 N.am      5 TYR15       0.0000 
     33 CA          1.1400   26.4400  -17.6080 C.3       5 TYR15       0.0000 
     34 C           0.3300   25.5050  -18.5190 C.2       5 TYR15       0.0000 
     35 O           0.6080   25.5120  -19.7340 O.2       5 TYR15       0.0000 
     36 CB          0.7310   26.3480  -16.1370 C.3       5 TYR15       0.0000 
     37 CG          1.8650   26.5600  -15.1650 C.ar      5 TYR15       0.0000 
     38 CD1         2.6570   27.6950  -15.2270 C.ar      5 TYR15       0.0000 
     39 CD2         2.1520   25.6250  -14.1850 C.ar      5 TYR15       0.0000 
     40 CE1         3.7010   27.8980  -14.3410 C.ar      5 TYR15       0.0000 
     41 CE2         3.1920   25.8110  -13.2900 C.ar      5 TYR15       0.0000 
     42 CZ          3.9710   26.9530  -13.3680 C.ar      5 TYR15       0.0000 
     43 OH          4.9980   27.1450  -12.4900 O.3       5 TYR15       0.0000 
@<TRIPOS>BOND
     1    1    2 1    
     2    2    3 1    
     3    2    5 1    
     4    3    4 2    
     5    3   10 am   
     6    5    6 1    
     7    6    7 1    
     8    7    8 ar   
     9    7    9 ar   
    10   10   11 1    
    11   11   12 1    
    12   12   13 2    
    13   12   14 am   
    14   14   15 1    
    15   15   16 1    
    16   15   18 1    
    17   16   17 2    
    18   16   23 am   
    19   18   19 1    
    20   19   20 1    
    21   20   21 ar   
    22   20   22 ar   
    23   23   24 1    
    24   24   25 1    
    25   24   27 1    
    26   25   26 2    
    27   25   32 am   
    28   27   28 1    
    29   28   29 1    
    30   29   30 ar   
    31   29   31 ar   
    32   32   33 1    
    33   33   34 1    
    34   33   36 1    
    35   34   35 2    
    36   36   37 1    
    37   37   38 ar   
    38   37   39 ar   
    39   38   40 ar   
    40   39   41 ar   
    41   40   42 ar   
    42   41   42 ar   
    43   42   43 1    
@<TRIPOS>SUBSTRUCTURE
     1 GLU11       1 RESIDUE 
     2 GLY12      10 RESIDUE 
     3 GLU13      14 RESIDUE 
     4 GLU14      23 RESIDUE 
     5 TYR15      32 RESIDUE 
@<TRIPOS>SET

