#    Name: 5n0n_1_SAH
#    Modification time : Fri May 22 19:14:28 2020

@<TRIPOS>MOLECULE
5n0n_1_SAH
   26    28     1     0     0
SMALL
NO_CHARGES


@<TRIPOS>ATOM
      1 N         -88.7010  197.2730   28.1130 N.4       1 SAH501      0.0000 
      2 CA        -90.1190  196.8960   27.8130 C.3       1 SAH501      0.0000 
      3 CB        -90.6090  197.5160   26.4890 C.3       1 SAH501      0.0000 
      4 CG        -90.5730  199.0540   26.4380 C.3       1 SAH501      0.0000 
      5 SD        -91.1430  199.7280   24.8820 S.3       1 SAH501      0.0000 
      6 C         -90.2140  195.3920   27.7460 C.2       1 SAH501      0.0000 
      7 O         -91.1960  194.8110   27.2590 O.co2     1 SAH501      0.0000 
      8 OXT       -89.2950  194.6910   28.1760 O.co2     1 SAH501      0.0000 
      9 C5'       -92.9010  199.9210   25.0620 C.3       1 SAH501      0.0000 
     10 C4'       -93.6930  198.8740   24.2670 C.3       1 SAH501      0.0000 
     11 O4'       -93.6290  197.6150   24.9560 O.3       1 SAH501      0.0000 
     12 C3'       -95.1940  199.1070   24.1070 C.3       1 SAH501      0.0000 
     13 O3'       -95.5810  200.0070   23.0550 O.3       1 SAH501      0.0000 
     14 C2'       -95.7090  197.6980   23.8660 C.3       1 SAH501      0.0000 
     15 O2'       -95.5140  197.2830   22.4960 O.3       1 SAH501      0.0000 
     16 C1'       -94.8450  196.8700   24.8090 C.3       1 SAH501      0.0000 
     17 N9        -95.5540  196.7010   26.1120 N.pl3     1 SAH501      0.0000 
     18 C8        -95.3360  197.3920   27.2560 C.2       1 SAH501      0.0000 
     19 N7        -96.1710  196.9820   28.2450 N.2       1 SAH501      0.0000 
     20 C5        -96.9520  196.0100   27.7260 C.ar      1 SAH501      0.0000 
     21 C6        -98.0560  195.1550   28.2140 C.ar      1 SAH501      0.0000 
     22 N6        -98.4990  195.2690   29.4950 N.pl3     1 SAH501      0.0000 
     23 N1        -98.5980  194.2640   27.3470 N.ar      1 SAH501      0.0000 
     24 C2        -98.1610  194.1470   26.0600 C.ar      1 SAH501      0.0000 
     25 N3        -97.1680  194.9030   25.5520 N.ar      1 SAH501      0.0000 
     26 C4        -96.5380  195.8300   26.3240 C.ar      1 SAH501      0.0000 
@<TRIPOS>BOND
     1    1    2 1    
     2    2    3 1    
     3    2    6 1    
     4    3    4 1    
     5    4    5 1    
     6    5    9 1    
     7    6    7 ar   
     8    6    8 ar   
     9    9   10 1    
    10   10   11 1    
    11   10   12 1    
    12   11   16 1    
    13   12   13 1    
    14   12   14 1    
    15   14   15 1    
    16   14   16 1    
    17   16   17 1    
    18   17   18 1    
    19   17   26 1    
    20   18   19 2    
    21   19   20 1    
    22   20   21 ar   
    23   20   26 ar   
    24   21   22 1    
    25   21   23 ar   
    26   23   24 ar   
    27   24   25 ar   
    28   25   26 ar   
@<TRIPOS>SUBSTRUCTURE
     1 SAH501      1 GROUP   
@<TRIPOS>SET

