#    Name: 5n0n_1_SAH_CAVITY_N1_4
#    Modification time : Fri May 22 19:14:30 2020

@<TRIPOS>MOLECULE
5n0n_1_SAH_CAVITY_N1_4
   70     0     5     0     0
SMALL
NO_CHARGES


@<TRIPOS>ATOM
      1 OG        -95.1100  196.3300   24.9200 O.3       1 SER1        0.0000 
      2 OG        -95.2800  197.3100   23.8000 O.3       1 SER1        0.0000 
      3 OG        -92.3100  197.9300   25.8700 O.3       1 SER1        0.0000 
      4 OG        -93.6000  198.4100   26.4800 O.3       1 SER1        0.0000 
      5 OG        -93.7700  199.3800   25.3500 O.3       1 SER1        0.0000 
      6 OG        -94.8800  198.8900   27.0900 O.3       1 SER1        0.0000 
      7 OG        -91.5600  198.9600   26.6400 O.3       1 SER1        0.0000 
      8 OG        -91.7300  199.9400   25.5100 O.3       1 SER1        0.0000 
      9 OG        -90.8000  200.0000   27.4200 O.3       1 SER1        0.0000 
     10 OG        -90.9700  200.9700   26.2900 O.3       1 SER1        0.0000 
     11 OG        -92.4300  202.4200   25.7700 O.3       1 SER1        0.0000 
     12 OG        -90.2200  202.0100   27.0700 O.3       1 SER1        0.0000 
     13 OG        -91.5000  202.4900   27.6800 O.3       1 SER1        0.0000 
     14 O         -98.0900  194.3100   27.6300 O.2       2 ALA2        0.0000 
     15 O         -95.4600  198.2800   22.6700 O.2       2 ALA2        0.0000 
     16 N         -96.3900  196.8100   25.5400 N.am      2 ALA2        0.0000 
     17 N         -97.3300  195.3500   28.4000 N.am      2 ALA2        0.0000 
     18 N         -97.5000  196.3200   27.2700 N.am      2 ALA2        0.0000 
     19 O         -91.4400  194.4700   26.7400 O.2       2 ALA2        0.0000 
     20 N         -95.8100  198.8200   25.1800 N.am      2 ALA2        0.0000 
     21 O         -90.6800  195.5000   27.5100 O.2       2 ALA2        0.0000 
     22 N         -92.6600  199.8700   23.6100 N.am      2 ALA2        0.0000 
     23 N         -93.9400  200.3500   24.2200 N.am      2 ALA2        0.0000 
     24 N         -95.0500  199.8600   25.9600 N.am      2 ALA2        0.0000 
     25 N         -95.4000  201.8000   23.7000 N.am      2 ALA2        0.0000 
     26 N         -90.1000  197.5100   27.1600 N.am      2 ALA2        0.0000 
     27 N         -90.2700  198.4800   26.0300 N.am      2 ALA2        0.0000 
     28 N         -90.4500  199.4600   24.9000 N.am      2 ALA2        0.0000 
     29 N         -91.9000  200.9100   24.3900 N.am      2 ALA2        0.0000 
     30 N         -93.1900  201.3900   25.0000 N.am      2 ALA2        0.0000 
     31 N         -93.3600  202.3600   23.8700 N.am      2 ALA2        0.0000 
     32 N         -94.4700  201.8700   25.6100 N.am      2 ALA2        0.0000 
     33 N         -94.6400  202.8400   24.4800 N.am      2 ALA2        0.0000 
     34 N         -94.8200  203.8100   23.3500 N.am      2 ALA2        0.0000 
     35 N         -95.9300  203.3200   25.0900 N.am      2 ALA2        0.0000 
     36 N         -88.7500  201.9600   22.8100 N.am      2 ALA2        0.0000 
     37 N         -89.5200  199.5200   26.8100 N.am      2 ALA2        0.0000 
     38 N         -91.1500  201.9500   25.1600 N.am      2 ALA2        0.0000 
     39 N         -92.6000  203.4000   24.6400 N.am      2 ALA2        0.0000 
     40 N         -89.1100  202.5000   25.3300 N.am      2 ALA2        0.0000 
     41 N         -90.3900  202.9800   25.9400 N.am      2 ALA2        0.0000 
     42 CZ        -93.0700  196.8900   25.0900 C.ar      3 PHE5        0.0000 
     43 CZ        -93.2400  197.8600   23.9600 C.ar      3 PHE5        0.0000 
     44 CZ        -90.8600  196.4800   26.3800 C.ar      3 PHE5        0.0000 
     45 CZ        -91.0300  197.4500   25.2600 C.ar      3 PHE5        0.0000 
     46 CZ        -92.1400  196.9500   27.0000 C.ar      3 PHE5        0.0000 
     47 CZ        -92.4900  198.9000   24.7400 C.ar      3 PHE5        0.0000 
     48 CZ        -93.4200  197.4300   27.6100 C.ar      3 PHE5        0.0000 
     49 CZ        -94.5300  196.9400   29.3500 C.ar      3 PHE5        0.0000 
     50 CZ        -94.7100  197.9100   28.2200 C.ar      3 PHE5        0.0000 
     51 CZ        -91.3800  197.9900   27.7700 C.ar      3 PHE5        0.0000 
     52 CZ        -90.0400  201.0400   28.2000 C.ar      3 PHE5        0.0000 
     53 CA        -96.0500  194.8700   27.7900 C.3       4 GLY6        0.0000 
     54 CA        -96.2200  195.8400   26.6600 C.3       4 GLY6        0.0000 
     55 CA        -96.5700  197.7900   24.4100 C.3       4 GLY6        0.0000 
     56 CA        -92.9000  195.9200   26.2200 C.3       4 GLY6        0.0000 
     57 CA        -93.4200  198.8400   22.8300 C.3       4 GLY6        0.0000 
     58 CA        -94.0100  195.4300   27.9600 C.3       4 GLY6        0.0000 
     59 CA        -94.1800  196.4000   26.8300 C.3       4 GLY6        0.0000 
     60 CA        -94.7000  199.3200   23.4400 C.3       4 GLY6        0.0000 
     61 CA        -95.2900  195.9000   28.5700 C.3       4 GLY6        0.0000 
     62 CA        -95.4600  196.8800   27.4400 C.3       4 GLY6        0.0000 
     63 CA        -95.6400  197.8500   26.3100 C.3       4 GLY6        0.0000 
     64 CA        -96.7500  197.3600   28.0500 C.3       4 GLY6        0.0000 
     65 CA        -91.2000  198.4200   24.1300 C.3       4 GLY6        0.0000 
     66 CA        -91.9700  195.9800   28.1200 C.3       4 GLY6        0.0000 
     67 CA        -93.2500  196.4600   28.7300 C.3       4 GLY6        0.0000 
     68 CA        -94.1200  201.3200   23.0900 C.3       4 GLY6        0.0000 
     69 DU        -94.3500  197.3700   25.7000 H         5 CUB7        0.0000 
     70 DU        -94.5300  198.3400   24.5700 H         5 CUB7        0.0000 
@<TRIPOS>BOND
@<TRIPOS>SUBSTRUCTURE
     1 SER1        1 GROUP   
     2 ALA2       14 GROUP   
     3 PHE5       42 GROUP   
     4 GLY6       53 GROUP   
     5 CUB7       69 GROUP   
@<TRIPOS>SET

