#    Name: 5n0n_1_SAH_CAVITY_N1_6
#    Modification time : Fri May 22 19:14:30 2020

@<TRIPOS>MOLECULE
5n0n_1_SAH_CAVITY_N1_6
  124     0     6     0     0
SMALL
NO_CHARGES


@<TRIPOS>ATOM
      1 OG        -95.1100  196.3300   24.9200 O.3       1 SER1        0.0000 
      2 OG        -95.2800  197.3100   23.8000 O.3       1 SER1        0.0000 
      3 OG        -92.3100  197.9300   25.8700 O.3       1 SER1        0.0000 
      4 OG        -93.6000  198.4100   26.4800 O.3       1 SER1        0.0000 
      5 OG        -93.7700  199.3800   25.3500 O.3       1 SER1        0.0000 
      6 OG        -94.8800  198.8900   27.0900 O.3       1 SER1        0.0000 
      7 OG        -91.5600  198.9600   26.6400 O.3       1 SER1        0.0000 
      8 OG        -91.7300  199.9400   25.5100 O.3       1 SER1        0.0000 
      9 OG        -90.8000  200.0000   27.4200 O.3       1 SER1        0.0000 
     10 OG        -90.9700  200.9700   26.2900 O.3       1 SER1        0.0000 
     11 OG        -92.4300  202.4200   25.7700 O.3       1 SER1        0.0000 
     12 OG        -95.0000  203.3800   26.9900 O.3       1 SER1        0.0000 
     13 OG        -88.1700  203.9700   22.4600 O.3       1 SER1        0.0000 
     14 OG        -89.4500  204.4500   23.0700 O.3       1 SER1        0.0000 
     15 OG        -90.2200  202.0100   27.0700 O.3       1 SER1        0.0000 
     16 OG        -90.7400  204.9300   23.6800 O.3       1 SER1        0.0000 
     17 OG        -91.5000  202.4900   27.6800 O.3       1 SER1        0.0000 
     18 OG        -91.6700  203.4600   26.5500 O.3       1 SER1        0.0000 
     19 OG        -92.9600  203.9400   27.1600 O.3       1 SER1        0.0000 
     20 OG        -94.0700  203.4500   28.9000 O.3       1 SER1        0.0000 
     21 OG        -94.2400  204.4200   27.7700 O.3       1 SER1        0.0000 
     22 OG        -87.2400  204.0300   24.3600 O.3       1 SER1        0.0000 
     23 OG        -88.5200  204.5100   24.9800 O.3       1 SER1        0.0000 
     24 OG        -89.6300  204.0200   26.7100 O.3       1 SER1        0.0000 
     25 OG        -89.8100  204.9900   25.5900 O.3       1 SER1        0.0000 
     26 OG        -90.9200  204.5000   27.3300 O.3       1 SER1        0.0000 
     27 OG        -91.0900  205.4700   26.2000 O.3       1 SER1        0.0000 
     28 OG        -92.2000  204.9800   27.9400 O.3       1 SER1        0.0000 
     29 OG        -88.7000  204.0800   28.6200 O.3       1 SER1        0.0000 
     30 O         -98.0900  194.3100   27.6300 O.2       2 ALA2        0.0000 
     31 O         -95.4600  198.2800   22.6700 O.2       2 ALA2        0.0000 
     32 N         -96.3900  196.8100   25.5400 N.am      2 ALA2        0.0000 
     33 N         -97.3300  195.3500   28.4000 N.am      2 ALA2        0.0000 
     34 N         -97.5000  196.3200   27.2700 N.am      2 ALA2        0.0000 
     35 O         -91.4400  194.4700   26.7400 O.2       2 ALA2        0.0000 
     36 N         -95.8100  198.8200   25.1800 N.am      2 ALA2        0.0000 
     37 O         -90.6800  195.5000   27.5100 O.2       2 ALA2        0.0000 
     38 N         -92.6600  199.8700   23.6100 N.am      2 ALA2        0.0000 
     39 N         -93.9400  200.3500   24.2200 N.am      2 ALA2        0.0000 
     40 N         -95.0500  199.8600   25.9600 N.am      2 ALA2        0.0000 
     41 N         -95.4000  201.8000   23.7000 N.am      2 ALA2        0.0000 
     42 N         -90.1000  197.5100   27.1600 N.am      2 ALA2        0.0000 
     43 N         -90.2700  198.4800   26.0300 N.am      2 ALA2        0.0000 
     44 N         -90.4500  199.4600   24.9000 N.am      2 ALA2        0.0000 
     45 N         -91.9000  200.9100   24.3900 N.am      2 ALA2        0.0000 
     46 N         -93.1900  201.3900   25.0000 N.am      2 ALA2        0.0000 
     47 N         -93.3600  202.3600   23.8700 N.am      2 ALA2        0.0000 
     48 N         -94.4700  201.8700   25.6100 N.am      2 ALA2        0.0000 
     49 N         -94.6400  202.8400   24.4800 N.am      2 ALA2        0.0000 
     50 N         -94.8200  203.8100   23.3500 N.am      2 ALA2        0.0000 
     51 N         -95.9300  203.3200   25.0900 N.am      2 ALA2        0.0000 
     52 N         -96.1000  204.2900   23.9600 N.am      2 ALA2        0.0000 
     53 N         -97.2100  203.8000   25.7000 N.am      2 ALA2        0.0000 
     54 N         -87.4700  201.4800   22.2000 N.am      2 ALA2        0.0000 
     55 N         -88.7500  201.9600   22.8100 N.am      2 ALA2        0.0000 
     56 N         -88.9300  202.9300   21.6800 N.am      2 ALA2        0.0000 
     57 N         -89.5200  199.5200   26.8100 N.am      2 ALA2        0.0000 
     58 N         -91.1500  201.9500   25.1600 N.am      2 ALA2        0.0000 
     59 N         -92.6000  203.4000   24.6400 N.am      2 ALA2        0.0000 
     60 N         -92.7800  204.3700   23.5200 N.am      2 ALA2        0.0000 
     61 N         -95.1700  204.3600   25.8700 N.am      2 ALA2        0.0000 
     62 N         -96.2800  203.8600   27.6100 N.am      2 ALA2        0.0000 
     63 N         -96.4500  204.8400   26.4800 N.am      2 ALA2        0.0000 
     64 N         -86.7100  202.5200   22.9800 N.am      2 ALA2        0.0000 
     65 N         -88.0000  203.0000   23.5900 N.am      2 ALA2        0.0000 
     66 N         -89.1100  202.5000   25.3300 N.am      2 ALA2        0.0000 
     67 N         -89.2800  203.4700   24.2000 N.am      2 ALA2        0.0000 
     68 N         -90.3900  202.9800   25.9400 N.am      2 ALA2        0.0000 
     69 N         -90.5600  203.9500   24.8100 N.am      2 ALA2        0.0000 
     70 N         -87.0700  203.0600   25.4900 N.am      2 ALA2        0.0000 
     71 N         -88.1800  202.5700   27.2300 N.am      2 ALA2        0.0000 
     72 N         -88.3500  203.5400   26.1000 N.am      2 ALA2        0.0000 
     73 OD1       -92.9500  205.3400   22.3900 O.co2     3 ASP3        0.0000 
     74 OD1       -92.0200  205.4100   24.2900 O.co2     3 ASP3        0.0000 
     75 CZ        -93.0700  196.8900   25.0900 C.ar      4 PHE5        0.0000 
     76 CZ        -93.2400  197.8600   23.9600 C.ar      4 PHE5        0.0000 
     77 CZ        -90.8600  196.4800   26.3800 C.ar      4 PHE5        0.0000 
     78 CZ        -91.0300  197.4500   25.2600 C.ar      4 PHE5        0.0000 
     79 CZ        -92.1400  196.9500   27.0000 C.ar      4 PHE5        0.0000 
     80 CZ        -92.4900  198.9000   24.7400 C.ar      4 PHE5        0.0000 
     81 CZ        -93.4200  197.4300   27.6100 C.ar      4 PHE5        0.0000 
     82 CZ        -94.5300  196.9400   29.3500 C.ar      4 PHE5        0.0000 
     83 CZ        -94.7100  197.9100   28.2200 C.ar      4 PHE5        0.0000 
     84 CZ        -88.4000  201.4200   20.3000 C.ar      4 PHE5        0.0000 
     85 CZ        -91.3800  197.9900   27.7700 C.ar      4 PHE5        0.0000 
     86 CZ        -94.0600  204.8500   24.1300 C.ar      4 PHE5        0.0000 
     87 CZ        -94.2400  205.8200   23.0000 C.ar      4 PHE5        0.0000 
     88 CZ        -95.3400  205.3300   24.7400 C.ar      4 PHE5        0.0000 
     89 CZ        -90.0400  201.0400   28.2000 C.ar      4 PHE5        0.0000 
     90 CZ        -93.3000  205.8900   24.9000 C.ar      4 PHE5        0.0000 
     91 CZ        -89.2900  202.0700   28.9700 C.ar      4 PHE5        0.0000 
     92 CZ        -90.7400  203.5300   28.4500 C.ar      4 PHE5        0.0000 
     93 CZ        -92.0300  204.0000   29.0700 C.ar      4 PHE5        0.0000 
     94 CZ        -88.5300  203.1100   29.7500 C.ar      4 PHE5        0.0000 
     95 CA        -96.0500  194.8700   27.7900 C.3       5 GLY6        0.0000 
     96 CA        -96.2200  195.8400   26.6600 C.3       5 GLY6        0.0000 
     97 CA        -96.5700  197.7900   24.4100 C.3       5 GLY6        0.0000 
     98 CA        -92.9000  195.9200   26.2200 C.3       5 GLY6        0.0000 
     99 CA        -93.4200  198.8400   22.8300 C.3       5 GLY6        0.0000 
    100 CA        -94.0100  195.4300   27.9600 C.3       5 GLY6        0.0000 
    101 CA        -94.1800  196.4000   26.8300 C.3       5 GLY6        0.0000 
    102 CA        -94.7000  199.3200   23.4400 C.3       5 GLY6        0.0000 
    103 CA        -95.2900  195.9000   28.5700 C.3       5 GLY6        0.0000 
    104 CA        -95.4600  196.8800   27.4400 C.3       5 GLY6        0.0000 
    105 CA        -95.6400  197.8500   26.3100 C.3       5 GLY6        0.0000 
    106 CA        -96.7500  197.3600   28.0500 C.3       5 GLY6        0.0000 
    107 CA        -91.2000  198.4200   24.1300 C.3       5 GLY6        0.0000 
    108 CA        -91.9700  195.9800   28.1200 C.3       5 GLY6        0.0000 
    109 CA        -93.2500  196.4600   28.7300 C.3       5 GLY6        0.0000 
    110 CA        -94.1200  201.3200   23.0900 C.3       5 GLY6        0.0000 
    111 CA        -88.2300  200.4400   21.4200 C.3       5 GLY6        0.0000 
    112 CA        -97.3800  204.7700   24.5700 C.3       5 GLY6        0.0000 
    113 CA        -96.1100  202.8900   28.7300 C.3       5 GLY6        0.0000 
    114 CA        -88.0000  201.5900   28.3600 C.3       5 GLY6        0.0000 
    115 CA        -87.2500  202.6300   29.1400 C.3       5 GLY6        0.0000 
    116 CA        -87.4200  203.6000   28.0100 C.3       5 GLY6        0.0000 
    117 DU        -94.3500  197.3700   25.7000 H         6 CUB7        0.0000 
    118 DU        -94.5300  198.3400   24.5700 H         6 CUB7        0.0000 
    119 DU        -87.6400  202.4500   21.0700 H         6 CUB7        0.0000 
    120 DU        -93.8900  203.8800   25.2500 H         6 CUB7        0.0000 
    121 DU        -91.8500  204.4300   25.4200 H         6 CUB7        0.0000 
    122 DU        -93.1300  204.9100   26.0300 H         6 CUB7        0.0000 
    123 DU        -94.4100  205.3900   26.6400 H         6 CUB7        0.0000 
    124 DU        -89.4600  203.0500   27.8400 H         6 CUB7        0.0000 
@<TRIPOS>BOND
@<TRIPOS>SUBSTRUCTURE
     1 SER1        1 GROUP   
     2 ALA2       30 GROUP   
     3 ASP3       73 GROUP   
     4 PHE5       75 GROUP   
     5 GLY6       95 GROUP   
     6 CUB7      117 GROUP   
@<TRIPOS>SET

