#    Name: 6dzs_3_NAP_CAVITY_N1_ALL
#    Modification time : Fri May 22 19:25:27 2020

@<TRIPOS>MOLECULE
6dzs_3_NAP_CAVITY_N1_ALL
  105     0     6     0     0
SMALL
NO_CHARGES


@<TRIPOS>ATOM
      1 OG        -37.8600  -17.0200   29.4700 O.3       1 SER1        0.0000 
      2 OG        -39.0600  -16.5700   30.2500 O.3       1 SER1        0.0000 
      3 OG        -36.9800  -16.7300   30.6500 O.3       1 SER1        0.0000 
      4 OG        -36.7800  -15.3300   30.1500 O.3       1 SER1        0.0000 
      5 OG        -36.5700  -13.9300   29.6500 O.3       1 SER1        0.0000 
      6 N         -39.1700  -20.5000   23.6900 N.am      2 ALA2        0.0000 
      7 N         -38.9700  -19.1000   23.1900 N.am      2 ALA2        0.0000 
      8 N         -40.7800  -22.8500   25.4700 N.am      2 ALA2        0.0000 
      9 N         -40.5800  -21.4500   24.9700 N.am      2 ALA2        0.0000 
     10 N         -41.5700  -19.6000   25.2400 N.am      2 ALA2        0.0000 
     11 N         -43.1800  -21.9400   27.0200 N.am      2 ALA2        0.0000 
     12 N         -36.8900  -19.2700   23.5900 N.am      2 ALA2        0.0000 
     13 N         -38.0900  -18.8100   24.3700 N.am      2 ALA2        0.0000 
     14 N         -39.9100  -22.5600   26.6500 N.am      2 ALA2        0.0000 
     15 N         -39.7000  -21.1600   26.1500 N.am      2 ALA2        0.0000 
     16 N         -39.2900  -18.3600   25.1500 N.am      2 ALA2        0.0000 
     17 O         -41.3100  -23.5000   27.9300 O.2       2 ALA2        0.0000 
     18 N         -41.1100  -22.1000   27.4300 N.am      2 ALA2        0.0000 
     19 N         -40.9000  -20.7000   26.9300 N.am      2 ALA2        0.0000 
     20 N         -40.7000  -19.3000   26.4300 N.am      2 ALA2        0.0000 
     21 O         -42.5100  -23.0500   28.7000 O.2       2 ALA2        0.0000 
     22 O         -42.3100  -21.6500   28.2000 O.2       2 ALA2        0.0000 
     23 N         -38.4100  -18.0600   26.3300 N.am      2 ALA2        0.0000 
     24 O         -40.4300  -23.2100   29.1100 O.2       2 ALA2        0.0000 
     25 O         -41.4300  -21.3500   29.3800 O.2       2 ALA2        0.0000 
     26 O         -39.3500  -21.5100   29.7900 O.2       2 ALA2        0.0000 
     27 N         -37.1900  -18.1300   31.1500 N.am      2 ALA2        0.0000 
     28 O         -35.6400  -18.9400   34.0100 O.2       2 ALA2        0.0000 
     29 OD1       -36.0100  -18.9700   24.7700 O.co2     3 ASP3        0.0000 
     30 OD1       -37.2100  -18.5200   25.5500 O.co2     3 ASP3        0.0000 
     31 OD1       -35.3400  -20.0800   26.4500 O.co2     3 ASP3        0.0000 
     32 OD1       -36.5400  -19.6200   27.2300 O.co2     3 ASP3        0.0000 
     33 OD1       -37.7400  -19.1700   28.0100 O.co2     3 ASP3        0.0000 
     34 OD1       -37.5400  -17.7700   27.5100 O.co2     3 ASP3        0.0000 
     35 OD1       -35.6700  -19.3300   28.4100 O.co2     3 ASP3        0.0000 
     36 OD1       -36.8700  -18.8800   29.1900 O.co2     3 ASP3        0.0000 
     37 OD1       -36.6600  -17.4800   28.6900 O.co2     3 ASP3        0.0000 
     38 OD1       -34.7900  -19.0400   29.5900 O.co2     3 ASP3        0.0000 
     39 OD1       -34.5800  -17.6400   29.0900 O.co2     3 ASP3        0.0000 
     40 OD1       -35.7800  -17.1800   29.8700 O.co2     3 ASP3        0.0000 
     41 OD1       -35.5800  -15.7800   29.3700 O.co2     3 ASP3        0.0000 
     42 OD1       -35.3700  -14.3800   28.8700 O.co2     3 ASP3        0.0000 
     43 OD1       -33.7100  -17.3400   30.2800 O.co2     3 ASP3        0.0000 
     44 OD1       -33.5000  -15.9400   29.7800 O.co2     3 ASP3        0.0000 
     45 OD1       -34.5000  -14.0900   30.0500 O.co2     3 ASP3        0.0000 
     46 NZ        -32.3900  -19.9400   28.0400 N.4       4 LYS4        0.0000 
     47 NZ        -31.7200  -21.0500   29.7200 N.4       4 LYS4        0.0000 
     48 NZ        -31.5100  -19.6500   29.2200 N.4       4 LYS4        0.0000 
     49 NZ        -32.7100  -19.2000   30.0000 N.4       4 LYS4        0.0000 
     50 NZ        -32.5100  -17.8000   29.5000 N.4       4 LYS4        0.0000 
     51 NZ        -35.5200  -21.0900   32.5500 N.4       4 LYS4        0.0000 
     52 NZ        -32.0400  -20.3000   31.6800 N.4       4 LYS4        0.0000 
     53 NZ        -31.8400  -18.9000   31.1800 N.4       4 LYS4        0.0000 
     54 NZ        -31.6300  -17.5000   30.6800 N.4       4 LYS4        0.0000 
     55 CA        -40.3700  -20.0500   24.4700 C.3       5 GLY6        0.0000 
     56 CA        -40.1700  -18.6500   23.9700 C.3       5 GLY6        0.0000 
     57 CA        -41.3700  -18.2000   24.7400 C.3       5 GLY6        0.0000 
     58 CA        -37.3000  -22.0600   24.5900 C.3       5 GLY6        0.0000 
     59 CA        -37.1000  -20.6600   24.0900 C.3       5 GLY6        0.0000 
     60 CA        -38.7100  -23.0100   25.8700 C.3       5 GLY6        0.0000 
     61 CA        -38.5000  -21.6100   25.3700 C.3       5 GLY6        0.0000 
     62 CA        -38.3000  -20.2100   24.8700 C.3       5 GLY6        0.0000 
     63 CA        -40.4900  -17.9000   25.9300 C.3       5 GLY6        0.0000 
     64 CA        -42.1000  -20.2500   27.7000 C.3       5 GLY6        0.0000 
     65 CA        -41.9000  -18.8500   27.2000 C.3       5 GLY6        0.0000 
     66 CA        -40.0200  -20.4100   28.1100 C.3       5 GLY6        0.0000 
     67 CA        -39.8200  -19.0100   27.6100 C.3       5 GLY6        0.0000 
     68 CA        -39.6100  -17.6100   27.1100 C.3       5 GLY6        0.0000 
     69 CA        -39.1500  -20.1200   29.2900 C.3       5 GLY6        0.0000 
     70 CA        -38.9400  -18.7200   28.7900 C.3       5 GLY6        0.0000 
     71 CA        -38.7400  -17.3200   28.2900 C.3       5 GLY6        0.0000 
     72 CA        -38.5300  -15.9200   27.7900 C.3       5 GLY6        0.0000 
     73 CA        -38.2700  -19.8200   30.4700 C.3       5 GLY6        0.0000 
     74 CA        -38.0600  -18.4200   29.9700 C.3       5 GLY6        0.0000 
     75 CA        -37.6500  -15.6200   28.9700 C.3       5 GLY6        0.0000 
     76 CA        -31.1900  -20.4000   27.2600 C.3       5 GLY6        0.0000 
     77 CA        -33.5900  -19.4900   28.8200 C.3       5 GLY6        0.0000 
     78 CA        -35.1100  -18.2900   31.5500 C.3       5 GLY6        0.0000 
     79 CA        -34.9100  -16.8900   31.0500 C.3       5 GLY6        0.0000 
     80 CA        -34.7000  -15.4900   30.5500 C.3       5 GLY6        0.0000 
     81 CA        -32.8300  -17.0500   31.4600 C.3       5 GLY6        0.0000 
     82 CA        -34.2300  -18.0000   32.7300 C.3       5 GLY6        0.0000 
     83 DU        -39.5000  -19.7600   25.6500 H         6 CUB7        0.0000 
     84 DU        -36.2200  -20.3700   25.2700 H         6 CUB7        0.0000 
     85 DU        -37.6200  -21.3200   26.5500 H         6 CUB7        0.0000 
     86 DU        -37.4200  -19.9200   26.0500 H         6 CUB7        0.0000 
     87 DU        -39.0300  -22.2600   27.8300 H         6 CUB7        0.0000 
     88 DU        -38.8200  -20.8600   27.3300 H         6 CUB7        0.0000 
     89 DU        -38.6200  -19.4600   26.8300 H         6 CUB7        0.0000 
     90 DU        -40.2300  -21.8100   28.6100 H         6 CUB7        0.0000 
     91 DU        -36.7500  -21.0200   27.7300 H         6 CUB7        0.0000 
     92 DU        -37.9500  -20.5700   28.5100 H         6 CUB7        0.0000 
     93 DU        -37.0700  -20.2800   29.6900 H         6 CUB7        0.0000 
     94 DU        -34.9900  -20.4400   30.0900 H         6 CUB7        0.0000 
     95 DU        -36.1900  -19.9800   30.8700 H         6 CUB7        0.0000 
     96 DU        -35.9900  -18.5800   30.3700 H         6 CUB7        0.0000 
     97 DU        -37.3900  -19.5300   31.6500 H         6 CUB7        0.0000 
     98 DU        -32.9200  -20.6000   30.5000 H         6 CUB7        0.0000 
     99 DU        -34.1200  -20.1400   31.2800 H         6 CUB7        0.0000 
    100 DU        -33.9100  -18.7400   30.7800 H         6 CUB7        0.0000 
    101 DU        -35.3200  -19.6900   32.0500 H         6 CUB7        0.0000 
    102 DU        -33.2400  -19.8500   32.4600 H         6 CUB7        0.0000 
    103 DU        -33.0400  -18.4500   31.9600 H         6 CUB7        0.0000 
    104 DU        -34.6400  -20.7900   33.7300 H         6 CUB7        0.0000 
    105 DU        -34.4400  -19.4000   33.2300 H         6 CUB7        0.0000 
@<TRIPOS>BOND
@<TRIPOS>SUBSTRUCTURE
     1 SER1        1 GROUP   
     2 ALA2        6 GROUP   
     3 ASP3       29 GROUP   
     4 LYS4       46 GROUP   
     5 GLY6       55 GROUP   
     6 CUB7       83 GROUP   
@<TRIPOS>SET

