#    Name: 6dzs_3_NAP
#    Modification time : Fri May 22 19:25:24 2020

@<TRIPOS>MOLECULE
6dzs_3_NAP
   73    77     1     0     1
SMALL
NO_CHARGES


@<TRIPOS>ATOM
      1 PA        -41.0260  -24.7720   28.0890 P.3       1 NAP500      0.0000 
      2 O1A       -41.1480  -24.9280   29.5550 O.co2     1 NAP500      0.0000 
      3 O2A       -40.0310  -25.7830   27.5310 O.co2     1 NAP500      0.0000 
      4 O5B       -42.4450  -24.9670   27.2920 O.3       1 NAP500      0.0000 
      5 C5B       -42.4500  -25.0360   25.8550 C.3       1 NAP500      0.0000 
      6 C4B       -43.8730  -25.2840   25.4140 C.3       1 NAP500      0.0000 
      7 O4B       -43.9430  -25.2470   23.9710 O.3       1 NAP500      0.0000 
      8 C3B       -44.4510  -26.6320   25.8460 C.3       1 NAP500      0.0000 
      9 O3B       -45.8000  -26.4780   26.2810 O.3       1 NAP500      0.0000 
     10 C2B       -44.3730  -27.4830   24.5810 C.3       1 NAP500      0.0000 
     11 O2B       -45.3930  -28.5040   24.5590 O.3       1 NAP500      0.0000 
     12 C1B       -44.5100  -26.4430   23.4710 C.3       1 NAP500      0.0000 
     13 N9A       -43.8200  -26.7960   22.2340 N.pl3     1 NAP500      0.0000 
     14 C8A       -42.4830  -27.0500   22.0700 C.2       1 NAP500      0.0000 
     15 N7A       -42.1490  -27.3940   20.8500 N.2       1 NAP500      0.0000 
     16 C5A       -43.3510  -27.3610   20.1590 C.ar      1 NAP500      0.0000 
     17 C6A       -43.6830  -27.6390   18.8200 C.ar      1 NAP500      0.0000 
     18 N6A       -42.8010  -28.0430   17.9050 N.pl3     1 NAP500      0.0000 
     19 N1A       -44.9770  -27.5070   18.4540 N.ar      1 NAP500      0.0000 
     20 C2A       -45.8690  -27.1270   19.3740 C.ar      1 NAP500      0.0000 
     21 N3A       -45.6770  -26.8460   20.6650 N.ar      1 NAP500      0.0000 
     22 C4A       -44.3880  -26.9850   20.9980 C.ar      1 NAP500      0.0000 
     23 O3        -40.4970  -23.3100   27.7370 O.3       1 NAP500      0.0000 
     24 PN        -40.5110  -21.9090   28.5080 P.3       1 NAP500      0.0000 
     25 O1N       -39.5650  -22.0020   29.6410 O.co2     1 NAP500      0.0000 
     26 O2N       -41.9170  -21.5260   28.7700 O.co2     1 NAP500      0.0000 
     27 O5D       -39.8890  -20.9520   27.3880 O.3       1 NAP500      0.0000 
     28 C5D       -40.7180  -20.5010   26.2860 C.3       1 NAP500      0.0000 
     29 C4D       -40.0310  -19.3910   25.5310 C.3       1 NAP500      0.0000 
     30 O4D       -39.8130  -18.2630   26.4100 O.3       1 NAP500      0.0000 
     31 C3D       -38.6680  -19.7390   24.9280 C.3       1 NAP500      0.0000 
     32 O3D       -38.5270  -19.1610   23.6340 O.3       1 NAP500      0.0000 
     33 C2D       -37.6880  -19.1200   25.9260 C.3       1 NAP500      0.0000 
     34 O2D       -36.4610  -18.7580   25.3040 O.3       1 NAP500      0.0000 
     35 C1D       -38.4640  -17.8820   26.3600 C.3       1 NAP500      0.0000 
     36 N1N       -38.0670  -17.3160   27.7390 N.pl3     1 NAP500      0.0000 
     37 C2N       -38.0980  -18.1790   28.7700 C.ar      1 NAP500      0.0000 
     38 C3N       -37.7770  -17.7560   30.0450 C.ar      1 NAP500      0.0000 
     39 C7N       -37.8040  -18.7000   31.2090 C.2       1 NAP500      0.0000 
     40 O7N       -37.5180  -18.2810   32.3360 O.2       1 NAP500      0.0000 
     41 N7N       -38.1350  -19.9550   30.9860 N.am      1 NAP500      0.0000 
     42 C4N       -37.4220  -16.4280   30.2350 C.ar      1 NAP500      0.0000 
     43 C5N       -37.3940  -15.5590   29.1610 C.ar      1 NAP500      0.0000 
     44 C6N       -37.7230  -16.0240   27.9090 C.ar      1 NAP500      0.0000 
     45 P2B       -45.1960  -29.8990   25.3480 P.3       1 NAP500      0.0000 
     46 O1X       -45.0050  -29.6780   26.8200 O.co2     1 NAP500      0.0000 
     47 O2X       -46.4340  -30.7390   25.0460 O.co2     1 NAP500      0.0000 
     48 O3X       -44.0010  -30.5910   24.6940 O.co2     1 NAP500      0.0000 
     49 H51A      -41.7830  -25.8260   25.5150 H         1 NAP500      0.0000 
     50 H52A      -42.0570  -24.1120   25.4340 H         1 NAP500      0.0000 
     51 H4B       -44.5310  -24.4620   25.6920 H         1 NAP500      0.0000 
     52 H3B       -43.8490  -27.0400   26.6580 H         1 NAP500      0.0000 
     53 HO3A      -46.2710  -27.3290   26.0790 H         1 NAP500      0.0000 
     54 H2B       -43.3920  -27.9540   24.5340 H         1 NAP500      0.0000 
     55 H1B       -45.5510  -26.2470   23.2200 H         1 NAP500      0.0000 
     56 H8A       -41.7670  -26.9710   22.8860 H         1 NAP500      0.0000 
     57 H61A      -41.8260  -28.1660   18.1580 H         1 NAP500      0.0000 
     58 H62A      -43.1030  -28.2280   16.9540 H         1 NAP500      0.0000 
     59 H2A       -46.8910  -27.0390   19.0080 H         1 NAP500      0.0000 
     60 H51N      -41.6780  -20.1460   26.6560 H         1 NAP500      0.0000 
     61 H52N      -40.9240  -21.3270   25.6060 H         1 NAP500      0.0000 
     62 H4D       -40.6980  -18.9810   24.7750 H         1 NAP500      0.0000 
     63 H3D       -38.4990  -20.8120   24.8460 H         1 NAP500      0.0000 
     64 HO3N      -37.6090  -18.7860   23.5780 H         1 NAP500      0.0000 
     65 H2D       -37.4140  -19.7830   26.7450 H         1 NAP500      0.0000 
     66 HO2N      -35.7010  -19.3130   25.6210 H         1 NAP500      0.0000 
     67 H1D       -38.3540  -17.0330   25.6880 H         1 NAP500      0.0000 
     68 H2N       -38.3800  -19.2140   28.5790 H         1 NAP500      0.0000 
     69 H71N      -38.3620  -20.2470   30.0400 H         1 NAP500      0.0000 
     70 H72N      -38.1580  -20.6070   31.7630 H         1 NAP500      0.0000 
     71 H4N       -37.1590  -16.0390   31.2180 H         1 NAP500      0.0000 
     72 H5N       -37.1160  -14.5160   29.3010 H         1 NAP500      0.0000 
     73 H6N       -37.7100  -15.3600   27.0460 H         1 NAP500      0.0000 
@<TRIPOS>BOND
     1    1    2 ar   
     2    1    3 ar   
     3    1    4 1    
     4    1   23 1    
     5    4    5 1    
     6    5    6 1    
     7    5   49 1    
     8    5   50 1    
     9    6    7 1    
    10    6    8 1    
    11    6   51 1    
    12    7   12 1    
    13    8    9 1    
    14    8   10 1    
    15    8   52 1    
    16    9   53 1    
    17   10   11 1    
    18   10   12 1    
    19   10   54 1    
    20   11   45 1    
    21   12   13 1    
    22   12   55 1    
    23   13   14 1    
    24   13   22 1    
    25   14   15 2    
    26   14   56 1    
    27   15   16 1    
    28   16   17 ar   
    29   16   22 ar   
    30   17   18 1    
    31   17   19 ar   
    32   18   57 1    
    33   18   58 1    
    34   19   20 ar   
    35   20   21 ar   
    36   20   59 1    
    37   21   22 ar   
    38   23   24 1    
    39   24   25 ar   
    40   24   26 ar   
    41   24   27 1    
    42   27   28 1    
    43   28   29 1    
    44   28   60 1    
    45   28   61 1    
    46   29   30 1    
    47   29   31 1    
    48   29   62 1    
    49   30   35 1    
    50   31   32 1    
    51   31   33 1    
    52   31   63 1    
    53   32   64 1    
    54   33   34 1    
    55   33   35 1    
    56   33   65 1    
    57   34   66 1    
    58   35   36 1    
    59   35   67 1    
    60   36   37 ar   
    61   36   44 ar   
    62   37   38 ar   
    63   37   68 1    
    64   38   39 1    
    65   38   42 ar   
    66   39   40 2    
    67   39   41 am   
    68   41   69 1    
    69   41   70 1    
    70   42   43 ar   
    71   42   71 1    
    72   43   44 ar   
    73   43   72 1    
    74   44   73 1    
    75   45   46 ar   
    76   45   47 ar   
    77   45   48 ar   
@<TRIPOS>SUBSTRUCTURE
     1 NAP500      1 GROUP   
@<TRIPOS>SET
ATOM$ORANGE STATIC     ATOMS   COLORGROUP SYSTEM 
42 5 5 6 6 8 8 10 10 12 12 14 14 16 16 17 17 20 \
20 22 22 28 28 29 29 31 31 33 33 35 35 37 37 38 38 39 \
39 42 42 43 43 44 44 

