#    Name: 6dzs_4_NAP
#    Modification time : Fri May 22 19:25:32 2020

@<TRIPOS>MOLECULE
6dzs_4_NAP
   73    77     1     0     1
SMALL
NO_CHARGES


@<TRIPOS>ATOM
      1 PA        -37.5360   28.1490   31.7380 P.3       1 NAP500      0.0000 
      2 O1A       -36.0640   28.1880   31.8920 O.co2     1 NAP500      0.0000 
      3 O2A       -38.1830   28.9710   32.8450 O.co2     1 NAP500      0.0000 
      4 O5B       -38.0470   28.7380   30.2810 O.3       1 NAP500      0.0000 
      5 C5B       -39.4490   28.8980   29.9940 C.3       1 NAP500      0.0000 
      6 C4B       -39.5860   29.2780   28.5380 C.3       1 NAP500      0.0000 
      7 O4B       -40.9840   29.4420   28.2070 O.3       1 NAP500      0.0000 
      8 C3B       -38.8960   30.5860   28.1470 C.3       1 NAP500      0.0000 
      9 O3B       -38.3630   30.4930   26.8300 O.3       1 NAP500      0.0000 
     10 C2B       -40.0370   31.5980   28.2070 C.3       1 NAP500      0.0000 
     11 O2B       -39.7800   32.7600   27.3910 O.3       1 NAP500      0.0000 
     12 C1B       -41.2300   30.7590   27.7520 C.3       1 NAP500      0.0000 
     13 N9A       -42.5160   31.2040   28.2880 N.pl3     1 NAP500      0.0000 
     14 C8A       -42.8820   31.2830   29.6040 C.2       1 NAP500      0.0000 
     15 N7A       -44.0900   31.7600   29.7970 N.2       1 NAP500      0.0000 
     16 C5A       -44.5480   32.0110   28.5150 C.ar      1 NAP500      0.0000 
     17 C6A       -45.7580   32.5470   28.0280 C.ar      1 NAP500      0.0000 
     18 N6A       -46.7590   32.9520   28.8120 N.pl3     1 NAP500      0.0000 
     19 N1A       -45.8960   32.6720   26.6900 N.ar      1 NAP500      0.0000 
     20 C2A       -44.8870   32.2900   25.9010 C.ar      1 NAP500      0.0000 
     21 N3A       -43.7020   31.7780   26.2430 N.ar      1 NAP500      0.0000 
     22 C4A       -43.5950   31.6660   27.5700 C.ar      1 NAP500      0.0000 
     23 O3        -38.0640   26.6510   31.8870 O.3       1 NAP500      0.0000 
     24 PN        -37.4550   25.1960   31.6220 P.3       1 NAP500      0.0000 
     25 O1N       -36.4790   24.8790   32.6870 O.co2     1 NAP500      0.0000 
     26 O2N       -37.0360   25.1000   30.2050 O.co2     1 NAP500      0.0000 
     27 O5D       -38.7410   24.2860   31.8610 O.3       1 NAP500      0.0000 
     28 C5D       -39.7100   24.1300   30.8000 C.3       1 NAP500      0.0000 
     29 C4D       -40.7710   23.1660   31.2610 C.3       1 NAP500      0.0000 
     30 O4D       -40.1610   21.8890   31.5520 O.3       1 NAP500      0.0000 
     31 C3D       -41.5410   23.5820   32.5170 C.3       1 NAP500      0.0000 
     32 O3D       -42.9350   23.3450   32.3450 O.3       1 NAP500      0.0000 
     33 C2D       -40.9570   22.6760   33.6020 C.3       1 NAP500      0.0000 
     34 O2D       -41.9160   22.3660   34.6060 O.3       1 NAP500      0.0000 
     35 C1D       -40.6250   21.4310   32.7910 C.3       1 NAP500      0.0000 
     36 N1N       -39.5470   20.5260   33.4080 N.pl3     1 NAP500      0.0000 
     37 C2N       -38.3280   21.0750   33.5480 C.ar      1 NAP500      0.0000 
     38 C3N       -37.2880   20.3400   34.0820 C.ar      1 NAP500      0.0000 
     39 C7N       -35.9210   20.9330   34.2270 C.2       1 NAP500      0.0000 
     40 O7N       -35.0080   20.2430   34.6900 O.2       1 NAP500      0.0000 
     41 N7N       -35.7400   22.1790   33.8430 N.am      1 NAP500      0.0000 
     42 C4N       -37.5330   19.0320   34.4790 C.ar      1 NAP500      0.0000 
     43 C5N       -38.7940   18.4890   34.3270 C.ar      1 NAP500      0.0000 
     44 C6N       -39.7970   19.2550   33.7820 C.ar      1 NAP500      0.0000 
     45 P2B       -38.8080   33.9430   27.9220 P.3       1 NAP500      0.0000 
     46 O1X       -37.4000   33.4630   28.0400 O.co2     1 NAP500      0.0000 
     47 O2X       -38.9440   35.0990   26.9250 O.co2     1 NAP500      0.0000 
     48 O3X       -39.3850   34.4000   29.2630 O.co2     1 NAP500      0.0000 
     49 H51A      -39.8790   29.6570   30.6450 H         1 NAP500      0.0000 
     50 H52A      -39.9840   27.9760   30.2160 H         1 NAP500      0.0000 
     51 H4B       -39.2910   28.4590   27.8840 H         1 NAP500      0.0000 
     52 H3B       -38.0920   30.8070   28.8470 H         1 NAP500      0.0000 
     53 HO3A      -38.6840   31.2880   26.3280 H         1 NAP500      0.0000 
     54 H2B       -40.1730   31.9200   29.2380 H         1 NAP500      0.0000 
     55 H1B       -41.3270   30.7340   26.6680 H         1 NAP500      0.0000 
     56 H8A       -42.2240   30.9760   30.4160 H         1 NAP500      0.0000 
     57 H61A      -46.6750   32.8830   29.8210 H         1 NAP500      0.0000 
     58 H62A      -47.6060   33.3300   28.4010 H         1 NAP500      0.0000 
     59 H2A       -45.0680   32.4180   24.8350 H         1 NAP500      0.0000 
     60 H51N      -39.2360   23.7550   29.8950 H         1 NAP500      0.0000 
     61 H52N      -40.1650   25.0880   30.5480 H         1 NAP500      0.0000 
     62 H4D       -41.4560   22.9280   30.4480 H         1 NAP500      0.0000 
     63 H3D       -41.3910   24.6280   32.7820 H         1 NAP500      0.0000 
     64 HO3N      -43.2900   24.0810   31.7810 H         1 NAP500      0.0000 
     65 H2D       -40.1070   23.1150   34.1240 H         1 NAP500      0.0000 
     66 HO2N      -42.8450   22.5480   34.3060 H         1 NAP500      0.0000 
     67 H1D       -41.4700   20.7620   32.6370 H         1 NAP500      0.0000 
     68 H2N       -38.1780   22.1070   33.2330 H         1 NAP500      0.0000 
     69 H71N      -36.5240   22.6990   33.4620 H         1 NAP500      0.0000 
     70 H72N      -34.8190   22.5960   33.9340 H         1 NAP500      0.0000 
     71 H4N       -36.7530   18.4080   34.9120 H         1 NAP500      0.0000 
     72 H5N       -38.9950   17.4650   34.6360 H         1 NAP500      0.0000 
     73 H6N       -40.7980   18.8500   33.6460 H         1 NAP500      0.0000 
@<TRIPOS>BOND
     1    1    2 ar   
     2    1    3 ar   
     3    1    4 1    
     4    1   23 1    
     5    4    5 1    
     6    5    6 1    
     7    5   49 1    
     8    5   50 1    
     9    6    7 1    
    10    6    8 1    
    11    6   51 1    
    12    7   12 1    
    13    8    9 1    
    14    8   10 1    
    15    8   52 1    
    16    9   53 1    
    17   10   11 1    
    18   10   12 1    
    19   10   54 1    
    20   11   45 1    
    21   12   13 1    
    22   12   55 1    
    23   13   14 1    
    24   13   22 1    
    25   14   15 2    
    26   14   56 1    
    27   15   16 1    
    28   16   17 ar   
    29   16   22 ar   
    30   17   18 1    
    31   17   19 ar   
    32   18   57 1    
    33   18   58 1    
    34   19   20 ar   
    35   20   21 ar   
    36   20   59 1    
    37   21   22 ar   
    38   23   24 1    
    39   24   25 ar   
    40   24   26 ar   
    41   24   27 1    
    42   27   28 1    
    43   28   29 1    
    44   28   60 1    
    45   28   61 1    
    46   29   30 1    
    47   29   31 1    
    48   29   62 1    
    49   30   35 1    
    50   31   32 1    
    51   31   33 1    
    52   31   63 1    
    53   32   64 1    
    54   33   34 1    
    55   33   35 1    
    56   33   65 1    
    57   34   66 1    
    58   35   36 1    
    59   35   67 1    
    60   36   37 ar   
    61   36   44 ar   
    62   37   38 ar   
    63   37   68 1    
    64   38   39 1    
    65   38   42 ar   
    66   39   40 2    
    67   39   41 am   
    68   41   69 1    
    69   41   70 1    
    70   42   43 ar   
    71   42   71 1    
    72   43   44 ar   
    73   43   72 1    
    74   44   73 1    
    75   45   46 ar   
    76   45   47 ar   
    77   45   48 ar   
@<TRIPOS>SUBSTRUCTURE
     1 NAP500      1 GROUP   
@<TRIPOS>SET
ATOM$ORANGE STATIC     ATOMS   COLORGROUP SYSTEM 
42 5 5 6 6 8 8 10 10 12 12 14 14 16 16 17 17 20 \
20 22 22 28 28 29 29 31 31 33 33 35 35 37 37 38 38 39 \
39 42 42 43 43 44 44 

