#    Name: 6dzs_2_NAP
#    Modification time : Fri May 22 19:25:16 2020

@<TRIPOS>MOLECULE
6dzs_2_NAP
   73    77     1     0     1
SMALL
NO_CHARGES


@<TRIPOS>ATOM
      1 PA         13.5820   20.6220  -14.7910 P.3       1 NAP500      0.0000 
      2 O1A        12.1510   20.9460  -15.0020 O.co2     1 NAP500      0.0000 
      3 O2A        14.4130   21.3260  -15.8580 O.co2     1 NAP500      0.0000 
      4 O5B        14.1690   21.0660  -13.3020 O.3       1 NAP500      0.0000 
      5 C5B        15.5830   21.0330  -13.0150 C.3       1 NAP500      0.0000 
      6 C4B        15.8080   21.4970  -11.5930 C.3       1 NAP500      0.0000 
      7 O4B        17.2030   21.3440  -11.2490 O.3       1 NAP500      0.0000 
      8 C3B        15.4550   22.9590  -11.3230 C.3       1 NAP500      0.0000 
      9 O3B        14.7420   23.0760  -10.0930 O.3       1 NAP500      0.0000 
     10 C2B        16.8040   23.6660  -11.2120 C.3       1 NAP500      0.0000 
     11 O2B        16.7230   24.8030  -10.3260 O.3       1 NAP500      0.0000 
     12 C1B        17.7290   22.5520  -10.7300 C.3       1 NAP500      0.0000 
     13 N9A        19.1120   22.6810  -11.1920 N.pl3     1 NAP500      0.0000 
     14 C8A        19.5380   22.7040  -12.4930 C.2       1 NAP500      0.0000 
     15 N7A        20.8370   22.8240  -12.6220 N.2       1 NAP500      0.0000 
     16 C5A        21.2980   22.8850  -11.3230 C.ar      1 NAP500      0.0000 
     17 C6A        22.5880   23.0200  -10.7740 C.ar      1 NAP500      0.0000 
     18 N6A        23.6960   23.1320  -11.5110 N.pl3     1 NAP500      0.0000 
     19 N1A        22.7020   23.0500   -9.4290 N.ar      1 NAP500      0.0000 
     20 C2A        21.5940   22.9540   -8.6880 C.ar      1 NAP500      0.0000 
     21 N3A        20.3250   22.8240   -9.0880 N.ar      1 NAP500      0.0000 
     22 C4A        20.2440   22.7960  -10.4210 C.ar      1 NAP500      0.0000 
     23 O3         13.8210   19.0540  -14.9590 O.3       1 NAP500      0.0000 
     24 PN         12.9270   17.7440  -14.7460 P.3       1 NAP500      0.0000 
     25 O1N        12.0030   17.6140  -15.8940 O.co2     1 NAP500      0.0000 
     26 O2N        12.3730   17.7580  -13.3730 O.co2     1 NAP500      0.0000 
     27 O5D        14.0360   16.6020  -14.8770 O.3       1 NAP500      0.0000 
     28 C5D        14.8690   16.2560  -13.7440 C.3       1 NAP500      0.0000 
     29 C4D        15.5400   14.9290  -13.9940 C.3       1 NAP500      0.0000 
     30 O4D        14.5360   13.8970  -14.1130 O.3       1 NAP500      0.0000 
     31 C3D        16.3980   14.8500  -15.2570 C.3       1 NAP500      0.0000 
     32 O3D        17.5840   14.0980  -15.0200 O.3       1 NAP500      0.0000 
     33 C2D        15.4720   14.1470  -16.2530 C.3       1 NAP500      0.0000 
     34 O2D        16.2180   13.4180  -17.2200 O.3       1 NAP500      0.0000 
     35 C1D        14.6970   13.2130  -15.3280 C.3       1 NAP500      0.0000 
     36 N1N        13.2960   12.7920  -15.8420 N.pl3     1 NAP500      0.0000 
     37 C2N        12.4250   13.7770  -16.1270 C.ar      1 NAP500      0.0000 
     38 C3N        11.1530   13.4770  -16.5750 C.ar      1 NAP500      0.0000 
     39 C7N        10.1500   14.5470  -16.8880 C.2       1 NAP500      0.0000 
     40 O7N         9.0270   14.2250  -17.3040 O.2       1 NAP500      0.0000 
     41 N7N        10.5050   15.8020  -16.7150 N.am      1 NAP500      0.0000 
     42 C4N        10.7980   12.1430  -16.7250 C.ar      1 NAP500      0.0000 
     43 C5N        11.7080   11.1480  -16.4260 C.ar      1 NAP500      0.0000 
     44 C6N        12.9630   11.4930  -15.9820 C.ar      1 NAP500      0.0000 
     45 P2B        16.2470   26.2530  -10.8720 P.3       1 NAP500      0.0000 
     46 O1X        14.7770   26.2800  -11.1530 O.co2     1 NAP500      0.0000 
     47 O2X        16.6550   27.2660   -9.8090 O.co2     1 NAP500      0.0000 
     48 O3X        17.0930   26.5350  -12.1150 O.co2     1 NAP500      0.0000 
     49 H51A       16.1170   21.6640  -13.7240 H         1 NAP500      0.0000 
     50 H52A       15.9660   20.0250  -13.1660 H         1 NAP500      0.0000 
     51 H4B        15.3220   20.8330  -10.8800 H         1 NAP500      0.0000 
     52 H3B        14.8550   23.3300  -12.1520 H         1 NAP500      0.0000 
     53 HO3A       15.2350   23.7290   -9.5300 H         1 NAP500      0.0000 
     54 H2B        17.1200   23.9980  -12.2000 H         1 NAP500      0.0000 
     55 H1B        17.7500   22.4810   -9.6430 H         1 NAP500      0.0000 
     56 H8A        18.8550   22.6290  -13.3380 H         1 NAP500      0.0000 
     57 H61A       23.6370   23.1220  -12.5240 H         1 NAP500      0.0000 
     58 H62A       24.6000   23.2270  -11.0590 H         1 NAP500      0.0000 
     59 H2A        21.7590   22.9870   -7.6120 H         1 NAP500      0.0000 
     60 H51N       14.2720   16.1970  -12.8350 H         1 NAP500      0.0000 
     61 H52N       15.6260   17.0220  -13.5790 H         1 NAP500      0.0000 
     62 H4D        16.1070   14.6160  -13.1180 H         1 NAP500      0.0000 
     63 H3D        16.6870   15.8270  -15.6400 H         1 NAP500      0.0000 
     64 HO3N       17.8410   13.6740  -15.8800 H         1 NAP500      0.0000 
     65 H2D        14.8320   14.8220  -16.8210 H         1 NAP500      0.0000 
     66 HO2N       16.1360   13.8080  -18.1300 H         1 NAP500      0.0000 
     67 H1D        15.2020   12.2660  -15.1410 H         1 NAP500      0.0000 
     68 H2N        12.7420   14.8110  -15.9970 H         1 NAP500      0.0000 
     69 H71N       11.4390   16.0100  -16.3770 H         1 NAP500      0.0000 
     70 H72N        9.8380   16.5380  -16.9220 H         1 NAP500      0.0000 
     71 H4N         9.8100   11.8480  -17.0760 H         1 NAP500      0.0000 
     72 H5N        11.4390   10.0990  -16.5400 H         1 NAP500      0.0000 
     73 H6N        13.6990   10.7280  -15.7400 H         1 NAP500      0.0000 
@<TRIPOS>BOND
     1    1    2 ar   
     2    1    3 ar   
     3    1    4 1    
     4    1   23 1    
     5    4    5 1    
     6    5    6 1    
     7    5   49 1    
     8    5   50 1    
     9    6    7 1    
    10    6    8 1    
    11    6   51 1    
    12    7   12 1    
    13    8    9 1    
    14    8   10 1    
    15    8   52 1    
    16    9   53 1    
    17   10   11 1    
    18   10   12 1    
    19   10   54 1    
    20   11   45 1    
    21   12   13 1    
    22   12   55 1    
    23   13   14 1    
    24   13   22 1    
    25   14   15 2    
    26   14   56 1    
    27   15   16 1    
    28   16   17 ar   
    29   16   22 ar   
    30   17   18 1    
    31   17   19 ar   
    32   18   57 1    
    33   18   58 1    
    34   19   20 ar   
    35   20   21 ar   
    36   20   59 1    
    37   21   22 ar   
    38   23   24 1    
    39   24   25 ar   
    40   24   26 ar   
    41   24   27 1    
    42   41   69 1    
    43   27   28 1    
    44   28   29 1    
    45   28   60 1    
    46   28   61 1    
    47   29   30 1    
    48   29   31 1    
    49   29   62 1    
    50   30   35 1    
    51   31   32 1    
    52   31   33 1    
    53   31   63 1    
    54   32   64 1    
    55   33   34 1    
    56   33   35 1    
    57   33   65 1    
    58   34   66 1    
    59   35   36 1    
    60   35   67 1    
    61   36   37 ar   
    62   36   44 ar   
    63   37   38 ar   
    64   37   68 1    
    65   38   39 1    
    66   38   42 ar   
    67   39   40 2    
    68   39   41 am   
    69   41   70 1    
    70   42   43 ar   
    71   42   71 1    
    72   43   44 ar   
    73   43   72 1    
    74   44   73 1    
    75   45   46 ar   
    76   45   47 ar   
    77   45   48 ar   
@<TRIPOS>SUBSTRUCTURE
     1 NAP500      1 GROUP   
@<TRIPOS>SET
ATOM$ORANGE STATIC     ATOMS   COLORGROUP SYSTEM 
42 5 5 6 6 8 8 10 10 12 12 14 14 16 16 17 17 20 \
20 22 22 28 28 29 29 31 31 33 33 35 35 37 37 38 38 39 \
39 42 42 43 43 44 44 

