#    Name: 6dzs_1_NAP
#    Modification time : Fri May 22 19:25:09 2020

@<TRIPOS>MOLECULE
6dzs_1_NAP
   73    77     1     0     1
SMALL
NO_CHARGES


@<TRIPOS>ATOM
      1 PA          3.6370  -31.2700   -9.5570 P.3       1 NAP500      0.0000 
      2 O1A         3.8070  -31.3460  -11.0250 O.co2     1 NAP500      0.0000 
      3 O2A         2.3800  -32.0270   -9.1520 O.co2     1 NAP500      0.0000 
      4 O5B         4.9310  -31.8410   -8.7260 O.3       1 NAP500      0.0000 
      5 C5B         4.9480  -31.7870   -7.2890 C.3       1 NAP500      0.0000 
      6 C4B         6.2800  -32.3170   -6.8160 C.3       1 NAP500      0.0000 
      7 O4B         6.3110  -32.3130   -5.3710 O.3       1 NAP500      0.0000 
      8 C3B         6.5960  -33.7480   -7.2520 C.3       1 NAP500      0.0000 
      9 O3B         7.9790  -33.8860   -7.5660 O.3       1 NAP500      0.0000 
     10 C2B         6.2290  -34.5740   -6.0220 C.3       1 NAP500      0.0000 
     11 O2B         6.9810  -35.8030   -5.9570 O.3       1 NAP500      0.0000 
     12 C1B         6.5370  -33.6190   -4.8740 C.3       1 NAP500      0.0000 
     13 N9A         5.7050  -33.8070   -3.6910 N.pl3     1 NAP500      0.0000 
     14 C8A         4.3420  -33.6770   -3.6050 C.2       1 NAP500      0.0000 
     15 N7A         3.8600  -33.8840   -2.4050 N.2       1 NAP500      0.0000 
     16 C5A         4.9830  -34.1740   -1.6420 C.ar      1 NAP500      0.0000 
     17 C6A         5.1500  -34.4940   -0.2860 C.ar      1 NAP500      0.0000 
     18 N6A         4.1470  -34.5680    0.5890 N.pl3     1 NAP500      0.0000 
     19 N1A         6.4050  -34.7390    0.1510 N.ar      1 NAP500      0.0000 
     20 C2A         7.4140  -34.6660   -0.7220 C.ar      1 NAP500      0.0000 
     21 N3A         7.3790  -34.3690   -2.0230 N.ar      1 NAP500      0.0000 
     22 C4A         6.1240  -34.1310   -2.4270 C.ar      1 NAP500      0.0000 
     23 O3          3.4590  -29.7510   -9.1110 O.3       1 NAP500      0.0000 
     24 PN          3.9420  -28.3940   -9.8020 P.3       1 NAP500      0.0000 
     25 O1N         3.1320  -28.1730  -11.0180 O.co2     1 NAP500      0.0000 
     26 O2N         5.4170  -28.4280   -9.9210 O.co2     1 NAP500      0.0000 
     27 O5D         3.4990  -27.3350   -8.6970 O.3       1 NAP500      0.0000 
     28 C5D         4.3790  -27.0490   -7.5870 C.3       1 NAP500      0.0000 
     29 C4D         3.8690  -25.8250   -6.8730 C.3       1 NAP500      0.0000 
     30 O4D         3.9380  -24.6900   -7.7660 O.3       1 NAP500      0.0000 
     31 C3D         2.4210  -25.9090   -6.3810 C.3       1 NAP500      0.0000 
     32 O3D         2.2960  -25.3370   -5.0830 O.3       1 NAP500      0.0000 
     33 C2D         1.6590  -25.0780   -7.4120 C.3       1 NAP500      0.0000 
     34 O2D         0.5050  -24.4670   -6.8480 O.3       1 NAP500      0.0000 
     35 C1D         2.7060  -24.0260   -7.7560 C.3       1 NAP500      0.0000 
     36 N1N         2.5090  -23.3470   -9.1150 N.pl3     1 NAP500      0.0000 
     37 C2N         2.5370  -24.1280  -10.2090 C.ar      1 NAP500      0.0000 
     38 C3N         2.3170  -23.5850  -11.4610 C.ar      1 NAP500      0.0000 
     39 C7N         2.2870  -24.4290  -12.6970 C.2       1 NAP500      0.0000 
     40 O7N         2.0770  -23.8940  -13.7920 O.2       1 NAP500      0.0000 
     41 N7N         2.4750  -25.7220  -12.5700 N.am      1 NAP500      0.0000 
     42 C4N         2.0860  -22.2200  -11.5620 C.ar      1 NAP500      0.0000 
     43 C5N         2.0720  -21.4360  -10.4250 C.ar      1 NAP500      0.0000 
     44 C6N         2.2860  -22.0200   -9.1990 C.ar      1 NAP500      0.0000 
     45 P2B         6.5480  -37.0600   -6.8580 P.3       1 NAP500      0.0000 
     46 O1X         6.7090  -36.7550   -8.3040 O.co2     1 NAP500      0.0000 
     47 O2X         7.4390  -38.2040   -6.4060 O.co2     1 NAP500      0.0000 
     48 O3X         5.0990  -37.3540   -6.4790 O.co2     1 NAP500      0.0000 
     49 H51A        4.1210  -32.3700   -6.8840 H         1 NAP500      0.0000 
     50 H52A        4.7840  -30.7650   -6.9520 H         1 NAP500      0.0000 
     51 H4B         7.0930  -31.6380   -7.0670 H         1 NAP500      0.0000 
     52 H3B         6.0010  -34.0020   -8.1280 H         1 NAP500      0.0000 
     53 HO3A        8.2710  -34.7680   -7.2160 H         1 NAP500      0.0000 
     54 H2B         5.1630  -34.7960   -6.0600 H         1 NAP500      0.0000 
     55 H1B         7.5750  -33.6910   -4.5520 H         1 NAP500      0.0000 
     56 H8A         3.7210  -33.4230   -4.4630 H         1 NAP500      0.0000 
     57 H61A        3.1940  -34.3890    0.2880 H         1 NAP500      0.0000 
     58 H62A        4.3330  -34.8040    1.5580 H         1 NAP500      0.0000 
     59 H2A         8.3960  -34.8800   -0.3020 H         1 NAP500      0.0000 
     60 H51N        5.3970  -26.8760   -7.9350 H         1 NAP500      0.0000 
     61 H52N        4.4170  -27.8900   -6.8970 H         1 NAP500      0.0000 
     62 H4D         4.5390  -25.5390   -6.0640 H         1 NAP500      0.0000 
     63 H3D         2.0440  -26.9300   -6.3540 H         1 NAP500      0.0000 
     64 HO3N        1.4970  -24.7470   -5.0980 H         1 NAP500      0.0000 
     65 H2D         1.3030  -25.6530   -8.2650 H         1 NAP500      0.0000 
     66 HO2N       -0.3350  -24.8970   -7.1560 H         1 NAP500      0.0000 
     67 H1D         2.7500  -23.1950   -7.0530 H         1 NAP500      0.0000 
     68 H2N         2.7350  -25.1920  -10.0890 H         1 NAP500      0.0000 
     69 H71N        2.6350  -26.1110  -11.6460 H         1 NAP500      0.0000 
     70 H72N        2.4570  -26.3080  -13.3980 H         1 NAP500      0.0000 
     71 H4N         1.9130  -21.7360  -12.5220 H         1 NAP500      0.0000 
     72 H5N         1.8930  -20.3640  -10.4950 H         1 NAP500      0.0000 
     73 H6N         2.2790  -21.4250   -8.2880 H         1 NAP500      0.0000 
@<TRIPOS>BOND
     1    1    2 ar   
     2    1    3 ar   
     3    1    4 1    
     4    1   23 1    
     5    4    5 1    
     6    5    6 1    
     7    5   49 1    
     8    5   50 1    
     9    6    7 1    
    10    6    8 1    
    11    6   51 1    
    12    7   12 1    
    13    8    9 1    
    14    8   10 1    
    15    8   52 1    
    16    9   53 1    
    17   10   11 1    
    18   10   12 1    
    19   10   54 1    
    20   11   45 1    
    21   12   13 1    
    22   12   55 1    
    23   13   14 1    
    24   13   22 1    
    25   14   15 2    
    26   14   56 1    
    27   15   16 1    
    28   16   17 ar   
    29   16   22 ar   
    30   17   18 1    
    31   17   19 ar   
    32   18   57 1    
    33   18   58 1    
    34   19   20 ar   
    35   20   21 ar   
    36   20   59 1    
    37   21   22 ar   
    38   23   24 1    
    39   24   25 ar   
    40   24   26 ar   
    41   24   27 1    
    42   27   28 1    
    43   28   29 1    
    44   28   60 1    
    45   28   61 1    
    46   29   30 1    
    47   29   31 1    
    48   29   62 1    
    49   30   35 1    
    50   31   32 1    
    51   31   33 1    
    52   31   63 1    
    53   32   64 1    
    54   33   34 1    
    55   33   35 1    
    56   33   65 1    
    57   34   66 1    
    58   35   36 1    
    59   35   67 1    
    60   36   37 ar   
    61   36   44 ar   
    62   37   38 ar   
    63   37   68 1    
    64   38   39 1    
    65   38   42 ar   
    66   39   40 2    
    67   39   41 am   
    68   41   69 1    
    69   41   70 1    
    70   42   43 ar   
    71   42   71 1    
    72   43   44 ar   
    73   43   72 1    
    74   44   73 1    
    75   45   46 ar   
    76   45   47 ar   
    77   45   48 ar   
@<TRIPOS>SUBSTRUCTURE
     1 NAP500      1 GROUP   
@<TRIPOS>SET
ATOM$ORANGE STATIC     ATOMS   COLORGROUP SYSTEM 
42 5 5 6 6 8 8 10 10 12 12 14 14 16 16 17 17 20 \
20 22 22 28 28 29 29 31 31 33 33 35 35 37 37 38 38 39 \
39 42 42 43 43 44 44 

