#    Name: 6itk_2_NAD
#    Modification time : Fri May 22 19:27:36 2020

@<TRIPOS>MOLECULE
6itk_2_NAD
   44    48     1     0     1
SMALL
NO_CHARGES


@<TRIPOS>ATOM
      1 PA         18.7780   10.1670   16.7940 P.3       1 NAD501      0.0000 
      2 O1A        17.3570   10.6230   16.6920 O.co2     1 NAD501      0.0000 
      3 O2A        18.9290    8.6780   16.7300 O.co2     1 NAD501      0.0000 
      4 O5B        19.5050   10.6720   18.1030 O.3       1 NAD501      0.0000 
      5 C5B        19.5140   12.0450   18.5380 C.3       1 NAD501      0.0000 
      6 C4B        19.4390   12.0390   20.0360 C.3       1 NAD501      0.0000 
      7 O4B        19.7240   13.3790   20.5000 O.3       1 NAD501      0.0000 
      8 C3B        18.0780   11.6280   20.6370 C.3       1 NAD501      0.0000 
      9 O3B        18.2500   10.5930   21.5970 O.3       1 NAD501      0.0000 
     10 C2B        17.5640   12.9100   21.2990 C.3       1 NAD501      0.0000 
     11 O2B        16.9420   12.7030   22.5520 O.3       1 NAD501      0.0000 
     12 C1B        18.8660   13.6500   21.5690 C.3       1 NAD501      0.0000 
     13 N9A        18.7170   15.0880   21.7690 N.pl3     1 NAD501      0.0000 
     14 C8A        17.7460   15.9580   21.3110 C.2       1 NAD501      0.0000 
     15 N7A        17.8770   17.1640   21.8000 N.2       1 NAD501      0.0000 
     16 C5A        18.9620   17.0790   22.6720 C.ar      1 NAD501      0.0000 
     17 C6A        19.5820   18.0060   23.5300 C.ar      1 NAD501      0.0000 
     18 N6A        19.1530   19.2570   23.7030 N.pl3     1 NAD501      0.0000 
     19 N1A        20.6260   17.5640   24.2870 N.ar      1 NAD501      0.0000 
     20 C2A        21.0230   16.2910   24.1510 C.ar      1 NAD501      0.0000 
     21 N3A        20.5230   15.3280   23.3750 N.ar      1 NAD501      0.0000 
     22 C4A        19.4840   15.7970   22.6630 C.ar      1 NAD501      0.0000 
     23 O3         19.6870   10.8850   15.6750 O.3       1 NAD501      0.0000 
     24 PN         21.0710   10.3880   15.0580 P.3       1 NAD501      0.0000 
     25 O1N        20.7990    9.4340   13.9740 O.co2     1 NAD501      0.0000 
     26 O2N        21.9200    9.9350   16.2010 O.co2     1 NAD501      0.0000 
     27 O5D        21.6710   11.7390   14.4480 O.3       1 NAD501      0.0000 
     28 C5D        22.0480   12.8120   15.3490 C.3       1 NAD501      0.0000 
     29 C4D        22.4020   14.0370   14.5460 C.3       1 NAD501      0.0000 
     30 O4D        23.5360   13.7430   13.6950 O.3       1 NAD501      0.0000 
     31 C3D        21.2930   14.5580   13.6110 C.3       1 NAD501      0.0000 
     32 O3D        21.2660   15.9810   13.6190 O.3       1 NAD501      0.0000 
     33 C2D        21.7580   14.0250   12.2510 C.3       1 NAD501      0.0000 
     34 O2D        21.2290   14.7430   11.1510 O.3       1 NAD501      0.0000 
     35 C1D        23.2560   14.2870   12.4170 C.3       1 NAD501      0.0000 
     36 N1N        24.1470   13.6960   11.3800 N.pl3     1 NAD501      0.0000 
     37 C2N        25.2200   14.4500   10.9450 C.ar      1 NAD501      0.0000 
     38 C3N        26.1900   13.8830   10.1520 C.ar      1 NAD501      0.0000 
     39 C7N        27.3930   14.6820    9.7690 C.2       1 NAD501      0.0000 
     40 O7N        27.5740   15.8210   10.2210 O.2       1 NAD501      0.0000 
     41 N7N        28.1790   14.1090    8.8800 N.am      1 NAD501      0.0000 
     42 C4N        26.0130   12.5750    9.6840 C.ar      1 NAD501      0.0000 
     43 C5N        24.8260   11.8990    9.9570 C.ar      1 NAD501      0.0000 
     44 C6N        23.9350   12.4450   10.8560 C.ar      1 NAD501      0.0000 
@<TRIPOS>BOND
     1    1    2 ar   
     2    1    3 ar   
     3    1    4 1    
     4    1   23 1    
     5    4    5 1    
     6    5    6 1    
     7    6    7 1    
     8    6    8 1    
     9    7   12 1    
    10    8    9 1    
    11    8   10 1    
    12   10   11 1    
    13   10   12 1    
    14   12   13 1    
    15   13   14 1    
    16   13   22 1    
    17   14   15 2    
    18   15   16 1    
    19   16   17 ar   
    20   16   22 ar   
    21   17   18 1    
    22   17   19 ar   
    23   19   20 ar   
    24   20   21 ar   
    25   21   22 ar   
    26   23   24 1    
    27   24   25 ar   
    28   24   26 ar   
    29   24   27 1    
    30   27   28 1    
    31   28   29 1    
    32   29   30 1    
    33   29   31 1    
    34   30   35 1    
    35   31   32 1    
    36   31   33 1    
    37   33   34 1    
    38   33   35 1    
    39   35   36 1    
    40   36   37 ar   
    41   36   44 ar   
    42   37   38 ar   
    43   38   39 1    
    44   38   42 ar   
    45   39   40 2    
    46   39   41 am   
    47   42   43 ar   
    48   43   44 ar   
@<TRIPOS>SUBSTRUCTURE
     1 NAD501      1 GROUP   
@<TRIPOS>SET
ATOM$ORANGE STATIC     ATOMS   COLORGROUP SYSTEM 
42 5 5 6 6 8 8 10 10 12 12 14 14 16 16 17 17 20 \
20 22 22 28 28 29 29 31 31 33 33 35 35 37 37 38 38 39 \
39 42 42 43 43 44 44 

