#    Name: 6itk_1_NAD
#    Modification time : Fri May 22 19:27:31 2020

@<TRIPOS>MOLECULE
6itk_1_NAD
   44    48     1     0     1
SMALL
NO_CHARGES


@<TRIPOS>ATOM
      1 PA         18.9340   -9.6720   15.0990 P.3       1 NAD501      0.0000 
      2 O1A        17.5890  -10.2720   14.8940 O.co2     1 NAD501      0.0000 
      3 O2A        19.1090   -8.2000   15.2710 O.co2     1 NAD501      0.0000 
      4 O5B        19.8810  -10.1380   13.9250 O.3       1 NAD501      0.0000 
      5 C5B        19.8900  -11.5370   13.5090 C.3       1 NAD501      0.0000 
      6 C4B        20.1540  -11.5840   12.0250 C.3       1 NAD501      0.0000 
      7 O4B        20.4700  -12.9480   11.6360 O.3       1 NAD501      0.0000 
      8 C3B        18.9790  -11.1300   11.1360 C.3       1 NAD501      0.0000 
      9 O3B        19.3890  -10.1680   10.1750 O.3       1 NAD501      0.0000 
     10 C2B        18.5450  -12.4120   10.4170 C.3       1 NAD501      0.0000 
     11 O2B        18.0930  -12.1790    9.0970 O.3       1 NAD501      0.0000 
     12 C1B        19.8680  -13.1750   10.3940 C.3       1 NAD501      0.0000 
     13 N9A        19.7340  -14.6020   10.1700 N.pl3     1 NAD501      0.0000 
     14 C8A        18.6860  -15.4270   10.5040 C.2       1 NAD501      0.0000 
     15 N7A        18.8620  -16.6570   10.0920 N.2       1 NAD501      0.0000 
     16 C5A        20.0710  -16.6350    9.4060 C.ar      1 NAD501      0.0000 
     17 C6A        20.7750  -17.6230    8.6940 C.ar      1 NAD501      0.0000 
     18 N6A        20.3470  -18.8750    8.5540 N.pl3     1 NAD501      0.0000 
     19 N1A        21.9300  -17.2520    8.0890 N.ar      1 NAD501      0.0000 
     20 C2A        22.3450  -15.9820    8.2240 C.ar      1 NAD501      0.0000 
     21 N3A        21.7710  -14.9650    8.8640 N.ar      1 NAD501      0.0000 
     22 C4A        20.6180  -15.3670    9.4360 C.ar      1 NAD501      0.0000 
     23 O3         19.6650  -10.4100   16.3150 O.3       1 NAD501      0.0000 
     24 PN         20.9180   -9.9300   17.1800 P.3       1 NAD501      0.0000 
     25 O1N        21.9920   -9.4820   16.2690 O.co2     1 NAD501      0.0000 
     26 O2N        20.4690   -8.9500   18.1920 O.co2     1 NAD501      0.0000 
     27 O5D        21.3520  -11.2990   17.9170 O.3       1 NAD501      0.0000 
     28 C5D        21.9380  -12.3460   17.1240 C.3       1 NAD501      0.0000 
     29 C4D        22.0590  -13.6040   17.9510 C.3       1 NAD501      0.0000 
     30 O4D        23.0420  -13.4020   18.9960 O.3       1 NAD501      0.0000 
     31 C3D        20.7660  -14.0610   18.6500 C.3       1 NAD501      0.0000 
     32 O3D        20.6830  -15.4770   18.6170 O.3       1 NAD501      0.0000 
     33 C2D        20.9890  -13.6100   20.0910 C.3       1 NAD501      0.0000 
     34 O2D        20.2180  -14.3570   21.0210 O.3       1 NAD501      0.0000 
     35 C1D        22.4880  -13.9380   20.1940 C.3       1 NAD501      0.0000 
     36 N1N        23.1810  -13.3750   21.3840 N.pl3     1 NAD501      0.0000 
     37 C2N        24.1770  -14.1060   21.9870 C.ar      1 NAD501      0.0000 
     38 C3N        25.0130  -13.5190   22.9430 C.ar      1 NAD501      0.0000 
     39 C7N        26.1330  -14.3170   23.5520 C.2       1 NAD501      0.0000 
     40 O7N        26.4160  -15.4330   23.1000 O.2       1 NAD501      0.0000 
     41 N7N        26.7360  -13.7660   24.5900 N.am      1 NAD501      0.0000 
     42 C4N        24.7550  -12.2240   23.3660 C.ar      1 NAD501      0.0000 
     43 C5N        23.6400  -11.5560   22.8590 C.ar      1 NAD501      0.0000 
     44 C6N        22.8290  -12.1730   21.9190 C.ar      1 NAD501      0.0000 
@<TRIPOS>BOND
     1    1    2 ar   
     2    1    3 ar   
     3    1    4 1    
     4    1   23 1    
     5    4    5 1    
     6    5    6 1    
     7    6    7 1    
     8    6    8 1    
     9    7   12 1    
    10    8    9 1    
    11    8   10 1    
    12   10   11 1    
    13   10   12 1    
    14   12   13 1    
    15   13   14 1    
    16   13   22 1    
    17   14   15 2    
    18   15   16 1    
    19   16   17 ar   
    20   16   22 ar   
    21   17   18 1    
    22   17   19 ar   
    23   19   20 ar   
    24   20   21 ar   
    25   21   22 ar   
    26   23   24 1    
    27   24   25 ar   
    28   24   26 ar   
    29   24   27 1    
    30   27   28 1    
    31   28   29 1    
    32   29   30 1    
    33   29   31 1    
    34   30   35 1    
    35   31   32 1    
    36   31   33 1    
    37   33   34 1    
    38   33   35 1    
    39   35   36 1    
    40   36   37 ar   
    41   36   44 ar   
    42   37   38 ar   
    43   38   39 1    
    44   38   42 ar   
    45   39   40 2    
    46   39   41 am   
    47   42   43 ar   
    48   43   44 ar   
@<TRIPOS>SUBSTRUCTURE
     1 NAD501      1 GROUP   
@<TRIPOS>SET
ATOM$ORANGE STATIC     ATOMS   COLORGROUP SYSTEM 
42 5 5 6 6 8 8 10 10 12 12 14 14 16 16 17 17 20 \
20 22 22 28 28 29 29 31 31 33 33 35 35 37 37 38 38 39 \
39 42 42 43 43 44 44 

