#    Name: 6uak_1_SAH
#    Modification time : Fri May 22 19:27:21 2020

@<TRIPOS>MOLECULE
6uak_1_SAH
   26    28     1     0     0
SMALL
NO_CHARGES


@<TRIPOS>ATOM
      1 N          86.1590   37.8120    5.3050 N.4       1 SAH500      0.0000 
      2 CA         84.7110   37.9570    5.1440 C.3       1 SAH500      0.0000 
      3 CB         84.4360   39.3980    5.5340 C.3       1 SAH500      0.0000 
      4 CG         82.9860   39.8230    5.6150 C.3       1 SAH500      0.0000 
      5 SD         83.0230   41.5960    5.6290 S.3       1 SAH500      0.0000 
      6 C          84.3020   37.6910    3.7120 C.2       1 SAH500      0.0000 
      7 O          83.4390   36.8470    3.4340 O.co2     1 SAH500      0.0000 
      8 OXT        84.8060   38.3150    2.7770 O.co2     1 SAH500      0.0000 
      9 C5'        83.6430   42.2410    7.2020 C.3       1 SAH500      0.0000 
     10 C4'        83.5270   41.3630    8.4690 C.3       1 SAH500      0.0000 
     11 O4'        84.2240   41.9430    9.5740 O.3       1 SAH500      0.0000 
     12 C3'        82.1190   41.0630    9.0060 C.3       1 SAH500      0.0000 
     13 O3'        82.0380   39.6300    9.0220 O.3       1 SAH500      0.0000 
     14 C2'        82.0800   41.6260   10.4290 C.3       1 SAH500      0.0000 
     15 O2'        81.2650   40.8500   11.3220 O.3       1 SAH500      0.0000 
     16 C1'        83.5660   41.5560   10.8040 C.3       1 SAH500      0.0000 
     17 N9         84.0170   42.4510   11.8980 N.pl3     1 SAH500      0.0000 
     18 C8         83.8370   43.7860   11.8930 C.2       1 SAH500      0.0000 
     19 N7         84.3850   44.3530   12.9940 N.2       1 SAH500      0.0000 
     20 C5         84.9500   43.3830   13.7300 C.ar      1 SAH500      0.0000 
     21 C6         85.7150   43.3230   15.0080 C.ar      1 SAH500      0.0000 
     22 N6         85.9440   44.4480   15.7170 N.pl3     1 SAH500      0.0000 
     23 N1         86.1570   42.1120   15.4440 N.ar      1 SAH500      0.0000 
     24 C2         85.9140   40.9830   14.7200 C.ar      1 SAH500      0.0000 
     25 N3         85.2320   40.9750   13.5440 N.ar      1 SAH500      0.0000 
     26 C4         84.7220   42.1170   13.0000 C.ar      1 SAH500      0.0000 
@<TRIPOS>BOND
     1    1    2 1    
     2    2    3 1    
     3    2    6 1    
     4    3    4 1    
     5    4    5 1    
     6    5    9 1    
     7    6    7 ar   
     8    6    8 ar   
     9    9   10 1    
    10   10   11 1    
    11   10   12 1    
    12   11   16 1    
    13   12   13 1    
    14   12   14 1    
    15   14   15 1    
    16   14   16 1    
    17   16   17 1    
    18   17   18 1    
    19   17   26 1    
    20   18   19 2    
    21   19   20 1    
    22   20   21 ar   
    23   20   26 ar   
    24   21   22 1    
    25   21   23 ar   
    26   23   24 ar   
    27   24   25 ar   
    28   25   26 ar   
@<TRIPOS>SUBSTRUCTURE
     1 SAH500      1 GROUP   
@<TRIPOS>SET

