#    Name: 5oof_5_ADP
#    Modification time : Fri May 22 19:18:53 2020

@<TRIPOS>MOLECULE
5oof_5_ADP
   27    29     1     0     1
SMALL
NO_CHARGES


@<TRIPOS>ATOM
      1 PB        135.2860  138.0820  203.2670 P.3       1 ADP401      0.0000 
      2 O1B       134.4390  137.5990  202.0690 O.co2     1 ADP401      0.0000 
      3 O2B       135.3070  137.0240  204.3380 O.co2     1 ADP401      0.0000 
      4 O3B       136.6250  138.6140  202.8530 O.co2     1 ADP401      0.0000 
      5 PA        132.9870  139.5630  203.8140 P.3       1 ADP401      0.0000 
      6 O1A       132.6430  140.1700  202.4810 O.co2     1 ADP401      0.0000 
      7 O2A       132.2400  138.3220  204.2140 O.co2     1 ADP401      0.0000 
      8 O3A       134.5190  139.2920  203.8920 O.3       1 ADP401      0.0000 
      9 O5'       132.7880  140.6910  204.8720 O.3       1 ADP401      0.0000 
     10 C5'       133.6740  140.7250  205.9570 C.3       1 ADP401      0.0000 
     11 C4'       133.9190  142.1630  206.3650 C.3       1 ADP401      0.0000 
     12 O4'       132.9550  143.0520  205.8490 O.3       1 ADP401      0.0000 
     13 C3'       133.8170  142.3630  207.8420 C.3       1 ADP401      0.0000 
     14 O3'       134.9960  141.9120  208.5040 O.3       1 ADP401      0.0000 
     15 C2'       133.6400  143.8390  207.9370 C.3       1 ADP401      0.0000 
     16 O2'       134.9400  144.4090  207.9110 O.3       1 ADP401      0.0000 
     17 C1'       132.8660  144.1870  206.7000 C.3       1 ADP401      0.0000 
     18 N9        131.4720  144.4400  207.0460 N.pl3     1 ADP401      0.0000 
     19 C8        130.5560  143.5510  207.4430 C.2       1 ADP401      0.0000 
     20 N7        129.3710  144.1570  207.6770 N.2       1 ADP401      0.0000 
     21 C5        129.5420  145.4490  207.4280 C.ar      1 ADP401      0.0000 
     22 C6        128.7090  146.6450  207.4850 C.ar      1 ADP401      0.0000 
     23 N6        127.4300  146.5910  207.8740 N.pl3     1 ADP401      0.0000 
     24 N1        129.2780  147.8040  207.1370 N.ar      1 ADP401      0.0000 
     25 C2        130.5620  147.8700  206.7530 C.ar      1 ADP401      0.0000 
     26 N3        131.3900  146.8340  206.6830 N.ar      1 ADP401      0.0000 
     27 C4        130.9320  145.6230  207.0060 C.ar      1 ADP401      0.0000 
@<TRIPOS>BOND
     1    1    2 ar   
     2    1    3 ar   
     3    1    4 ar   
     4    1    8 1    
     5    5    6 ar   
     6    5    7 ar   
     7    5    8 1    
     8    5    9 1    
     9    9   10 1    
    10   10   11 1    
    11   11   12 1    
    12   11   13 1    
    13   12   17 1    
    14   13   14 1    
    15   13   15 1    
    16   15   16 1    
    17   15   17 1    
    18   17   18 1    
    19   18   19 1    
    20   18   27 1    
    21   19   20 2    
    22   20   21 1    
    23   21   22 ar   
    24   21   27 ar   
    25   22   23 1    
    26   22   24 ar   
    27   24   25 ar   
    28   25   26 ar   
    29   26   27 ar   
@<TRIPOS>SUBSTRUCTURE
     1 ADP401      1 GROUP   
@<TRIPOS>SET
ATOM$ORANGE STATIC     ATOMS   COLORGROUP SYSTEM 
20 10 10 11 11 13 13 15 15 17 17 19 19 21 21 22 22 25 \
25 27 27 

