#    Name: 5oof_1_ADP
#    Modification time : Fri May 22 19:18:34 2020

@<TRIPOS>MOLECULE
5oof_1_ADP
   27    29     1     0     1
SMALL
NO_CHARGES


@<TRIPOS>ATOM
      1 PB        133.2430  153.3140   93.7490 P.3       1 ADP401      0.0000 
      2 O1B       132.3430  153.7050   92.5560 O.co2     1 ADP401      0.0000 
      3 O2B       132.4140  152.6600   94.8230 O.co2     1 ADP401      0.0000 
      4 O3B       134.4700  152.5640   93.3290 O.co2     1 ADP401      0.0000 
      5 PA        133.0480  156.0410   94.3040 P.3       1 ADP401      0.0000 
      6 O1A       133.3220  156.6830   92.9710 O.co2     1 ADP401      0.0000 
      7 O2A       131.6090  155.8930   94.7080 O.co2     1 ADP401      0.0000 
      8 O3A       133.7520  154.6530   94.3760 O.3       1 ADP401      0.0000 
      9 O5'       133.8350  156.8750   95.3610 O.3       1 ADP401      0.0000 
     10 C5'       134.3980  156.1840   96.4420 C.3       1 ADP401      0.0000 
     11 C4'       135.6970  156.8510   96.8460 C.3       1 ADP401      0.0000 
     12 O4'       135.8270  158.1570   96.3330 O.3       1 ADP401      0.0000 
     13 C3'       135.8010  157.0500   98.3240 C.3       1 ADP401      0.0000 
     14 O3'       136.1510  155.8340   98.9810 O.3       1 ADP401      0.0000 
     15 C2'       136.8760  158.0770   98.4170 C.3       1 ADP401      0.0000 
     16 O2'       138.1120  157.3800   98.3840 O.3       1 ADP401      0.0000 
     17 C1'       136.6850  158.9080   97.1820 C.3       1 ADP401      0.0000 
     18 N9        136.0510  160.1730   97.5330 N.pl3     1 ADP401      0.0000 
     19 C8        134.7910  160.3720   97.9360 C.2       1 ADP401      0.0000 
     20 N7        134.5650  161.6820   98.1740 N.2       1 ADP401      0.0000 
     21 C5        135.7000  162.3220   97.9220 C.ar      1 ADP401      0.0000 
     22 C6        136.1570  163.7060   97.9810 C.ar      1 ADP401      0.0000 
     23 N6        135.3470  164.6960   98.3750 N.pl3     1 ADP401      0.0000 
     24 N1        137.4230  163.9480   97.6280 N.ar      1 ADP401      0.0000 
     25 C2        138.2460  162.9620   97.2380 C.ar      1 ADP401      0.0000 
     26 N3        137.9150  161.6770   97.1670 N.ar      1 ADP401      0.0000 
     27 C4        136.6730  161.3160   97.4930 C.ar      1 ADP401      0.0000 
@<TRIPOS>BOND
     1    1    2 ar   
     2    1    3 ar   
     3    1    4 ar   
     4    1    8 1    
     5    5    6 ar   
     6    5    7 ar   
     7    5    8 1    
     8    5    9 1    
     9    9   10 1    
    10   10   11 1    
    11   11   12 1    
    12   11   13 1    
    13   12   17 1    
    14   13   14 1    
    15   13   15 1    
    16   15   16 1    
    17   15   17 1    
    18   17   18 1    
    19   18   19 1    
    20   18   27 1    
    21   19   20 2    
    22   20   21 1    
    23   21   22 ar   
    24   21   27 ar   
    25   22   23 1    
    26   22   24 ar   
    27   24   25 ar   
    28   25   26 ar   
    29   26   27 ar   
@<TRIPOS>SUBSTRUCTURE
     1 ADP401      1 GROUP   
@<TRIPOS>SET
ATOM$ORANGE STATIC     ATOMS   COLORGROUP SYSTEM 
20 10 10 11 11 13 13 15 15 17 17 19 19 21 21 22 22 25 \
25 27 27 

