#    Name: 5oof_3_ADP
#    Modification time : Fri May 22 19:18:44 2020

@<TRIPOS>MOLECULE
5oof_3_ADP
   27    29     1     0     1
SMALL
NO_CHARGES


@<TRIPOS>ATOM
      1 PB        132.5320  145.4520  148.5060 P.3       1 ADP401      0.0000 
      2 O1B       131.5560  145.4000  147.3100 O.co2     1 ADP401      0.0000 
      3 O2B       132.0810  144.4960  149.5780 O.co2     1 ADP401      0.0000 
      4 O3B       133.9670  145.3300  148.0890 O.co2     1 ADP401      0.0000 
      5 PA        131.1380  147.8040  149.0580 P.3       1 ADP401      0.0000 
      6 O1A       131.0990  148.5020  147.7260 O.co2     1 ADP401      0.0000 
      7 O2A       129.9170  147.0280  149.4600 O.co2     1 ADP401      0.0000 
      8 O3A       132.3890  146.8770  149.1330 O.3       1 ADP401      0.0000 
      9 O5'       131.4670  148.9020  150.1160 O.3       1 ADP401      0.0000 
     10 C5'       132.2770  148.5350  151.1990 C.3       1 ADP401      0.0000 
     11 C4'       133.1400  149.7120  151.6060 C.3       1 ADP401      0.0000 
     12 O4'       132.6740  150.9390  151.0920 O.3       1 ADP401      0.0000 
     13 C3'       133.1410  149.9350  153.0840 C.3       1 ADP401      0.0000 
     14 O3'       133.9970  149.0040  153.7430 O.3       1 ADP401      0.0000 
     15 C2'       133.6430  151.3350  153.1780 C.3       1 ADP401      0.0000 
     16 O2'       135.0610  151.2630  153.1490 O.3       1 ADP401      0.0000 
     17 C1'       133.1030  151.9930  151.9420 C.3       1 ADP401      0.0000 
     18 N9        131.9700  152.8420  152.2910 N.pl3     1 ADP401      0.0000 
     19 C8        130.7540  152.4560  152.6910 C.2       1 ADP401      0.0000 
     20 N7        129.9660  153.5270  152.9280 N.2       1 ADP401      0.0000 
     21 C5        130.6950  154.6070  152.6780 C.ar      1 ADP401      0.0000 
     22 C6        130.4860  156.0490  152.7370 C.ar      1 ADP401      0.0000 
     23 N6        129.3180  156.5720  153.1280 N.pl3     1 ADP401      0.0000 
     24 N1        131.5110  156.8320  152.3870 N.ar      1 ADP401      0.0000 
     25 C2        132.6880  156.3170  151.9990 C.ar      1 ADP401      0.0000 
     26 N3        132.9660  155.0200  151.9280 N.ar      1 ADP401      0.0000 
     27 C4        132.0160  154.1420  152.2520 C.ar      1 ADP401      0.0000 
@<TRIPOS>BOND
     1    1    2 ar   
     2    1    3 ar   
     3    1    4 ar   
     4    1    8 1    
     5    5    6 ar   
     6    5    7 ar   
     7    5    8 1    
     8    5    9 1    
     9    9   10 1    
    10   10   11 1    
    11   11   12 1    
    12   11   13 1    
    13   12   17 1    
    14   13   14 1    
    15   13   15 1    
    16   15   16 1    
    17   15   17 1    
    18   17   18 1    
    19   18   19 1    
    20   18   27 1    
    21   19   20 2    
    22   20   21 1    
    23   21   22 ar   
    24   21   27 ar   
    25   22   23 1    
    26   22   24 ar   
    27   24   25 ar   
    28   25   26 ar   
    29   26   27 ar   
@<TRIPOS>SUBSTRUCTURE
     1 ADP401      1 GROUP   
@<TRIPOS>SET
ATOM$ORANGE STATIC     ATOMS   COLORGROUP SYSTEM 
20 10 10 11 11 13 13 15 15 17 17 19 19 21 21 22 22 25 \
25 27 27 

