#    Name: 5oof_2_ADP
#    Modification time : Fri May 22 19:18:40 2020

@<TRIPOS>MOLECULE
5oof_2_ADP
   27    29     1     0     1
SMALL
NO_CHARGES


@<TRIPOS>ATOM
      1 PB        165.4950  146.4200  121.1250 P.3       1 ADP401      0.0000 
      2 O1B       166.4590  146.2580  119.9300 O.co2     1 ADP401      0.0000 
      3 O2B       166.1520  147.2360  122.2070 O.co2     1 ADP401      0.0000 
      4 O3B       164.1270  146.8720  120.7100 O.co2     1 ADP401      0.0000 
      5 PA        166.3100  143.8050  121.6530 P.3       1 ADP401      0.0000 
      6 O1A       166.1910  143.1300  120.3140 O.co2     1 ADP401      0.0000 
      7 O2A       167.6770  144.2760  122.0620 O.co2     1 ADP401      0.0000 
      8 O3A       165.3060  144.9940  121.7380 O.3       1 ADP401      0.0000 
      9 O5'       165.7360  142.8020  122.7000 O.3       1 ADP401      0.0000 
     10 C5'       165.0300  143.3340  123.7870 C.3       1 ADP401      0.0000 
     11 C4'       163.9190  142.3830  124.1830 C.3       1 ADP401      0.0000 
     12 O4'       164.0920  141.0870  123.6560 O.3       1 ADP401      0.0000 
     13 C3'       163.8640  142.1510  125.6580 C.3       1 ADP401      0.0000 
     14 O3'       163.2440  143.2480  126.3270 O.3       1 ADP401      0.0000 
     15 C2'       163.0540  140.9040  125.7390 C.3       1 ADP401      0.0000 
     16 O2'       161.6910  141.2990  125.7110 O.3       1 ADP401      0.0000 
     17 C1'       163.4300  140.1510  124.4960 C.3       1 ADP401      0.0000 
     18 N9        164.3380  139.0620  124.8360 N.pl3     1 ADP401      0.0000 
     19 C8        165.6090  139.1540  125.2400 C.2       1 ADP401      0.0000 
     20 N7        166.1300  137.9280  125.4650 N.2       1 ADP401      0.0000 
     21 C5        165.1730  137.0470  125.2050 C.ar      1 ADP401      0.0000 
     22 C6        165.0460  135.5950  125.2490 C.ar      1 ADP401      0.0000 
     23 N6        166.0610  134.8140  125.6350 N.pl3     1 ADP401      0.0000 
     24 N1        163.8690  135.0720  124.8920 N.ar      1 ADP401      0.0000 
     25 C2        162.8420  135.8470  124.5100 C.ar      1 ADP401      0.0000 
     26 N3        162.8690  137.1740  124.4520 N.ar      1 ADP401      0.0000 
     27 C4        163.9950  137.8070  124.7840 C.ar      1 ADP401      0.0000 
@<TRIPOS>BOND
     1    1    2 ar   
     2    1    3 ar   
     3    1    4 ar   
     4    1    8 1    
     5    5    6 ar   
     6    5    7 ar   
     7    5    8 1    
     8    5    9 1    
     9    9   10 1    
    10   10   11 1    
    11   11   12 1    
    12   11   13 1    
    13   12   17 1    
    14   13   14 1    
    15   13   15 1    
    16   15   16 1    
    17   15   17 1    
    18   17   18 1    
    19   18   19 1    
    20   18   27 1    
    21   19   20 2    
    22   20   21 1    
    23   21   22 ar   
    24   21   27 ar   
    25   22   23 1    
    26   22   24 ar   
    27   24   25 ar   
    28   25   26 ar   
    29   26   27 ar   
@<TRIPOS>SUBSTRUCTURE
     1 ADP401      1 GROUP   
@<TRIPOS>SET
ATOM$ORANGE STATIC     ATOMS   COLORGROUP SYSTEM 
20 10 10 11 11 13 13 15 15 17 17 19 19 21 21 22 22 25 \
25 27 27 

