#    Name: 5oof_4_ADP
#    Modification time : Fri May 22 19:18:49 2020

@<TRIPOS>MOLECULE
5oof_4_ADP
   27    29     1     0     1
SMALL
NO_CHARGES


@<TRIPOS>ATOM
      1 PB        164.4030  153.6890  175.9580 P.3       1 ADP401      0.0000 
      2 O1B       165.3410  153.9760  174.7640 O.co2     1 ADP401      0.0000 
      3 O2B       164.6240  154.7120  177.0400 O.co2     1 ADP401      0.0000 
      4 O3B       162.9780  153.4830  175.5390 O.co2     1 ADP401      0.0000 
      5 PA        166.3000  151.7140  176.4890 P.3       1 ADP401      0.0000 
      6 O1A       166.4980  151.0580  175.1500 O.co2     1 ADP401      0.0000 
      7 O2A       167.3110  152.7460  176.9010 O.co2     1 ADP401      0.0000 
      8 O3A       164.8700  152.3290  176.5710 O.3       1 ADP401      0.0000 
      9 O5'       166.2320  150.5600  177.5360 O.3       1 ADP401      0.0000 
     10 C5'       165.3600  150.7200  178.6210 C.3       1 ADP401      0.0000 
     11 C4'       164.7910  149.3720  179.0150 C.3       1 ADP401      0.0000 
     12 O4'       165.5260  148.2910  178.4890 O.3       1 ADP401      0.0000 
     13 C3'       164.8410  149.1400  180.4900 C.3       1 ADP401      0.0000 
     14 O3'       163.7950  149.8430  181.1570 O.3       1 ADP401      0.0000 
     15 C2'       164.6740  147.6620  180.5700 C.3       1 ADP401      0.0000 
     16 O2'       163.2780  147.4060  180.5380 O.3       1 ADP401      0.0000 
     17 C1'       165.3500  147.1570  179.3280 C.3       1 ADP401      0.0000 
     18 N9        166.6480  146.5880  179.6710 N.pl3     1 ADP401      0.0000 
     19 C8        167.7430  147.2390  180.0770 C.2       1 ADP401      0.0000 
     20 N7        168.7570  146.3750  180.3050 N.2       1 ADP401      0.0000 
     21 C5        168.2940  145.1590  180.0430 C.ar      1 ADP401      0.0000 
     22 C6        168.8300  143.8030  180.0880 C.ar      1 ADP401      0.0000 
     23 N6        170.0870  143.5580  180.4770 N.pl3     1 ADP401      0.0000 
     24 N1        168.0110  142.8100  179.7280 N.ar      1 ADP401      0.0000 
     25 C2        166.7470  143.0440  179.3440 C.ar      1 ADP401      0.0000 
     26 N3        166.1790  144.2430  179.2850 N.ar      1 ADP401      0.0000 
     27 C4        166.9020  145.3130  179.6190 C.ar      1 ADP401      0.0000 
@<TRIPOS>BOND
     1    1    2 ar   
     2    1    3 ar   
     3    1    4 ar   
     4    1    8 1    
     5    5    6 ar   
     6    5    7 ar   
     7    5    8 1    
     8    5    9 1    
     9    9   10 1    
    10   10   11 1    
    11   11   12 1    
    12   11   13 1    
    13   12   17 1    
    14   13   14 1    
    15   13   15 1    
    16   15   16 1    
    17   15   17 1    
    18   17   18 1    
    19   18   19 1    
    20   18   27 1    
    21   19   20 2    
    22   20   21 1    
    23   21   22 ar   
    24   21   27 ar   
    25   22   23 1    
    26   22   24 ar   
    27   24   25 ar   
    28   25   26 ar   
    29   26   27 ar   
@<TRIPOS>SUBSTRUCTURE
     1 ADP401      1 GROUP   
@<TRIPOS>SET
ATOM$ORANGE STATIC     ATOMS   COLORGROUP SYSTEM 
20 10 10 11 11 13 13 15 15 17 17 19 19 21 21 22 22 25 \
25 27 27 

