#    Name: 6auv_2_H4B_CAVITY_N1_6
#    Modification time : Fri May 22 19:35:31 2020

@<TRIPOS>MOLECULE
6auv_2_H4B_CAVITY_N1_6
   22     0     5     0     0
SMALL
NO_CHARGES


@<TRIPOS>ATOM
      1 N          11.3600    3.1500   54.0700 N.am      1 ALA2        0.0000 
      2 NZ         11.4600   -0.5200   54.0000 N.4       2 LYS4        0.0000 
      3 NZ         13.6700    0.7600   54.4900 N.4       2 LYS4        0.0000 
      4 NZ         12.2900    1.3300   54.6300 N.4       2 LYS4        0.0000 
      5 NZ         11.8500    0.0800   55.3200 N.4       2 LYS4        0.0000 
      6 NZ         12.6700    1.9300   55.9500 N.4       2 LYS4        0.0000 
      7 CZ         13.7400    1.4100   52.4700 C.ar      3 PHE5        0.0000 
      8 CZ         12.3600    1.9800   52.6100 C.ar      3 PHE5        0.0000 
      9 CZ         14.1200    2.0100   53.7900 C.ar      3 PHE5        0.0000 
     10 CZ         12.7400    2.5800   53.9300 C.ar      3 PHE5        0.0000 
     11 CZ         12.1900    5.0000   54.6900 C.ar      3 PHE5        0.0000 
     12 CZ         13.1200    3.1800   55.2500 C.ar      3 PHE5        0.0000 
     13 CZ         11.7400    3.7500   55.3900 C.ar      3 PHE5        0.0000 
     14 CA         11.5300    0.1300   51.9900 C.3       4 GLY6        0.0000 
     15 CA         11.0800   -1.1200   52.6800 C.3       4 GLY6        0.0000 
     16 CA          9.7000   -0.5500   52.8200 C.3       4 GLY6        0.0000 
     17 CA         13.2900    0.1600   53.1700 C.3       4 GLY6        0.0000 
     18 CA         10.0800    0.0500   54.1400 C.3       4 GLY6        0.0000 
     19 CA          9.5300    2.4700   54.9000 C.3       4 GLY6        0.0000 
     20 DU         13.3600    0.8100   51.1500 H         5 CUB7        0.0000 
     21 DU         11.9100    0.7300   53.3100 H         5 CUB7        0.0000 
     22 DU         10.9100    1.9000   54.7600 H         5 CUB7        0.0000 
@<TRIPOS>BOND
@<TRIPOS>SUBSTRUCTURE
     1 ALA2        1 GROUP   
     2 LYS4        2 GROUP   
     3 PHE5        7 GROUP   
     4 GLY6       14 GROUP   
     5 CUB7       20 GROUP   
@<TRIPOS>SET

