#    Name: 6auv_2_H4B_CAVITY_N1_12
#    Modification time : Fri May 22 19:35:31 2020

@<TRIPOS>MOLECULE
6auv_2_H4B_CAVITY_N1_12
   71     0     5     0     0
SMALL
NO_CHARGES


@<TRIPOS>ATOM
      1 N          11.3600    3.1500   54.0700 N.am      1 ALA2        0.0000 
      2 N           9.0900    1.2200   55.6000 N.am      1 ALA2        0.0000 
      3 N           8.6400   -0.0300   56.3000 N.am      1 ALA2        0.0000 
      4 N          10.8100    5.5700   54.8300 N.am      1 ALA2        0.0000 
      5 N          10.3600    4.3200   55.5300 N.am      1 ALA2        0.0000 
      6 N           9.4700    1.8200   56.9200 N.am      1 ALA2        0.0000 
      7 N           9.0200    0.5700   57.6200 N.am      1 ALA2        0.0000 
      8 N           8.4700    2.9900   58.3800 N.am      1 ALA2        0.0000 
      9 O           7.4700    4.1600   59.8400 O.2       1 ALA2        0.0000 
     10 NZ         11.4600   -0.5200   54.0000 N.4       2 LYS4        0.0000 
     11 NZ          9.6400   -1.2000   54.8400 N.4       2 LYS4        0.0000 
     12 NZ         13.6700    0.7600   54.4900 N.4       2 LYS4        0.0000 
     13 NZ         12.2900    1.3300   54.6300 N.4       2 LYS4        0.0000 
     14 NZ         11.8500    0.0800   55.3200 N.4       2 LYS4        0.0000 
     15 NZ         12.6700    1.9300   55.9500 N.4       2 LYS4        0.0000 
     16 CZ         13.7400    1.4100   52.4700 C.ar      3 PHE5        0.0000 
     17 CZ         12.3600    1.9800   52.6100 C.ar      3 PHE5        0.0000 
     18 CZ         14.1200    2.0100   53.7900 C.ar      3 PHE5        0.0000 
     19 CZ         12.7400    2.5800   53.9300 C.ar      3 PHE5        0.0000 
     20 CZ         12.1900    5.0000   54.6900 C.ar      3 PHE5        0.0000 
     21 CZ         13.1200    3.1800   55.2500 C.ar      3 PHE5        0.0000 
     22 CZ         11.7400    3.7500   55.3900 C.ar      3 PHE5        0.0000 
     23 CZ         13.0200    6.8500   55.3100 C.ar      3 PHE5        0.0000 
     24 CZ         12.5700    5.6000   56.0100 C.ar      3 PHE5        0.0000 
     25 CZ         11.1200    5.5200   58.1700 C.ar      3 PHE5        0.0000 
     26 CZ          9.7400    6.0900   58.3100 C.ar      3 PHE5        0.0000 
     27 CZ         10.6700    4.2700   58.8600 C.ar      3 PHE5        0.0000 
     28 CZ          9.2900    4.8400   59.0000 C.ar      3 PHE5        0.0000 
     29 CZ          7.9100    5.4100   59.1400 C.ar      3 PHE5        0.0000 
     30 CZ          8.8500    3.5900   59.7000 C.ar      3 PHE5        0.0000 
     31 CZ          8.7400    7.2600   59.7600 C.ar      3 PHE5        0.0000 
     32 CZ          8.2900    6.0100   60.4600 C.ar      3 PHE5        0.0000 
     33 CA         11.5300    0.1300   51.9900 C.3       4 GLY6        0.0000 
     34 CA         11.0800   -1.1200   52.6800 C.3       4 GLY6        0.0000 
     35 CA          9.7000   -0.5500   52.8200 C.3       4 GLY6        0.0000 
     36 CA         13.2900    0.1600   53.1700 C.3       4 GLY6        0.0000 
     37 CA         10.0800    0.0500   54.1400 C.3       4 GLY6        0.0000 
     38 CA          9.5300    2.4700   54.9000 C.3       4 GLY6        0.0000 
     39 CA          9.4300    6.1400   54.9700 C.3       4 GLY6        0.0000 
     40 CA          9.9100    3.0700   56.2200 C.3       4 GLY6        0.0000 
     41 CA         11.6400    7.4200   55.4500 C.3       4 GLY6        0.0000 
     42 CA         10.2600    7.9900   55.5900 C.3       4 GLY6        0.0000 
     43 CA          9.8100    6.7400   56.2900 C.3       4 GLY6        0.0000 
     44 CA          8.4300    7.3100   56.4300 C.3       4 GLY6        0.0000 
     45 CA          9.3600    5.4900   56.9800 C.3       4 GLY6        0.0000 
     46 CA          7.9800    6.0600   57.1200 C.3       4 GLY6        0.0000 
     47 CA          8.9100    4.2400   57.6800 C.3       4 GLY6        0.0000 
     48 CA         13.4000    7.4500   56.6300 C.3       4 GLY6        0.0000 
     49 CA         12.0200    8.0200   56.7700 C.3       4 GLY6        0.0000 
     50 CA         10.6400    8.5900   56.9100 C.3       4 GLY6        0.0000 
     51 CA         12.9500    6.2000   57.3300 C.3       4 GLY6        0.0000 
     52 CA         11.5700    6.7700   57.4700 C.3       4 GLY6        0.0000 
     53 CA          8.8100    7.9100   57.7500 C.3       4 GLY6        0.0000 
     54 CA          8.3600    6.6600   58.4400 C.3       4 GLY6        0.0000 
     55 CA         12.0500    3.7000   58.7300 C.3       4 GLY6        0.0000 
     56 CA         11.9500    7.3700   58.7900 C.3       4 GLY6        0.0000 
     57 CA         10.5700    7.9400   58.9300 C.3       4 GLY6        0.0000 
     58 DU         13.3600    0.8100   51.1500 H         5 CUB7        0.0000 
     59 DU         11.9100    0.7300   53.3100 H         5 CUB7        0.0000 
     60 DU         10.9100    1.9000   54.7600 H         5 CUB7        0.0000 
     61 DU         10.4700    0.6500   55.4600 H         5 CUB7        0.0000 
     62 DU         11.2900    2.5000   56.0900 H         5 CUB7        0.0000 
     63 DU         10.8500    1.2500   56.7800 H         5 CUB7        0.0000 
     64 DU         11.1900    6.1700   56.1500 H         5 CUB7        0.0000 
     65 DU         12.1200    4.3500   56.7100 H         5 CUB7        0.0000 
     66 DU         10.7400    4.9200   56.8500 H         5 CUB7        0.0000 
     67 DU         13.0500    2.5300   57.2700 H         5 CUB7        0.0000 
     68 DU         11.6700    3.1000   57.4100 H         5 CUB7        0.0000 
     69 DU         10.2900    3.6700   57.5400 H         5 CUB7        0.0000 
     70 DU          9.8500    2.4200   58.2400 H         5 CUB7        0.0000 
     71 DU         10.1900    7.3400   57.6100 H         5 CUB7        0.0000 
@<TRIPOS>BOND
@<TRIPOS>SUBSTRUCTURE
     1 ALA2        1 GROUP   
     2 LYS4       10 GROUP   
     3 PHE5       16 GROUP   
     4 GLY6       33 GROUP   
     5 CUB7       58 GROUP   
@<TRIPOS>SET

