#    Name: 6auv_2_H4B_CAVITY_N1_8
#    Modification time : Fri May 22 19:35:31 2020

@<TRIPOS>MOLECULE
6auv_2_H4B_CAVITY_N1_8
   44     0     5     0     0
SMALL
NO_CHARGES


@<TRIPOS>ATOM
      1 N          11.3600    3.1500   54.0700 N.am      1 ALA2        0.0000 
      2 N           9.0900    1.2200   55.6000 N.am      1 ALA2        0.0000 
      3 N           8.6400   -0.0300   56.3000 N.am      1 ALA2        0.0000 
      4 N          10.8100    5.5700   54.8300 N.am      1 ALA2        0.0000 
      5 N          10.3600    4.3200   55.5300 N.am      1 ALA2        0.0000 
      6 N           9.4700    1.8200   56.9200 N.am      1 ALA2        0.0000 
      7 NZ         11.4600   -0.5200   54.0000 N.4       2 LYS4        0.0000 
      8 NZ          9.6400   -1.2000   54.8400 N.4       2 LYS4        0.0000 
      9 NZ         13.6700    0.7600   54.4900 N.4       2 LYS4        0.0000 
     10 NZ         12.2900    1.3300   54.6300 N.4       2 LYS4        0.0000 
     11 NZ         11.8500    0.0800   55.3200 N.4       2 LYS4        0.0000 
     12 NZ         12.6700    1.9300   55.9500 N.4       2 LYS4        0.0000 
     13 CZ         13.7400    1.4100   52.4700 C.ar      3 PHE5        0.0000 
     14 CZ         12.3600    1.9800   52.6100 C.ar      3 PHE5        0.0000 
     15 CZ         14.1200    2.0100   53.7900 C.ar      3 PHE5        0.0000 
     16 CZ         12.7400    2.5800   53.9300 C.ar      3 PHE5        0.0000 
     17 CZ         12.1900    5.0000   54.6900 C.ar      3 PHE5        0.0000 
     18 CZ         13.1200    3.1800   55.2500 C.ar      3 PHE5        0.0000 
     19 CZ         11.7400    3.7500   55.3900 C.ar      3 PHE5        0.0000 
     20 CZ         13.0200    6.8500   55.3100 C.ar      3 PHE5        0.0000 
     21 CZ         12.5700    5.6000   56.0100 C.ar      3 PHE5        0.0000 
     22 CA         11.5300    0.1300   51.9900 C.3       4 GLY6        0.0000 
     23 CA         11.0800   -1.1200   52.6800 C.3       4 GLY6        0.0000 
     24 CA          9.7000   -0.5500   52.8200 C.3       4 GLY6        0.0000 
     25 CA         13.2900    0.1600   53.1700 C.3       4 GLY6        0.0000 
     26 CA         10.0800    0.0500   54.1400 C.3       4 GLY6        0.0000 
     27 CA          9.5300    2.4700   54.9000 C.3       4 GLY6        0.0000 
     28 CA          9.4300    6.1400   54.9700 C.3       4 GLY6        0.0000 
     29 CA          9.9100    3.0700   56.2200 C.3       4 GLY6        0.0000 
     30 CA         11.6400    7.4200   55.4500 C.3       4 GLY6        0.0000 
     31 CA         13.4000    7.4500   56.6300 C.3       4 GLY6        0.0000 
     32 CA         12.9500    6.2000   57.3300 C.3       4 GLY6        0.0000 
     33 DU         13.3600    0.8100   51.1500 H         5 CUB7        0.0000 
     34 DU         11.9100    0.7300   53.3100 H         5 CUB7        0.0000 
     35 DU         10.9100    1.9000   54.7600 H         5 CUB7        0.0000 
     36 DU         10.4700    0.6500   55.4600 H         5 CUB7        0.0000 
     37 DU         11.2900    2.5000   56.0900 H         5 CUB7        0.0000 
     38 DU         10.8500    1.2500   56.7800 H         5 CUB7        0.0000 
     39 DU         11.1900    6.1700   56.1500 H         5 CUB7        0.0000 
     40 DU         12.1200    4.3500   56.7100 H         5 CUB7        0.0000 
     41 DU         10.7400    4.9200   56.8500 H         5 CUB7        0.0000 
     42 DU         13.0500    2.5300   57.2700 H         5 CUB7        0.0000 
     43 DU         11.6700    3.1000   57.4100 H         5 CUB7        0.0000 
     44 DU         10.2900    3.6700   57.5400 H         5 CUB7        0.0000 
@<TRIPOS>BOND
@<TRIPOS>SUBSTRUCTURE
     1 ALA2        1 GROUP   
     2 LYS4        7 GROUP   
     3 PHE5       13 GROUP   
     4 GLY6       22 GROUP   
     5 CUB7       33 GROUP   
@<TRIPOS>SET

