#    Name: 6auv_2_H4B
#    Modification time : Fri May 22 19:35:30 2020

@<TRIPOS>MOLECULE
6auv_2_H4B
   17    18     1     0     1
SMALL
NO_CHARGES


@<TRIPOS>ATOM
      1 N1         14.2580    3.2250   48.4890 N.2       1 H4B802      0.0000 
      2 C2         14.3370    2.7910   49.7740 C.2       1 H4B802      0.0000 
      3 N2         13.2830    2.1500   50.3350 N.pl3     1 H4B802      0.0000 
      4 N3         15.4620    3.0050   50.4950 N.am      1 H4B802      0.0000 
      5 C4         16.5230    3.6490   49.9430 C.2       1 H4B802      0.0000 
      6 O4         17.5660    3.8430   50.6160 O.2       1 H4B802      0.0000 
      7 C4A        16.4460    4.1060   48.6310 C.2       1 H4B802      0.0000 
      8 C8A        15.2910    3.8820   47.9040 C.2       1 H4B802      0.0000 
      9 N5         17.4880    4.7650   48.0640 N.3       1 H4B802      0.0000 
     10 N8         15.1820    4.3110   46.6030 N.pl3     1 H4B802      0.0000 
     11 C6         17.1860    5.6460   46.9330 C.3       1 H4B802      0.0000 
     12 C7         16.3160    4.9260   45.9030 C.3       1 H4B802      0.0000 
     13 C9         18.4480    6.2370   46.3030 C.3       1 H4B802      0.0000 
     14 O9         19.3240    5.1690   45.9130 O.3       1 H4B802      0.0000 
     15 C10        18.1040    7.1460   45.1220 C.3       1 H4B802      0.0000 
     16 C11        19.3240    7.9280   44.6470 C.3       1 H4B802      0.0000 
     17 O10        17.0750    8.0730   45.5120 O.3       1 H4B802      0.0000 
@<TRIPOS>BOND
     1    1    2 2    
     2    1    8 1    
     3    2    3 1    
     4    2    4 1    
     5    4    5 am   
     6    5    6 2    
     7    5    7 1    
     8    7    8 2    
     9    7    9 1    
    10    8   10 1    
    11    9   11 1    
    12   10   12 1    
    13   11   12 1    
    14   11   13 1    
    15   13   14 1    
    16   13   15 1    
    17   15   16 1    
    18   15   17 1    
@<TRIPOS>SUBSTRUCTURE
     1 H4B802      1 GROUP   
@<TRIPOS>SET
ATOM$ORANGE STATIC     ATOMS   COLORGROUP SYSTEM 
18 2 2 5 5 7 7 8 8 11 11 12 12 13 13 15 15 16 \
16 

