#    Name: 6b0c_5_ANP
#    Modification time : Fri May 22 19:30:04 2020

@<TRIPOS>MOLECULE
6b0c_5_ANP
   31    33     1     0     1
SMALL
NO_CHARGES


@<TRIPOS>ATOM
      1 PG        267.6910  169.4230  341.4530 P.3       1 ANP702      0.0000 
      2 O1G       267.1090  169.6770  340.0130 O.co2     1 ANP702      0.0000 
      3 O2G       267.1840  168.0390  342.0010 O.co2     1 ANP702      0.0000 
      4 O3G       267.3080  170.5320  342.3720 O.co2     1 ANP702      0.0000 
      5 PB        269.7250  170.6230  340.2470 P.3       1 ANP702      0.0000 
      6 O1B       269.7230  170.0690  338.8670 O.co2     1 ANP702      0.0000 
      7 O2B       268.6390  171.7220  340.3310 O.co2     1 ANP702      0.0000 
      8 N3B       269.3610  169.4230  341.3420 N.3       1 ANP702      0.0000 
      9 PA        271.1630  172.2880  341.7640 P.3       1 ANP702      0.0000 
     10 O1A       270.6140  173.5670  341.2830 O.co2     1 ANP702      0.0000 
     11 O2A       270.4280  171.6650  342.9510 O.co2     1 ANP702      0.0000 
     12 O3A       271.1080  171.2170  340.6150 O.3       1 ANP702      0.0000 
     13 O5'       272.6950  172.5140  342.0530 O.3       1 ANP702      0.0000 
     14 C5'       273.4260  171.6790  342.9600 C.3       1 ANP702      0.0000 
     15 C4'       274.6760  172.4070  343.3910 C.3       1 ANP702      0.0000 
     16 O4'       275.3410  172.9570  342.2320 O.3       1 ANP702      0.0000 
     17 C3'       274.4630  173.5680  344.3640 C.3       1 ANP702      0.0000 
     18 O3'       275.4260  173.5330  345.4080 O.3       1 ANP702      0.0000 
     19 C2'       274.6440  174.8030  343.4820 C.3       1 ANP702      0.0000 
     20 O2'       275.1550  175.9090  344.2130 O.3       1 ANP702      0.0000 
     21 C1'       275.6840  174.3010  342.4890 C.3       1 ANP702      0.0000 
     22 N9        275.6930  175.0310  341.2290 N.pl3     1 ANP702      0.0000 
     23 C8        274.8070  174.9060  340.1950 C.2       1 ANP702      0.0000 
     24 N7        275.0570  175.7030  339.1820 N.2       1 ANP702      0.0000 
     25 C5        276.1890  176.3990  339.5860 C.ar      1 ANP702      0.0000 
     26 C6        276.9570  177.3980  338.9610 C.ar      1 ANP702      0.0000 
     27 N6        276.6990  177.8850  337.7490 N.pl3     1 ANP702      0.0000 
     28 N1        278.0260  177.8790  339.6370 N.ar      1 ANP702      0.0000 
     29 C2        278.2940  177.3900  340.8500 C.ar      1 ANP702      0.0000 
     30 N3        277.6390  176.4530  341.5370 N.ar      1 ANP702      0.0000 
     31 C4        276.5870  175.9930  340.8480 C.ar      1 ANP702      0.0000 
@<TRIPOS>BOND
     1    1    2 ar   
     2    1    3 ar   
     3    1    4 ar   
     4    1    8 1    
     5    5    6 ar   
     6    5    7 ar   
     7    5    8 1    
     8    5   12 1    
     9    9   10 ar   
    10    9   11 ar   
    11    9   12 1    
    12    9   13 1    
    13   13   14 1    
    14   14   15 1    
    15   15   16 1    
    16   15   17 1    
    17   16   21 1    
    18   17   18 1    
    19   17   19 1    
    20   19   20 1    
    21   19   21 1    
    22   21   22 1    
    23   22   23 1    
    24   22   31 1    
    25   23   24 2    
    26   24   25 1    
    27   25   26 ar   
    28   25   31 ar   
    29   26   27 1    
    30   26   28 ar   
    31   28   29 ar   
    32   29   30 ar   
    33   30   31 ar   
@<TRIPOS>SUBSTRUCTURE
     1 ANP702      1 GROUP   
@<TRIPOS>SET
ATOM$ORANGE STATIC     ATOMS   COLORGROUP SYSTEM 
20 14 14 15 15 17 17 19 19 21 21 23 23 25 25 26 26 29 \
29 31 31 

