#    Name: 6b0c_4_GDP
#    Modification time : Fri May 22 19:29:57 2020

@<TRIPOS>MOLECULE
6b0c_4_GDP
   28    30     1     0     1
SMALL
NO_CHARGES


@<TRIPOS>ATOM
      1 PB        281.7290  214.7240  343.3120 P.3       1 GDP501      0.0000 
      2 O1B       280.5930  213.8230  342.9160 O.co2     1 GDP501      0.0000 
      3 O2B       281.2920  216.1420  343.1000 O.co2     1 GDP501      0.0000 
      4 O3B       282.0070  214.5050  344.7690 O.co2     1 GDP501      0.0000 
      5 O3A       282.9800  214.4320  342.3520 O.3       1 GDP501      0.0000 
      6 PA        284.5180  214.4790  342.8000 P.3       1 GDP501      0.0000 
      7 O1A       285.1710  215.7040  342.2400 O.co2     1 GDP501      0.0000 
      8 O2A       284.7650  214.3940  344.2760 O.co2     1 GDP501      0.0000 
      9 O5'       285.1800  213.2050  342.1040 O.3       1 GDP501      0.0000 
     10 C5'       286.1450  212.4790  342.8520 C.3       1 GDP501      0.0000 
     11 C4'       287.4120  212.3440  342.0320 C.3       1 GDP501      0.0000 
     12 O4'       287.5250  213.4680  341.1710 O.3       1 GDP501      0.0000 
     13 C3'       288.6240  212.3830  342.9360 C.3       1 GDP501      0.0000 
     14 O3'       289.3400  211.1560  342.8180 O.3       1 GDP501      0.0000 
     15 C2'       289.5010  213.4970  342.4280 C.3       1 GDP501      0.0000 
     16 O2'       290.7980  212.9650  342.1910 O.3       1 GDP501      0.0000 
     17 C1'       288.8770  213.9030  341.1190 C.3       1 GDP501      0.0000 
     18 N9        288.9390  215.3660  340.9500 N.pl3     1 GDP501      0.0000 
     19 C8        288.4680  216.2950  341.7870 C.2       1 GDP501      0.0000 
     20 N7        288.6890  217.5380  341.2980 N.2       1 GDP501      0.0000 
     21 C5        289.3140  217.4020  340.1210 C.2       1 GDP501      0.0000 
     22 C6        289.8350  218.2990  339.0770 C.2       1 GDP501      0.0000 
     23 O6        289.7470  219.5320  339.1920 O.2       1 GDP501      0.0000 
     24 N1        290.4200  217.7650  338.0090 N.am      1 GDP501      0.0000 
     25 C2        290.5360  216.4450  337.8660 C.2       1 GDP501      0.0000 
     26 N2        291.1300  215.9620  336.7590 N.pl3     1 GDP501      0.0000 
     27 N3        290.0740  215.5610  338.7740 N.2       1 GDP501      0.0000 
     28 C4        289.4750  215.9740  339.9030 C.2       1 GDP501      0.0000 
@<TRIPOS>BOND
     1    1    2 ar   
     2    1    3 ar   
     3    1    4 ar   
     4    1    5 1    
     5    5    6 1    
     6    6    7 ar   
     7    6    8 ar   
     8    6    9 1    
     9    9   10 1    
    10   10   11 1    
    11   11   12 1    
    12   11   13 1    
    13   12   17 1    
    14   13   14 1    
    15   13   15 1    
    16   15   16 1    
    17   15   17 1    
    18   17   18 1    
    19   18   19 1    
    20   18   28 1    
    21   19   20 2    
    22   20   21 1    
    23   21   22 1    
    24   21   28 2    
    25   22   23 2    
    26   22   24 am   
    27   24   25 1    
    28   25   26 1    
    29   25   27 2    
    30   27   28 1    
@<TRIPOS>SUBSTRUCTURE
     1 GDP501      1 GROUP   
@<TRIPOS>SET
ATOM$ORANGE STATIC     ATOMS   COLORGROUP SYSTEM 
20 10 10 11 11 13 13 15 15 17 17 19 19 21 21 22 22 25 \
25 28 28 

