#    Name: 6b0c_3_GTP
#    Modification time : Fri May 22 19:29:50 2020

@<TRIPOS>MOLECULE
6b0c_3_GTP
   32    34     1     0     1
SMALL
NO_CHARGES


@<TRIPOS>ATOM
      1 PG        279.0970  214.4760  304.1110 P.3       1 GTP501      0.0000 
      2 O1G       279.7960  215.7750  304.4010 O.co2     1 GTP501      0.0000 
      3 O2G       277.7260  214.4570  304.7200 O.co2     1 GTP501      0.0000 
      4 O3G       279.8980  213.3430  304.6780 O.co2     1 GTP501      0.0000 
      5 O3B       278.9850  214.2880  302.5330 O.3       1 GTP501      0.0000 
      6 PB        280.1630  214.8480  301.6200 P.3       1 GTP501      0.0000 
      7 O1B       280.0990  214.3400  300.2140 O.co2     1 GTP501      0.0000 
      8 O2B       280.0700  216.3380  301.6250 O.co2     1 GTP501      0.0000 
      9 O3A       281.5140  214.4000  302.3400 O.3       1 GTP501      0.0000 
     10 PA        282.8970  214.5160  301.5490 P.3       1 GTP501      0.0000 
     11 O1A       282.8040  215.5110  300.4370 O.co2     1 GTP501      0.0000 
     12 O2A       283.9700  214.8320  302.5450 O.co2     1 GTP501      0.0000 
     13 O5'       283.1990  213.0830  300.9260 O.3       1 GTP501      0.0000 
     14 C5'       284.2650  212.3300  301.4510 C.3       1 GTP501      0.0000 
     15 C4'       285.3720  212.1530  300.4230 C.3       1 GTP501      0.0000 
     16 O4'       285.4330  213.2540  299.5590 O.3       1 GTP501      0.0000 
     17 C3'       286.7170  212.1070  301.1000 C.3       1 GTP501      0.0000 
     18 O3'       287.1290  210.7780  301.2560 O.3       1 GTP501      0.0000 
     19 C2'       287.6600  212.8250  300.1740 C.3       1 GTP501      0.0000 
     20 O2'       288.4760  211.9030  299.5080 O.3       1 GTP501      0.0000 
     21 C1'       286.7630  213.4910  299.1640 C.3       1 GTP501      0.0000 
     22 N9        286.9930  214.9360  299.1440 N.pl3     1 GTP501      0.0000 
     23 C8        286.5470  215.8320  300.0590 C.2       1 GTP501      0.0000 
     24 N7        286.9440  217.0510  299.6590 N.2       1 GTP501      0.0000 
     25 C5        287.6200  216.9470  298.5040 C.2       1 GTP501      0.0000 
     26 C6        288.2330  217.8800  297.6900 C.2       1 GTP501      0.0000 
     27 O6        288.2150  219.0680  297.9840 O.2       1 GTP501      0.0000 
     28 N1        288.8620  217.4780  296.5440 N.am      1 GTP501      0.0000 
     29 C2        288.8850  216.1460  296.2240 C.2       1 GTP501      0.0000 
     30 N2        289.5020  215.7380  295.1220 N.pl3     1 GTP501      0.0000 
     31 N3        288.2800  215.2320  297.0500 N.2       1 GTP501      0.0000 
     32 C4        287.6510  215.6230  298.1710 C.2       1 GTP501      0.0000 
@<TRIPOS>BOND
     1    1    2 ar   
     2    1    3 ar   
     3    1    4 ar   
     4    1    5 1    
     5    5    6 1    
     6    6    7 ar   
     7    6    8 ar   
     8    6    9 1    
     9    9   10 1    
    10   10   11 ar   
    11   10   12 ar   
    12   10   13 1    
    13   13   14 1    
    14   14   15 1    
    15   15   16 1    
    16   15   17 1    
    17   16   21 1    
    18   17   18 1    
    19   17   19 1    
    20   19   20 1    
    21   19   21 1    
    22   21   22 1    
    23   22   23 1    
    24   22   32 1    
    25   23   24 2    
    26   24   25 1    
    27   25   26 1    
    28   25   32 2    
    29   26   27 2    
    30   26   28 am   
    31   28   29 1    
    32   29   30 1    
    33   29   31 2    
    34   31   32 1    
@<TRIPOS>SUBSTRUCTURE
     1 GTP501      1 GROUP   
@<TRIPOS>SET
ATOM$ORANGE STATIC     ATOMS   COLORGROUP SYSTEM 
20 14 14 15 15 17 17 19 19 21 21 23 23 25 25 26 26 29 \
29 32 32 

