#    Name: 6b0c_2_GDP
#    Modification time : Fri May 22 19:29:36 2020

@<TRIPOS>MOLECULE
6b0c_2_GDP
   28    30     1     0     1
SMALL
NO_CHARGES


@<TRIPOS>ATOM
      1 PB        222.4460  153.4630  340.6680 P.3       1 GDP501      0.0000 
      2 O1B       221.7900  154.7270  341.1620 O.co2     1 GDP501      0.0000 
      3 O2B       221.6790  152.2660  341.1730 O.co2     1 GDP501      0.0000 
      4 O3B       223.8650  153.4180  341.1780 O.co2     1 GDP501      0.0000 
      5 O3A       222.4640  153.4470  339.0600 O.3       1 GDP501      0.0000 
      6 PA        222.2760  152.0570  338.2740 P.3       1 GDP501      0.0000 
      7 O1A       220.8670  151.5530  338.4100 O.co2     1 GDP501      0.0000 
      8 O2A       223.2530  151.0250  338.7750 O.co2     1 GDP501      0.0000 
      9 O5'       222.5620  152.4250  336.7390 O.3       1 GDP501      0.0000 
     10 C5'       221.5500  152.1720  335.7710 C.3       1 GDP501      0.0000 
     11 C4'       222.1910  151.8700  334.4290 C.3       1 GDP501      0.0000 
     12 O4'       222.9550  150.6780  334.5790 O.3       1 GDP501      0.0000 
     13 C3'       221.1390  151.6180  333.3640 C.3       1 GDP501      0.0000 
     14 O3'       221.2840  152.5670  332.3070 O.3       1 GDP501      0.0000 
     15 C2'       221.4020  150.2320  332.8240 C.3       1 GDP501      0.0000 
     16 O2'       221.6950  150.3180  331.4280 O.3       1 GDP501      0.0000 
     17 C1'       222.6230  149.7280  333.5680 C.3       1 GDP501      0.0000 
     18 N9        222.3540  148.4230  334.2130 N.pl3     1 GDP501      0.0000 
     19 C8        221.8430  148.2450  335.4440 C.2       1 GDP501      0.0000 
     20 N7        221.7330  146.9250  335.7360 N.2       1 GDP501      0.0000 
     21 C5        222.1860  146.2370  334.6730 C.2       1 GDP501      0.0000 
     22 C6        222.3530  144.8110  334.3130 C.2       1 GDP501      0.0000 
     23 O6        222.0230  143.9060  335.1080 O.2       1 GDP501      0.0000 
     24 N1        222.8590  144.5230  333.1070 N.am      1 GDP501      0.0000 
     25 C2        223.2190  145.4770  332.2280 C.2       1 GDP501      0.0000 
     26 N2        223.7250  145.0990  331.0300 N.pl3     1 GDP501      0.0000 
     27 N3        223.0950  146.8010  332.4930 N.2       1 GDP501      0.0000 
     28 C4        222.5930  147.2300  333.6720 C.2       1 GDP501      0.0000 
@<TRIPOS>BOND
     1    1    2 ar   
     2    1    3 ar   
     3    1    4 ar   
     4    1    5 1    
     5    5    6 1    
     6    6    7 ar   
     7    6    8 ar   
     8    6    9 1    
     9    9   10 1    
    10   10   11 1    
    11   11   12 1    
    12   11   13 1    
    13   12   17 1    
    14   13   14 1    
    15   13   15 1    
    16   15   16 1    
    17   15   17 1    
    18   17   18 1    
    19   18   19 1    
    20   18   28 1    
    21   19   20 2    
    22   20   21 1    
    23   21   22 1    
    24   21   28 2    
    25   22   23 2    
    26   22   24 am   
    27   24   25 1    
    28   25   26 1    
    29   25   27 2    
    30   27   28 1    
@<TRIPOS>SUBSTRUCTURE
     1 GDP501      1 GROUP   
@<TRIPOS>SET
ATOM$ORANGE STATIC     ATOMS   COLORGROUP SYSTEM 
20 10 10 11 11 13 13 15 15 17 17 19 19 21 21 22 22 25 \
25 28 28 

