#    Name: 5z6k_1_FOL
#    Modification time : Fri May 22 19:26:50 2020

@<TRIPOS>MOLECULE
5z6k_1_FOL
   32    34     1     0     0
SMALL
NO_CHARGES


@<TRIPOS>ATOM
      1 N1          3.8850    4.5000   12.2380 N.pl3     1 FOL201      0.0000 
      2 C2          3.0270    5.5320   12.3160 C.2       1 FOL201      0.0000 
      3 NA2         3.4940    6.7690   12.6200 N.pl3     1 FOL201      0.0000 
      4 N3          1.6900    5.3880   12.0980 N.2       1 FOL201      0.0000 
      5 C4          1.1220    4.2120   11.7890 C.2       1 FOL201      0.0000 
      6 O4         -0.1090    4.1040   11.6040 O.2       1 FOL201      0.0000 
      7 C4A         2.0140    3.0440   11.6810 C.ar      1 FOL201      0.0000 
      8 N5          1.5530    1.8250   11.3640 N.ar      1 FOL201      0.0000 
      9 C6          2.4150    0.7980   11.2810 C.ar      1 FOL201      0.0000 
     10 C7          3.7680    1.0040   11.5240 C.ar      1 FOL201      0.0000 
     11 N8          4.2670    2.2050   11.8400 N.ar      1 FOL201      0.0000 
     12 C8A         3.4490    3.2670   11.9360 C.ar      1 FOL201      0.0000 
     13 C9          1.8950   -0.5710   10.9130 C.3       1 FOL201      0.0000 
     14 N10         0.6090   -0.4670   10.2260 N.pl3     1 FOL201      0.0000 
     15 C11        -0.1730    1.2870    6.5480 C.ar      1 FOL201      0.0000 
     16 C12        -1.1730    0.6650    7.2810 C.ar      1 FOL201      0.0000 
     17 C13        -0.8990    0.0970    8.5110 C.ar      1 FOL201      0.0000 
     18 C14         0.3970    0.1200    9.0190 C.ar      1 FOL201      0.0000 
     19 C15         1.4030    0.7440    8.2830 C.ar      1 FOL201      0.0000 
     20 C16         1.1280    1.3290    7.0490 C.ar      1 FOL201      0.0000 
     21 C          -0.5130    1.9070    5.2310 C.2       1 FOL201      0.0000 
     22 O          -1.5300    1.5560    4.6500 O.2       1 FOL201      0.0000 
     23 N           0.2980    2.8200    4.7140 N.am      1 FOL201      0.0000 
     24 CA          0.2540    3.1090    3.2900 C.3       1 FOL201      0.0000 
     25 CB         -0.7860    4.1960    2.9890 C.3       1 FOL201      0.0000 
     26 CG         -0.3130    5.5700    3.4460 C.3       1 FOL201      0.0000 
     27 CD         -1.4820    6.5090    3.6740 C.2       1 FOL201      0.0000 
     28 OE1        -1.2640    7.7410    3.6810 O.co2     1 FOL201      0.0000 
     29 OE2        -2.6240    6.0300    3.8530 O.co2     1 FOL201      0.0000 
     30 CT          1.6070    3.5110    2.7850 C.2       1 FOL201      0.0000 
     31 O1          2.5110    3.7600    3.6150 O.co2     1 FOL201      0.0000 
     32 O2          1.7810    3.5720    1.5530 O.co2     1 FOL201      0.0000 
@<TRIPOS>BOND
     1    1    2 1    
     2    1   12 1    
     3    2    3 1    
     4    2    4 2    
     5    4    5 1    
     6    5    6 2    
     7    5    7 1    
     8    7    8 ar   
     9    7   12 ar   
    10    8    9 ar   
    11    9   10 ar   
    12    9   13 1    
    13   10   11 ar   
    14   11   12 ar   
    15   13   14 1    
    16   14   18 1    
    17   15   16 ar   
    18   15   20 ar   
    19   15   21 1    
    20   16   17 ar   
    21   17   18 ar   
    22   18   19 ar   
    23   19   20 ar   
    24   21   22 2    
    25   21   23 am   
    26   23   24 1    
    27   24   25 1    
    28   24   30 1    
    29   25   26 1    
    30   26   27 1    
    31   27   28 ar   
    32   27   29 ar   
    33   30   31 ar   
    34   30   32 ar   
@<TRIPOS>SUBSTRUCTURE
     1 FOL201      1 GROUP   
@<TRIPOS>SET

