#    Name: 5mzr_3_PFL
#    Modification time : Fri May 22 19:14:09 2020

@<TRIPOS>MOLECULE
5mzr_3_PFL
   13    13     1     0     0
SMALL
NO_CHARGES


@<TRIPOS>ATOM
      1 O1         71.4490  -35.1600   31.7140 O.3       1 PFL410      0.0000 
      2 C1         70.8860  -35.7630   32.7820 C.ar      1 PFL410      0.0000 
      3 C2         69.6080  -35.3620   33.1640 C.ar      1 PFL410      0.0000 
      4 C6         71.6580  -36.6160   33.5670 C.ar      1 PFL410      0.0000 
      5 C3         69.1820  -35.6750   34.4580 C.ar      1 PFL410      0.0000 
      6 C7         68.7220  -34.6610   32.1520 C.3       1 PFL410      0.0000 
      7 C4         70.0110  -36.3840   35.3210 C.ar      1 PFL410      0.0000 
      8 C5         71.2340  -36.8640   34.8750 C.ar      1 PFL410      0.0000 
      9 C10        72.6590  -37.5240   32.8780 C.3       1 PFL410      0.0000 
     10 C8         67.2500  -35.0170   32.2520 C.3       1 PFL410      0.0000 
     11 C9         68.9180  -33.1570   32.2030 C.3       1 PFL410      0.0000 
     12 C11        74.0460  -37.4830   33.5040 C.3       1 PFL410      0.0000 
     13 C12        72.1320  -38.9490   32.7960 C.3       1 PFL410      0.0000 
@<TRIPOS>BOND
     1    1    2 1    
     2    2    3 ar   
     3    2    4 ar   
     4    3    5 ar   
     5    3    6 1    
     6    4    8 ar   
     7    4    9 1    
     8    5    7 ar   
     9    6   10 1    
    10    6   11 1    
    11    7    8 ar   
    12    9   12 1    
    13    9   13 1    
@<TRIPOS>SUBSTRUCTURE
     1 PFL410      1 GROUP   
@<TRIPOS>SET

