#    Name: 5mzr_1_PFL
#    Modification time : Fri May 22 19:13:54 2020

@<TRIPOS>MOLECULE
5mzr_1_PFL
   13    13     1     0     0
SMALL
NO_CHARGES


@<TRIPOS>ATOM
      1 O1         45.2600   -8.6260   45.1490 O.3       1 PFL412      0.0000 
      2 C1         46.5960   -8.7110   45.2120 C.ar      1 PFL412      0.0000 
      3 C2         47.0750   -9.8580   44.5870 C.ar      1 PFL412      0.0000 
      4 C6         47.3740   -7.9380   46.0770 C.ar      1 PFL412      0.0000 
      5 C3         48.3360  -10.3190   44.9710 C.ar      1 PFL412      0.0000 
      6 C7         46.2550  -10.4910   43.4740 C.3       1 PFL412      0.0000 
      7 C4         49.1000   -9.6150   45.8940 C.ar      1 PFL412      0.0000 
      8 C5         48.6410   -8.4160   46.4140 C.ar      1 PFL412      0.0000 
      9 C10        46.8120   -6.6630   46.6820 C.3       1 PFL412      0.0000 
     10 C8         46.8030  -10.2130   42.0860 C.3       1 PFL412      0.0000 
     11 C9         45.9940  -11.9750   43.6570 C.3       1 PFL412      0.0000 
     12 C11        47.3630   -6.4020   48.0770 C.3       1 PFL412      0.0000 
     13 C12        47.0090   -5.4560   45.7730 C.3       1 PFL412      0.0000 
@<TRIPOS>BOND
     1    1    2 1    
     2    2    3 ar   
     3    2    4 ar   
     4    3    5 ar   
     5    3    6 1    
     6    4    8 ar   
     7    4    9 1    
     8    5    7 ar   
     9    6   10 1    
    10    6   11 1    
    11    7    8 ar   
    12    9   12 1    
    13    9   13 1    
@<TRIPOS>SUBSTRUCTURE
     1 PFL412      1 GROUP   
@<TRIPOS>SET

