#    Name: 5mzr_2_PFL
#    Modification time : Fri May 22 19:14:02 2020

@<TRIPOS>MOLECULE
5mzr_2_PFL
   13    13     1     0     0
SMALL
NO_CHARGES


@<TRIPOS>ATOM
      1 O1         52.4540  -47.2240   41.3090 O.3       1 PFL409      0.0000 
      2 C1         51.9600  -46.5110   42.3520 C.ar      1 PFL409      0.0000 
      3 C2         51.6820  -45.1630   42.1330 C.ar      1 PFL409      0.0000 
      4 C6         51.8780  -47.0860   43.6230 C.ar      1 PFL409      0.0000 
      5 C3         51.4810  -44.3490   43.2500 C.ar      1 PFL409      0.0000 
      6 C7         51.4060  -44.6760   40.7210 C.3       1 PFL409      0.0000 
      7 C4         51.5270  -44.8780   44.5340 C.ar      1 PFL409      0.0000 
      8 C5         51.7130  -46.2390   44.7200 C.ar      1 PFL409      0.0000 
      9 C10        51.6560  -48.5830   43.7490 C.3       1 PFL409      0.0000 
     10 C8         50.0410  -44.0300   40.5820 C.3       1 PFL409      0.0000 
     11 C9         52.4810  -43.7410   40.1870 C.3       1 PFL409      0.0000 
     12 C11        52.2950  -49.1740   45.0000 C.3       1 PFL409      0.0000 
     13 C12        50.1740  -48.9180   43.6940 C.3       1 PFL409      0.0000 
@<TRIPOS>BOND
     1    1    2 1    
     2    2    3 ar   
     3    2    4 ar   
     4    3    5 ar   
     5    3    6 1    
     6    4    8 ar   
     7    4    9 1    
     8    5    7 ar   
     9    6   10 1    
    10    6   11 1    
    11    7    8 ar   
    12    9   12 1    
    13    9   13 1    
@<TRIPOS>SUBSTRUCTURE
     1 PFL409      1 GROUP   
@<TRIPOS>SET

