#    Name: 5mzr_2_PFL_CAVITY_N1_4
#    Modification time : Fri May 22 19:14:02 2020

@<TRIPOS>MOLECULE
5mzr_2_PFL_CAVITY_N1_4
   41     0     4     0     0
SMALL
NO_CHARGES


@<TRIPOS>ATOM
      1 OG         51.2000  -47.0600   43.1800 O.3       1 SER1        0.0000 
      2 OG         51.3700  -48.4700   43.6700 O.3       1 SER1        0.0000 
      3 OG         51.7100  -51.2800   44.6500 O.3       1 SER1        0.0000 
      4 OG         53.2000  -52.7800   44.4500 O.3       1 SER1        0.0000 
      5 OG         51.7200  -45.1400   43.9200 O.3       1 SER1        0.0000 
      6 OG         51.8800  -46.5500   44.4100 O.3       1 SER1        0.0000 
      7 OG         52.3900  -50.7700   45.8900 O.3       1 SER1        0.0000 
      8 OG         53.8800  -52.2600   45.6800 O.3       1 SER1        0.0000 
      9 OG         52.5600  -52.1800   46.3800 O.3       1 SER1        0.0000 
     10 O          53.2400  -51.6600   47.6100 O.2       2 ALA2        0.0000 
     11 O          53.7600  -49.7400   48.3500 O.2       2 ALA2        0.0000 
     12 CZ         51.5400  -49.8800   44.1600 C.ar      3 PHE5        0.0000 
     13 CZ         53.0300  -51.3700   43.9600 C.ar      3 PHE5        0.0000 
     14 CA         52.7000  -48.5600   42.9700 C.3       4 GLY6        0.0000 
     15 CA         50.0500  -48.3900   44.3700 C.3       4 GLY6        0.0000 
     16 CA         52.8600  -49.9600   43.4600 C.3       4 GLY6        0.0000 
     17 CA         54.3600  -51.4600   43.2600 C.3       4 GLY6        0.0000 
     18 CA         53.2100  -46.6400   43.7100 C.3       4 GLY6        0.0000 
     19 CA         50.5600  -46.4600   45.1100 C.3       4 GLY6        0.0000 
     20 CA         52.0500  -47.9600   44.9000 C.3       4 GLY6        0.0000 
     21 CA         50.7300  -47.8700   45.6000 C.3       4 GLY6        0.0000 
     22 CA         53.5500  -49.4500   44.7000 C.3       4 GLY6        0.0000 
     23 CA         52.2200  -49.3600   45.3900 C.3       4 GLY6        0.0000 
     24 CA         55.0400  -50.9400   44.4900 C.3       4 GLY6        0.0000 
     25 CA         53.7200  -50.8600   45.1900 C.3       4 GLY6        0.0000 
     26 CA         52.4000  -44.6300   45.1500 C.3       4 GLY6        0.0000 
     27 CA         53.8900  -46.1200   44.9400 C.3       4 GLY6        0.0000 
     28 CA         52.5700  -46.0400   45.6400 C.3       4 GLY6        0.0000 
     29 CA         54.0600  -47.5300   45.4400 C.3       4 GLY6        0.0000 
     30 CA         52.7400  -47.4400   46.1300 C.3       4 GLY6        0.0000 
     31 CA         54.2300  -48.9400   45.9300 C.3       4 GLY6        0.0000 
     32 CA         52.9100  -48.8500   46.6300 C.3       4 GLY6        0.0000 
     33 CA         54.4000  -50.3400   46.4200 C.3       4 GLY6        0.0000 
     34 CA         53.0700  -50.2600   47.1200 C.3       4 GLY6        0.0000 
     35 CA         54.5700  -51.7500   46.9100 C.3       4 GLY6        0.0000 
     36 CA         54.5800  -45.6100   46.1800 C.3       4 GLY6        0.0000 
     37 CA         54.7400  -47.0200   46.6700 C.3       4 GLY6        0.0000 
     38 CA         53.4200  -46.9300   47.3700 C.3       4 GLY6        0.0000 
     39 CA         54.9100  -48.4200   47.1600 C.3       4 GLY6        0.0000 
     40 CA         53.5900  -48.3400   47.8600 C.3       4 GLY6        0.0000 
     41 CA         55.0800  -49.8300   47.6500 C.3       4 GLY6        0.0000 
@<TRIPOS>BOND
@<TRIPOS>SUBSTRUCTURE
     1 SER1        1 GROUP   
     2 ALA2       10 GROUP   
     3 PHE5       12 GROUP   
     4 GLY6       14 GROUP   
@<TRIPOS>SET

