#    Name: 5mzr_4_PFL
#    Modification time : Fri May 22 19:14:17 2020

@<TRIPOS>MOLECULE
5mzr_4_PFL
   13    13     1     0     0
SMALL
NO_CHARGES


@<TRIPOS>ATOM
      1 O1         67.5350  -11.5540   33.2200 O.3       1 PFL409      0.0000 
      2 C1         67.6450  -12.5370   34.1200 C.ar      1 PFL409      0.0000 
      3 C2         66.6420  -13.4960   34.2400 C.ar      1 PFL409      0.0000 
      4 C6         68.8240  -12.5740   34.8610 C.ar      1 PFL409      0.0000 
      5 C3         66.8010  -14.4690   35.2240 C.ar      1 PFL409      0.0000 
      6 C7         65.5930  -13.6190   33.1500 C.3       1 PFL409      0.0000 
      7 C4         67.9600  -14.5280   35.9850 C.ar      1 PFL409      0.0000 
      8 C5         68.9690  -13.5950   35.7990 C.ar      1 PFL409      0.0000 
      9 C10        69.9620  -11.6390   34.4940 C.3       1 PFL409      0.0000 
     10 C8         65.0220  -15.0180   32.9870 C.3       1 PFL409      0.0000 
     11 C9         64.4780  -12.6130   33.3140 C.3       1 PFL409      0.0000 
     12 C11        70.7750  -11.1720   35.6940 C.3       1 PFL409      0.0000 
     13 C12        70.8580  -12.2810   33.4530 C.3       1 PFL409      0.0000 
@<TRIPOS>BOND
     1    1    2 1    
     2    2    3 ar   
     3    2    4 ar   
     4    3    5 ar   
     5    3    6 1    
     6    4    8 ar   
     7    4    9 1    
     8    5    7 ar   
     9    6   10 1    
    10    6   11 1    
    11    7    8 ar   
    12    9   12 1    
    13    9   13 1    
@<TRIPOS>SUBSTRUCTURE
     1 PFL409      1 GROUP   
@<TRIPOS>SET

