#    Name: 5ohs_8_NSQ_CAVITY_N1_4
#    Modification time : Fri May 22 19:27:39 2020

@<TRIPOS>MOLECULE
5ohs_8_NSQ_CAVITY_N1_4
   61     0     7     0     0
SMALL
NO_CHARGES


@<TRIPOS>ATOM
      1 OG         -3.7800  -68.5300   58.4200 O.3       1 SER1        0.0000 
      2 OG         -2.9700  -66.2800   57.4100 O.3       1 SER1        0.0000 
      3 OG         -2.1900  -67.5700   57.4000 O.3       1 SER1        0.0000 
      4 OG         -2.5500  -67.7900   58.8400 O.3       1 SER1        0.0000 
      5 OG         -0.9600  -66.8200   57.8200 O.3       1 SER1        0.0000 
      6 OG          1.7300  -70.4600   56.3700 O.3       1 SER1        0.0000 
      7 OG          2.9600  -69.7100   56.7900 O.3       1 SER1        0.0000 
      8 OG          3.7300  -71.0000   56.7900 O.3       1 SER1        0.0000 
      9 OG          3.3800  -71.2200   58.2200 O.3       1 SER1        0.0000 
     10 O          -0.6000  -66.6000   56.3800 O.2       2 ALA2        0.0000 
     11 O           0.1800  -67.8900   56.3800 O.2       2 ALA2        0.0000 
     12 O           1.3100  -68.9500   54.9300 O.2       2 ALA2        0.0000 
     13 O           0.9500  -69.1700   56.3700 O.2       2 ALA2        0.0000 
     14 O           1.4100  -67.1400   56.8000 O.2       2 ALA2        0.0000 
     15 O           2.5400  -68.2100   55.3500 O.2       2 ALA2        0.0000 
     16 O           2.1800  -68.4300   56.7900 O.2       2 ALA2        0.0000 
     17 O           3.7800  -67.4700   55.7800 O.2       2 ALA2        0.0000 
     18 OD1        -1.7700  -69.0700   58.8400 O.co2     3 ASP3        0.0000 
     19 OD1        -0.6400  -70.1400   57.3900 O.co2     3 ASP3        0.0000 
     20 OD1        -0.1800  -68.1100   57.8200 O.co2     3 ASP3        0.0000 
     21 OD1        -0.5400  -68.3300   59.2600 O.co2     3 ASP3        0.0000 
     22 OD1         0.5900  -69.3900   57.8100 O.co2     3 ASP3        0.0000 
     23 OD1         1.3700  -70.6800   57.8100 O.co2     3 ASP3        0.0000 
     24 OD1         1.4700  -68.8700   59.6700 O.co2     3 ASP3        0.0000 
     25 OD1         2.6000  -69.9300   58.2300 O.co2     3 ASP3        0.0000 
     26 OD1         2.2400  -70.1600   59.6700 O.co2     3 ASP3        0.0000 
     27 OD1         3.0200  -71.4400   59.6600 O.co2     3 ASP3        0.0000 
     28 OD1         4.2500  -70.7000   60.0900 O.co2     3 ASP3        0.0000 
     29 OD1         3.8900  -70.9200   61.5300 O.co2     3 ASP3        0.0000 
     30 OD1         5.9000  -71.4600   61.9400 O.co2     3 ASP3        0.0000 
     31 NZ         -3.8400  -66.8000   55.5500 N.4       4 LYS4        0.0000 
     32 NZ         -4.2000  -67.0200   56.9900 N.4       4 LYS4        0.0000 
     33 NZ         -3.4200  -68.3100   56.9800 N.4       4 LYS4        0.0000 
     34 NZ         -2.6100  -66.0600   55.9700 N.4       4 LYS4        0.0000 
     35 NZ         -1.8300  -67.3500   55.9600 N.4       4 LYS4        0.0000 
     36 NZ          3.3200  -69.4900   55.3500 N.4       4 LYS4        0.0000 
     37 NZ          4.5500  -68.7500   55.7700 N.4       4 LYS4        0.0000 
     38 NZ          5.3300  -70.0300   55.7700 N.4       4 LYS4        0.0000 
     39 CZ         -3.0100  -69.8100   58.4200 C.ar      5 PHE5        0.0000 
     40 CZ         -1.0600  -68.6300   55.9600 C.ar      5 PHE5        0.0000 
     41 CZ         -1.4200  -68.8500   57.4000 C.ar      5 PHE5        0.0000 
     42 CZ          1.0500  -67.3700   58.2400 C.ar      5 PHE5        0.0000 
     43 CZ          1.8300  -68.6500   58.2300 C.ar      5 PHE5        0.0000 
     44 CZ          2.6400  -66.4000   57.2200 C.ar      5 PHE5        0.0000 
     45 CZ          3.4200  -67.6900   57.2200 C.ar      5 PHE5        0.0000 
     46 CZ          4.1900  -68.9700   57.2100 C.ar      5 PHE5        0.0000 
     47 CZ          3.8300  -69.1900   58.6500 C.ar      5 PHE5        0.0000 
     48 CZ          3.4800  -69.4100   60.0900 C.ar      5 PHE5        0.0000 
     49 CZ          5.4300  -68.2300   57.6300 C.ar      5 PHE5        0.0000 
     50 CZ          5.8400  -69.7300   59.0700 C.ar      5 PHE5        0.0000 
     51 CZ          5.4800  -69.9600   60.5100 C.ar      5 PHE5        0.0000 
     52 CZ          5.1300  -70.1800   61.9500 C.ar      5 PHE5        0.0000 
     53 CZ          7.0800  -68.9900   59.4900 C.ar      5 PHE5        0.0000 
     54 CZ          6.7200  -69.2100   60.9300 C.ar      5 PHE5        0.0000 
     55 CA         -4.5600  -67.2500   58.4300 C.3       6 GLY6        0.0000 
     56 CA          5.0300  -71.9800   60.0800 C.3       6 GLY6        0.0000 
     57 CA          4.6700  -72.2000   61.5200 C.3       6 GLY6        0.0000 
     58 CA          6.5600  -69.2900   56.1900 C.3       6 GLY6        0.0000 
     59 DU          4.6100  -70.4800   58.6500 H         7 CUB7        0.0000 
     60 DU          6.2000  -69.5100   57.6300 H         7 CUB7        0.0000 
     61 DU          6.2600  -71.2400   60.5000 H         7 CUB7        0.0000 
@<TRIPOS>BOND
@<TRIPOS>SUBSTRUCTURE
     1 SER1        1 GROUP   
     2 ALA2       10 GROUP   
     3 ASP3       18 GROUP   
     4 LYS4       31 GROUP   
     5 PHE5       39 GROUP   
     6 GLY6       55 GROUP   
     7 CUB7       59 GROUP   
@<TRIPOS>SET

