#    Name: 5ohs_5_NSQ_CAVITY_N1_8
#    Modification time : Fri May 22 19:27:25 2020

@<TRIPOS>MOLECULE
5ohs_5_NSQ_CAVITY_N1_8
   75     0     7     0     0
SMALL
NO_CHARGES


@<TRIPOS>ATOM
      1 OG        -64.9600  -14.0600  -18.7500 O.3       1 SER1        0.0000 
      2 OG        -64.5400  -15.5700  -17.3200 O.3       1 SER1        0.0000 
      3 OG        -64.8600  -12.2600  -16.8900 O.3       1 SER1        0.0000 
      4 OG        -64.0800  -13.5400  -16.8900 O.3       1 SER1        0.0000 
      5 OG        -63.3100  -14.8200  -16.9000 O.3       1 SER1        0.0000 
      6 OG        -62.5300  -16.1100  -16.9000 O.3       1 SER1        0.0000 
      7 OG        -61.6000  -17.3100  -12.1700 O.3       1 SER1        0.0000 
      8 OG        -59.1300  -15.8300  -11.3200 O.3       1 SER1        0.0000 
      9 O         -64.9000  -15.7900  -15.8800 O.2       2 ALA2        0.0000 
     10 O         -62.8900  -16.3300  -15.4600 O.2       2 ALA2        0.0000 
     11 O         -63.2500  -16.5500  -14.0200 O.2       2 ALA2        0.0000 
     12 O         -62.1200  -17.6100  -15.4700 O.2       2 ALA2        0.0000 
     13 O         -62.4800  -17.8400  -14.0300 O.2       2 ALA2        0.0000 
     14 N         -57.5400  -14.8700  -12.3400 N.am      2 ALA2        0.0000 
     15 OD1       -65.2600  -16.0100  -14.4400 O.co2     3 ASP3        0.0000 
     16 OD1       -63.6300  -11.5100  -16.4700 O.co2     3 ASP3        0.0000 
     17 OD1       -62.4900  -12.5800  -17.9100 O.co2     3 ASP3        0.0000 
     18 OD1       -62.8500  -12.8000  -16.4700 O.co2     3 ASP3        0.0000 
     19 OD1       -62.0800  -14.0800  -16.4800 O.co2     3 ASP3        0.0000 
     20 OD1       -62.4300  -14.3000  -15.0400 O.co2     3 ASP3        0.0000 
     21 OD1       -62.7900  -14.5200  -13.6000 O.co2     3 ASP3        0.0000 
     22 OD1       -61.6600  -15.5900  -15.0400 O.co2     3 ASP3        0.0000 
     23 OD1       -62.0200  -15.8100  -13.6000 O.co2     3 ASP3        0.0000 
     24 OD1       -60.4300  -14.8500  -14.6200 O.co2     3 ASP3        0.0000 
     25 OD1       -60.7800  -15.0700  -13.1800 O.co2     3 ASP3        0.0000 
     26 OD1       -58.4200  -15.3900  -14.2000 O.co2     3 ASP3        0.0000 
     27 OD1       -58.7800  -15.6100  -12.7600 O.co2     3 ASP3        0.0000 
     28 OD1       -57.1800  -14.6400  -13.7800 O.co2     3 ASP3        0.0000 
     29 OD1       -55.1800  -15.1900  -13.3700 O.co2     3 ASP3        0.0000 
     30 OD1       -55.5300  -15.4100  -11.9300 O.co2     3 ASP3        0.0000 
     31 OD1       -54.4000  -16.4700  -13.3700 O.co2     3 ASP3        0.0000 
     32 OD1       -54.7600  -16.6900  -11.9300 O.co2     3 ASP3        0.0000 
     33 OD1       -53.9400  -14.4400  -12.9500 O.co2     3 ASP3        0.0000 
     34 OD1       -53.1700  -15.7300  -12.9500 O.co2     3 ASP3        0.0000 
     35 OD1       -52.3900  -17.0100  -12.9500 O.co2     3 ASP3        0.0000 
     36 OD1       -52.7500  -17.2300  -11.5200 O.co2     3 ASP3        0.0000 
     37 OD1       -51.9300  -14.9900  -12.5300 O.co2     3 ASP3        0.0000 
     38 NZ        -67.3300  -13.7400  -17.7300 N.4       4 LYS4        0.0000 
     39 NZ        -66.5500  -15.0300  -17.7300 N.4       4 LYS4        0.0000 
     40 NZ        -66.9100  -15.2500  -16.2900 N.4       4 LYS4        0.0000 
     41 NZ        -65.7300  -12.7800  -18.7500 N.4       4 LYS4        0.0000 
     42 NZ        -66.0900  -13.0000  -17.3100 N.4       4 LYS4        0.0000 
     43 NZ        -65.3200  -14.2800  -17.3100 N.4       4 LYS4        0.0000 
     44 NZ        -65.6800  -14.5000  -15.8700 N.4       4 LYS4        0.0000 
     45 NZ        -61.7000  -19.1200  -14.0300 N.4       4 LYS4        0.0000 
     46 NZ        -60.8300  -18.6000  -12.1700 N.4       4 LYS4        0.0000 
     47 NZ        -53.5800  -14.2200  -14.3900 N.4       4 LYS4        0.0000 
     48 CZ        -65.2200  -12.4800  -15.4500 C.ar      5 PHE5        0.0000 
     49 CZ        -64.4400  -13.7600  -15.4500 C.ar      5 PHE5        0.0000 
     50 CZ        -63.6700  -15.0500  -15.4600 C.ar      5 PHE5        0.0000 
     51 CZ        -64.0300  -15.2700  -14.0200 C.ar      5 PHE5        0.0000 
     52 CZ        -61.3400  -18.9000  -15.4700 C.ar      5 PHE5        0.0000 
     53 CZ        -61.3000  -15.3700  -16.4800 C.ar      5 PHE5        0.0000 
     54 CZ        -60.8800  -16.8700  -15.0500 C.ar      5 PHE5        0.0000 
     55 CZ        -60.4700  -18.3800  -13.6100 C.ar      5 PHE5        0.0000 
     56 CZ        -59.6500  -16.1300  -14.6200 C.ar      5 PHE5        0.0000 
     57 CZ        -59.2300  -17.6400  -13.1900 C.ar      5 PHE5        0.0000 
     58 CZ        -58.4600  -18.9200  -13.1900 C.ar      5 PHE5        0.0000 
     59 CZ        -57.3300  -19.9800  -14.6400 C.ar      5 PHE5        0.0000 
     60 CZ        -57.6400  -16.6700  -14.2100 C.ar      5 PHE5        0.0000 
     61 CZ        -58.0000  -16.8900  -12.7700 C.ar      5 PHE5        0.0000 
     62 CZ        -56.8700  -17.9600  -14.2100 C.ar      5 PHE5        0.0000 
     63 CZ        -56.4100  -15.9300  -13.7900 C.ar      5 PHE5        0.0000 
     64 CZ        -55.6300  -17.2100  -13.7900 C.ar      5 PHE5        0.0000 
     65 CA        -64.5000  -12.0300  -18.3300 C.3       6 GLY6        0.0000 
     66 CA        -59.6900  -19.6600  -13.6100 C.3       6 GLY6        0.0000 
     67 CA        -56.7700  -16.1500  -12.3500 C.3       6 GLY6        0.0000 
     68 CA        -57.1300  -16.3700  -10.9100 C.3       6 GLY6        0.0000 
     69 CA        -54.8200  -14.9700  -14.8100 C.3       6 GLY6        0.0000 
     70 CA        -54.0400  -16.2500  -14.8100 C.3       6 GLY6        0.0000 
     71 CA        -52.8100  -15.5100  -14.3900 C.3       6 GLY6        0.0000 
     72 DU        -61.2400  -17.0900  -13.6100 H         7 CUB7        0.0000 
     73 DU        -60.0100  -16.3500  -13.1800 H         7 CUB7        0.0000 
     74 DU        -57.2300  -18.1800  -12.7700 H         7 CUB7        0.0000 
     75 DU        -55.9900  -17.4300  -12.3500 H         7 CUB7        0.0000 
@<TRIPOS>BOND
@<TRIPOS>SUBSTRUCTURE
     1 SER1        1 GROUP   
     2 ALA2        9 GROUP   
     3 ASP3       15 GROUP   
     4 LYS4       38 GROUP   
     5 PHE5       48 GROUP   
     6 GLY6       65 GROUP   
     7 CUB7       72 GROUP   
@<TRIPOS>SET

