#    Name: 5ohs_4_NSQ_CAVITY_N1_8
#    Modification time : Fri May 22 19:27:18 2020

@<TRIPOS>MOLECULE
5ohs_4_NSQ_CAVITY_N1_8
   91     0     7     0     0
SMALL
NO_CHARGES


@<TRIPOS>ATOM
      1 OG         85.7300 -135.5300   90.7100 O.3       1 SER1        0.0000 
      2 OG         85.4100 -132.2200   91.1400 O.3       1 SER1        0.0000 
      3 OG         86.1900 -133.5000   91.1300 O.3       1 SER1        0.0000 
      4 OG         85.8300 -133.7200   92.5700 O.3       1 SER1        0.0000 
      5 OG         87.4200 -132.7600   91.5500 O.3       1 SER1        0.0000 
      6 OG         87.8800 -130.7300   91.9800 O.3       1 SER1        0.0000 
      7 O          87.3600 -131.0300   88.6800 O.2       2 ALA2        0.0000 
      8 O          87.0000 -131.2500   90.1200 O.2       2 ALA2        0.0000 
      9 O          88.5900 -130.2900   89.1000 O.2       2 ALA2        0.0000 
     10 O          88.2400 -130.5100   90.5400 O.2       2 ALA2        0.0000 
     11 O          89.8300 -129.5500   89.5200 O.2       2 ALA2        0.0000 
     12 O          89.4700 -129.7700   90.9600 O.2       2 ALA2        0.0000 
     13 O          90.2900 -127.5200   89.9400 O.2       2 ALA2        0.0000 
     14 N          92.6100 -131.3700   89.9300 N.am      2 ALA2        0.0000 
     15 N          93.8000 -134.1600   91.3600 N.am      2 ALA2        0.0000 
     16 N          94.6200 -131.9100   90.3500 N.am      2 ALA2        0.0000 
     17 N          93.9000 -132.3600   93.2300 N.am      2 ALA2        0.0000 
     18 N          95.0300 -133.4200   91.7800 N.am      2 ALA2        0.0000 
     19 OD1        86.9600 -134.7900   91.1300 O.co2     3 ASP3        0.0000 
     20 OD1        86.6000 -135.0100   92.5700 O.co2     3 ASP3        0.0000 
     21 OD1        88.1900 -134.0400   91.5500 O.co2     3 ASP3        0.0000 
     22 OD1        88.6500 -132.0200   91.9700 O.co2     3 ASP3        0.0000 
     23 OD1        89.7800 -133.0800   90.5300 O.co2     3 ASP3        0.0000 
     24 OD1        91.0200 -132.3400   90.9500 O.co2     3 ASP3        0.0000 
     25 OD1        90.6600 -132.5600   92.3900 O.co2     3 ASP3        0.0000 
     26 OD1        91.7900 -133.6200   90.9400 O.co2     3 ASP3        0.0000 
     27 OD1        91.8900 -131.8200   92.8100 O.co2     3 ASP3        0.0000 
     28 OD1        91.5400 -132.0400   94.2500 O.co2     3 ASP3        0.0000 
     29 OD1        93.0300 -132.8800   91.3700 O.co2     3 ASP3        0.0000 
     30 OD1        92.6700 -133.1000   92.8100 O.co2     3 ASP3        0.0000 
     31 OD1        93.5400 -132.5800   94.6700 O.co2     3 ASP3        0.0000 
     32 OD1        94.7800 -131.8400   95.0900 O.co2     3 ASP3        0.0000 
     33 OD1        94.4200 -132.0600   96.5300 O.co2     3 ASP3        0.0000 
     34 OD1        95.2400 -129.8100   95.5100 O.co2     3 ASP3        0.0000 
     35 OD1        96.0100 -131.0900   95.5100 O.co2     3 ASP3        0.0000 
     36 OD1        95.6500 -131.3100   96.9500 O.co2     3 ASP3        0.0000 
     37 OD1        96.4700 -129.0700   95.9300 O.co2     3 ASP3        0.0000 
     38 NZ         84.5300 -132.7400   89.2800 N.4       4 LYS4        0.0000 
     39 NZ         84.9500 -134.2400   90.7100 N.4       4 LYS4        0.0000 
     40 NZ         85.7700 -132.0000   89.7000 N.4       4 LYS4        0.0000 
     41 NZ         86.5400 -133.2800   89.6900 N.4       4 LYS4        0.0000 
     42 NZ         90.9600 -130.6100   88.0700 N.4       4 LYS4        0.0000 
     43 NZ         90.6000 -130.8300   89.5100 N.4       4 LYS4        0.0000 
     44 NZ         91.0600 -128.8000   89.9400 N.4       4 LYS4        0.0000 
     45 NZ         92.1900 -129.8700   88.5000 N.4       4 LYS4        0.0000 
     46 NZ         91.8400 -130.0900   89.9400 N.4       4 LYS4        0.0000 
     47 NZ         93.1900 -132.8000   96.1100 N.4       4 LYS4        0.0000 
     48 CZ         87.3200 -134.5600   89.6900 C.ar      5 PHE5        0.0000 
     49 CZ         88.1300 -132.3200   88.6700 C.ar      5 PHE5        0.0000 
     50 CZ         87.7800 -132.5400   90.1100 C.ar      5 PHE5        0.0000 
     51 CZ         88.5500 -133.8200   90.1100 C.ar      5 PHE5        0.0000 
     52 CZ         89.3700 -131.5700   89.0900 C.ar      5 PHE5        0.0000 
     53 CZ         91.7300 -131.8900   88.0700 C.ar      5 PHE5        0.0000 
     54 CZ         91.3800 -132.1200   89.5100 C.ar      5 PHE5        0.0000 
     55 CZ         92.1500 -133.4000   89.5100 C.ar      5 PHE5        0.0000 
     56 CZ         92.9700 -131.1500   88.4900 C.ar      5 PHE5        0.0000 
     57 CZ         93.3800 -132.6600   89.9300 C.ar      5 PHE5        0.0000 
     58 CA         85.3700 -135.7500   92.1500 C.3       6 GLY6        0.0000 
     59 CA         91.5200 -126.7800   90.3700 C.3       6 GLY6        0.0000 
     60 CA         91.1600 -127.0000   91.8100 C.3       6 GLY6        0.0000 
     61 CA         92.2900 -128.0600   90.3600 C.3       6 GLY6        0.0000 
     62 CA         94.2600 -132.1400   91.7900 C.3       6 GLY6        0.0000 
     63 CA         92.3900 -126.2600   92.2300 C.3       6 GLY6        0.0000 
     64 CA         92.0400 -126.4800   93.6700 C.3       6 GLY6        0.0000 
     65 CA         93.1700 -127.5400   92.2200 C.3       6 GLY6        0.0000 
     66 CA         92.4500 -127.9800   95.1000 C.3       6 GLY6        0.0000 
     67 CA         95.1400 -131.6100   93.6500 C.3       6 GLY6        0.0000 
     68 CA         93.2700 -125.7300   94.0900 C.3       6 GLY6        0.0000 
     69 CA         92.9100 -125.9600   95.5300 C.3       6 GLY6        0.0000 
     70 CA         94.4000 -126.8000   92.6400 C.3       6 GLY6        0.0000 
     71 CA         94.0400 -127.0200   94.0800 C.3       6 GLY6        0.0000 
     72 DU         89.0100 -131.7900   90.5300 H         7 CUB7        0.0000 
     73 DU         89.1100 -129.9900   92.4000 H         7 CUB7        0.0000 
     74 DU         90.2400 -131.0500   90.9500 H         7 CUB7        0.0000 
     75 DU         89.8900 -131.2700   92.3900 H         7 CUB7        0.0000 
     76 DU         90.7000 -129.0300   91.3800 H         7 CUB7        0.0000 
     77 DU         91.1200 -130.5300   92.8100 H         7 CUB7        0.0000 
     78 DU         90.7600 -130.7500   94.2500 H         7 CUB7        0.0000 
     79 DU         92.2500 -131.5900   91.3700 H         7 CUB7        0.0000 
     80 DU         91.9400 -128.2800   91.8000 H         7 CUB7        0.0000 
     81 DU         91.2200 -128.7300   94.6800 H         7 CUB7        0.0000 
     82 DU         92.7100 -129.5700   91.8000 H         7 CUB7        0.0000 
     83 DU         93.4900 -130.8500   91.7900 H         7 CUB7        0.0000 
     84 DU         93.1300 -131.0700   93.2300 H         7 CUB7        0.0000 
     85 DU         92.7700 -131.2900   94.6700 H         7 CUB7        0.0000 
     86 DU         92.4100 -131.5200   96.1100 H         7 CUB7        0.0000 
     87 DU         92.8100 -127.7600   93.6600 H         7 CUB7        0.0000 
     88 DU         94.3600 -130.3300   93.6500 H         7 CUB7        0.0000 
     89 DU         94.0000 -130.5500   95.0900 H         7 CUB7        0.0000 
     90 DU         94.8200 -128.3000   94.0800 H         7 CUB7        0.0000 
     91 DU         94.8800 -130.0300   96.9500 H         7 CUB7        0.0000 
@<TRIPOS>BOND
@<TRIPOS>SUBSTRUCTURE
     1 SER1        1 GROUP   
     2 ALA2        7 GROUP   
     3 ASP3       19 GROUP   
     4 LYS4       38 GROUP   
     5 PHE5       48 GROUP   
     6 GLY6       58 GROUP   
     7 CUB7       72 GROUP   
@<TRIPOS>SET

