#    Name: 5ohs_6_NSQ
#    Modification time : Fri May 22 19:27:31 2020

@<TRIPOS>MOLECULE
5ohs_6_NSQ
   24    25     1     0     0
SMALL
NO_CHARGES


@<TRIPOS>ATOM
      1 O12       112.0240  -89.2950  101.7640           1 NSQ711      0.0000 
      2 S10       112.0850  -90.7840  101.7100           1 NSQ711      0.0000 
      3 O13       111.7980  -91.2500  100.3470           1 NSQ711      0.0000 
      4 O11       111.1830  -91.4180  102.7020           1 NSQ711      0.0000 
      5 C9        113.6280  -91.2020  102.2220           1 NSQ711      0.0000 
      6 C1        113.9590  -92.6980  102.1320           1 NSQ711      0.0000 
      7 O2        114.2590  -93.0310  100.7660           1 NSQ711      0.0000 
      8 C3        114.6760  -94.3590  100.5350           1 NSQ711      0.0000 
      9 C4        115.8550  -94.7240  101.4380           1 NSQ711      0.0000 
     10 O16       116.2780  -95.9970  101.0990           1 NSQ711      0.0000 
     11 C8        115.5010  -94.5710  102.8800           1 NSQ711      0.0000 
     12 O15       116.6090  -94.9190  103.6910           1 NSQ711      0.0000 
     13 C6        115.0960  -93.1040  103.0630           1 NSQ711      0.0000 
     14 O14       114.6960  -92.9760  104.4010           1 NSQ711      0.0000 
     15 O1        113.5860  -95.2380  100.8830           1 NSQ711      0.0000 
     16 C25       112.4950  -95.2620  100.1410           1 NSQ711      0.0000 
     17 C26       111.2680  -94.9000  100.7100           1 NSQ711      0.0000 
     18 C27       110.1170  -94.9790   99.9350           1 NSQ711      0.0000 
     19 C28       110.2370  -95.3500   98.6200           1 NSQ711      0.0000 
     20 N32       109.0730  -95.4430   97.8240           1 NSQ711      0.0000 
     21 O33       109.1600  -96.0060   96.6810           1 NSQ711      0.0000 
     22 O34       107.9900  -95.0390   98.3320           1 NSQ711      0.0000 
     23 C29       111.4630  -95.6800   98.0750           1 NSQ711      0.0000 
     24 C30       112.5890  -95.6740   98.8460           1 NSQ711      0.0000 
@<TRIPOS>BOND
     1    1    2 du   
     2    2    3 du   
     3    2    4 du   
     4    2    5 du   
     5    5    6 du   
     6    6    7 du   
     7    6   13 du   
     8    7    8 du   
     9    8    9 du   
    10    8   15 du   
    11    9   10 du   
    12    9   11 du   
    13   11   12 du   
    14   11   13 du   
    15   13   14 du   
    16   15   16 du   
    17   16   17 du   
    18   16   24 du   
    19   17   18 du   
    20   18   19 du   
    21   19   20 du   
    22   19   23 du   
    23   20   21 du   
    24   20   22 du   
    25   23   24 du   
@<TRIPOS>SUBSTRUCTURE
     1 NSQ711      1 GROUP   
@<TRIPOS>SET

