#    Name: 5ohs_3_NSQ
#    Modification time : Fri May 22 19:27:10 2020

@<TRIPOS>MOLECULE
5ohs_3_NSQ
   24    25     1     0     0
SMALL
NO_CHARGES


@<TRIPOS>ATOM
      1 O12       -37.6770  -55.0090   -7.9820           1 NSQ703      0.0000 
      2 S10       -37.8470  -55.6690   -6.7070           1 NSQ703      0.0000 
      3 O13       -37.7830  -57.1220   -6.8840           1 NSQ703      0.0000 
      4 O11       -39.1110  -55.2150   -6.0730           1 NSQ703      0.0000 
      5 C9        -36.6570  -55.2850   -5.5680           1 NSQ703      0.0000 
      6 C1        -36.6080  -53.7900   -5.1620           1 NSQ703      0.0000 
      7 O2        -37.4840  -53.6390   -4.0490           1 NSQ703      0.0000 
      8 C3        -37.5360  -52.3560   -3.4150           1 NSQ703      0.0000 
      9 C4        -36.1330  -52.0030   -2.8960           1 NSQ703      0.0000 
     10 O16       -36.2300  -50.7700   -2.2210           1 NSQ703      0.0000 
     11 C8        -35.1680  -51.9430   -4.0740           1 NSQ703      0.0000 
     12 O15       -33.9550  -51.4520   -3.5470           1 NSQ703      0.0000 
     13 C6        -35.1510  -53.3210   -4.7660           1 NSQ703      0.0000 
     14 O14       -34.3730  -53.3230   -5.9960           1 NSQ703      0.0000 
     15 O1        -38.0850  -51.3350   -4.3180           1 NSQ703      0.0000 
     16 C25       -39.4140  -51.4370   -4.5680           1 NSQ703      0.0000 
     17 C26       -40.2430  -51.1660   -3.5070           1 NSQ703      0.0000 
     18 C27       -41.5980  -51.2590   -3.6250           1 NSQ703      0.0000 
     19 C28       -42.1770  -51.6400   -4.8200           1 NSQ703      0.0000 
     20 N32       -43.5830  -51.7660   -4.8180           1 NSQ703      0.0000 
     21 O33       -44.3050  -50.9400   -4.1550           1 NSQ703      0.0000 
     22 O34       -44.0710  -52.7910   -5.4060           1 NSQ703      0.0000 
     23 C29       -41.3630  -51.9430   -5.9120           1 NSQ703      0.0000 
     24 C30       -39.9610  -51.8360   -5.7770           1 NSQ703      0.0000 
@<TRIPOS>BOND
     1    1    2 du   
     2    2    3 du   
     3    2    4 du   
     4    2    5 du   
     5    5    6 du   
     6    6    7 du   
     7    6   13 du   
     8    7    8 du   
     9    8    9 du   
    10    8   15 du   
    11    9   10 du   
    12    9   11 du   
    13   11   12 du   
    14   11   13 du   
    15   13   14 du   
    16   15   16 du   
    17   16   17 du   
    18   16   24 du   
    19   17   18 du   
    20   18   19 du   
    21   19   20 du   
    22   19   23 du   
    23   20   21 du   
    24   20   22 du   
    25   23   24 du   
@<TRIPOS>SUBSTRUCTURE
     1 NSQ703      1 GROUP   
@<TRIPOS>SET

