#    Name: 5ohs_4_NSQ
#    Modification time : Fri May 22 19:27:17 2020

@<TRIPOS>MOLECULE
5ohs_4_NSQ
   24    25     1     0     0
SMALL
NO_CHARGES


@<TRIPOS>ATOM
      1 O12        86.2970 -136.8680   92.4190           1 NSQ708      0.0000 
      2 S10        86.3010 -135.4000   92.2370           1 NSQ708      0.0000 
      3 O13        87.6630 -135.0370   91.6930           1 NSQ708      0.0000 
      4 O11        86.0800 -134.7510   93.5420           1 NSQ708      0.0000 
      5 C9         85.1660 -134.9640   91.1100           1 NSQ708      0.0000 
      6 C1         85.1430 -133.4870   90.6520           1 NSQ708      0.0000 
      7 O2         85.9860 -133.3470   89.5080           1 NSQ708      0.0000 
      8 C3         85.9740 -132.0550   88.8650           1 NSQ708      0.0000 
      9 C4         84.5750 -131.6740   88.4190           1 NSQ708      0.0000 
     10 O16        84.6830 -130.4530   87.7010           1 NSQ708      0.0000 
     11 C8         83.6580 -131.6230   89.6300           1 NSQ708      0.0000 
     12 O15        82.3810 -131.1560   89.1840           1 NSQ708      0.0000 
     13 C6         83.6990 -133.0130   90.2620           1 NSQ708      0.0000 
     14 O14        82.8360 -133.0340   91.4130           1 NSQ708      0.0000 
     15 O1         86.5560 -131.0440   89.7240           1 NSQ708      0.0000 
     16 C25        87.8870 -131.1640   89.9340           1 NSQ708      0.0000 
     17 C26        88.4200 -131.6860   91.0990           1 NSQ708      0.0000 
     18 C27        89.8200 -131.8280   91.2060           1 NSQ708      0.0000 
     19 C28        90.6560 -131.4330   90.1410           1 NSQ708      0.0000 
     20 N32        92.0760 -131.5630   90.1740           1 NSQ708      0.0000 
     21 O33        92.7810 -130.6570   89.6040           1 NSQ708      0.0000 
     22 O34        92.6000 -132.6050   90.7150           1 NSQ708      0.0000 
     23 C29        90.0800 -130.9190   88.9830           1 NSQ708      0.0000 
     24 C30        88.7130 -130.7960   88.8820           1 NSQ708      0.0000 
@<TRIPOS>BOND
     1    1    2 du   
     2    2    3 du   
     3    2    4 du   
     4    2    5 du   
     5    5    6 du   
     6    6    7 du   
     7    6   13 du   
     8    7    8 du   
     9    8    9 du   
    10    8   15 du   
    11    9   10 du   
    12    9   11 du   
    13   11   12 du   
    14   11   13 du   
    15   13   14 du   
    16   15   16 du   
    17   16   17 du   
    18   16   24 du   
    19   17   18 du   
    20   18   19 du   
    21   19   20 du   
    22   19   23 du   
    23   20   21 du   
    24   20   22 du   
    25   23   24 du   
@<TRIPOS>SUBSTRUCTURE
     1 NSQ708      1 GROUP   
@<TRIPOS>SET

