#    Name: 5ohs_8_NSQ_CAVITY_N1_12
#    Modification time : Fri May 22 19:27:39 2020

@<TRIPOS>MOLECULE
5ohs_8_NSQ_CAVITY_N1_12
  100     0     7     0     0
SMALL
NO_CHARGES


@<TRIPOS>ATOM
      1 OG         -3.7800  -68.5300   58.4200 O.3       1 SER1        0.0000 
      2 OG         -2.9700  -66.2800   57.4100 O.3       1 SER1        0.0000 
      3 OG         -2.1900  -67.5700   57.4000 O.3       1 SER1        0.0000 
      4 OG         -2.5500  -67.7900   58.8400 O.3       1 SER1        0.0000 
      5 OG         -0.9600  -66.8200   57.8200 O.3       1 SER1        0.0000 
      6 OG          1.7300  -70.4600   56.3700 O.3       1 SER1        0.0000 
      7 OG          2.9600  -69.7100   56.7900 O.3       1 SER1        0.0000 
      8 OG          3.7300  -71.0000   56.7900 O.3       1 SER1        0.0000 
      9 OG          3.3800  -71.2200   58.2200 O.3       1 SER1        0.0000 
     10 OG         10.3200  -68.7900   60.3200 O.3       1 SER1        0.0000 
     11 OG          9.9600  -69.0100   61.7600 O.3       1 SER1        0.0000 
     12 OG         10.7300  -70.3000   61.7600 O.3       1 SER1        0.0000 
     13 O          -0.6000  -66.6000   56.3800 O.2       2 ALA2        0.0000 
     14 O           0.1800  -67.8900   56.3800 O.2       2 ALA2        0.0000 
     15 O           1.3100  -68.9500   54.9300 O.2       2 ALA2        0.0000 
     16 O           0.9500  -69.1700   56.3700 O.2       2 ALA2        0.0000 
     17 O           1.4100  -67.1400   56.8000 O.2       2 ALA2        0.0000 
     18 O           2.5400  -68.2100   55.3500 O.2       2 ALA2        0.0000 
     19 O           2.1800  -68.4300   56.7900 O.2       2 ALA2        0.0000 
     20 O           4.1300  -67.2400   54.3400 O.2       2 ALA2        0.0000 
     21 O           3.7800  -67.4700   55.7800 O.2       2 ALA2        0.0000 
     22 N          10.3800  -70.5200   63.2000 N.am      2 ALA2        0.0000 
     23 OD1        -1.7700  -69.0700   58.8400 O.co2     3 ASP3        0.0000 
     24 OD1        -0.6400  -70.1400   57.3900 O.co2     3 ASP3        0.0000 
     25 OD1        -0.1800  -68.1100   57.8200 O.co2     3 ASP3        0.0000 
     26 OD1        -0.5400  -68.3300   59.2600 O.co2     3 ASP3        0.0000 
     27 OD1         0.5900  -69.3900   57.8100 O.co2     3 ASP3        0.0000 
     28 OD1         1.3700  -70.6800   57.8100 O.co2     3 ASP3        0.0000 
     29 OD1         1.4700  -68.8700   59.6700 O.co2     3 ASP3        0.0000 
     30 OD1         2.6000  -69.9300   58.2300 O.co2     3 ASP3        0.0000 
     31 OD1         2.2400  -70.1600   59.6700 O.co2     3 ASP3        0.0000 
     32 OD1         3.0200  -71.4400   59.6600 O.co2     3 ASP3        0.0000 
     33 OD1         4.2500  -70.7000   60.0900 O.co2     3 ASP3        0.0000 
     34 OD1         3.8900  -70.9200   61.5300 O.co2     3 ASP3        0.0000 
     35 OD1         5.9000  -71.4600   61.9400 O.co2     3 ASP3        0.0000 
     36 OD1         7.1300  -70.7200   62.3600 O.co2     3 ASP3        0.0000 
     37 OD1         8.2700  -71.7800   60.9200 O.co2     3 ASP3        0.0000 
     38 OD1         7.9100  -72.0000   62.3600 O.co2     3 ASP3        0.0000 
     39 OD1         9.1400  -71.2600   62.7800 O.co2     3 ASP3        0.0000 
     40 OD1         8.7800  -71.4800   64.2200 O.co2     3 ASP3        0.0000 
     41 OD1         9.9200  -72.5400   62.7700 O.co2     3 ASP3        0.0000 
     42 NZ         -3.8400  -66.8000   55.5500 N.4       4 LYS4        0.0000 
     43 NZ         -4.2000  -67.0200   56.9900 N.4       4 LYS4        0.0000 
     44 NZ         -3.4200  -68.3100   56.9800 N.4       4 LYS4        0.0000 
     45 NZ         -2.6100  -66.0600   55.9700 N.4       4 LYS4        0.0000 
     46 NZ         -1.8300  -67.3500   55.9600 N.4       4 LYS4        0.0000 
     47 NZ          3.3200  -69.4900   55.3500 N.4       4 LYS4        0.0000 
     48 NZ          4.5500  -68.7500   55.7700 N.4       4 LYS4        0.0000 
     49 NZ          5.3300  -70.0300   55.7700 N.4       4 LYS4        0.0000 
     50 CZ         -3.0100  -69.8100   58.4200 C.ar      5 PHE5        0.0000 
     51 CZ         -1.0600  -68.6300   55.9600 C.ar      5 PHE5        0.0000 
     52 CZ         -1.4200  -68.8500   57.4000 C.ar      5 PHE5        0.0000 
     53 CZ          1.0500  -67.3700   58.2400 C.ar      5 PHE5        0.0000 
     54 CZ          1.8300  -68.6500   58.2300 C.ar      5 PHE5        0.0000 
     55 CZ          2.6400  -66.4000   57.2200 C.ar      5 PHE5        0.0000 
     56 CZ          3.4200  -67.6900   57.2200 C.ar      5 PHE5        0.0000 
     57 CZ          4.1900  -68.9700   57.2100 C.ar      5 PHE5        0.0000 
     58 CZ          3.8300  -69.1900   58.6500 C.ar      5 PHE5        0.0000 
     59 CZ          3.4800  -69.4100   60.0900 C.ar      5 PHE5        0.0000 
     60 CZ          5.4300  -68.2300   57.6300 C.ar      5 PHE5        0.0000 
     61 CZ          5.8400  -69.7300   59.0700 C.ar      5 PHE5        0.0000 
     62 CZ          5.4800  -69.9600   60.5100 C.ar      5 PHE5        0.0000 
     63 CZ          5.1300  -70.1800   61.9500 C.ar      5 PHE5        0.0000 
     64 CZ          6.6600  -67.4900   58.0500 C.ar      5 PHE5        0.0000 
     65 CZ          7.0800  -68.9900   59.4900 C.ar      5 PHE5        0.0000 
     66 CZ          6.7200  -69.2100   60.9300 C.ar      5 PHE5        0.0000 
     67 CZ          6.3600  -69.4300   62.3700 C.ar      5 PHE5        0.0000 
     68 CZ          7.9500  -68.4700   61.3500 C.ar      5 PHE5        0.0000 
     69 CZ          7.5900  -68.6900   62.7900 C.ar      5 PHE5        0.0000 
     70 CA         -4.5600  -67.2500   58.4300 C.3       6 GLY6        0.0000 
     71 CA          5.0300  -71.9800   60.0800 C.3       6 GLY6        0.0000 
     72 CA          4.6700  -72.2000   61.5200 C.3       6 GLY6        0.0000 
     73 CA          5.0100  -66.7200   56.2000 C.3       6 GLY6        0.0000 
     74 CA          5.7800  -68.0100   56.1900 C.3       6 GLY6        0.0000 
     75 CA          6.5600  -69.2900   56.1900 C.3       6 GLY6        0.0000 
     76 CA          7.0300  -72.5200   60.5000 C.3       6 GLY6        0.0000 
     77 CA          7.7900  -68.5500   56.6100 C.3       6 GLY6        0.0000 
     78 CA          7.4300  -68.7700   58.0500 C.3       6 GLY6        0.0000 
     79 CA          8.2100  -70.0500   58.0400 C.3       6 GLY6        0.0000 
     80 CA          7.8500  -70.2800   59.4800 C.3       6 GLY6        0.0000 
     81 CA          8.6700  -68.0300   58.4700 C.3       6 GLY6        0.0000 
     82 CA          8.3100  -68.2500   59.9100 C.3       6 GLY6        0.0000 
     83 CA          9.0800  -69.5300   59.9000 C.3       6 GLY6        0.0000 
     84 CA          9.8600  -70.8200   59.9000 C.3       6 GLY6        0.0000 
     85 CA          9.5000  -71.0400   61.3400 C.3       6 GLY6        0.0000 
     86 CA          9.5400  -67.5100   60.3300 C.3       6 GLY6        0.0000 
     87 CA          9.1800  -67.7300   61.7700 C.3       6 GLY6        0.0000 
     88 CA          8.8900  -69.6800   66.0800 C.3       6 GLY6        0.0000 
     89 DU          4.6100  -70.4800   58.6500 H         7 CUB7        0.0000 
     90 DU          6.2000  -69.5100   57.6300 H         7 CUB7        0.0000 
     91 DU          6.2600  -71.2400   60.5000 H         7 CUB7        0.0000 
     92 DU          7.4900  -70.5000   60.9200 H         7 CUB7        0.0000 
     93 DU          8.7300  -69.7500   61.3400 H         7 CUB7        0.0000 
     94 DU          8.3700  -69.9800   62.7800 H         7 CUB7        0.0000 
     95 DU          8.0100  -70.2000   64.2200 H         7 CUB7        0.0000 
     96 DU          8.8300  -67.9500   63.2100 H         7 CUB7        0.0000 
     97 DU          8.4700  -68.1700   64.6500 H         7 CUB7        0.0000 
     98 DU          9.6000  -69.2300   63.2000 H         7 CUB7        0.0000 
     99 DU          9.2400  -69.4500   64.6400 H         7 CUB7        0.0000 
    100 DU         10.0200  -70.7400   64.6400 H         7 CUB7        0.0000 
@<TRIPOS>BOND
@<TRIPOS>SUBSTRUCTURE
     1 SER1        1 GROUP   
     2 ALA2       13 GROUP   
     3 ASP3       23 GROUP   
     4 LYS4       42 GROUP   
     5 PHE5       50 GROUP   
     6 GLY6       70 GROUP   
     7 CUB7       89 GROUP   
@<TRIPOS>SET

