#    Name: 5ohs_3_NSQ_CAVITY_N1_8
#    Modification time : Fri May 22 19:27:11 2020

@<TRIPOS>MOLECULE
5ohs_3_NSQ_CAVITY_N1_8
  103     0     7     0     0
SMALL
NO_CHARGES


@<TRIPOS>ATOM
      1 OG        -39.6500  -51.3900   -5.6900 O.3       1 SER1        0.0000 
      2 OG        -38.8700  -52.6800   -5.7000 O.3       1 SER1        0.0000 
      3 OG        -37.7400  -53.7400   -7.1400 O.3       1 SER1        0.0000 
      4 OG        -38.1000  -53.9600   -5.7000 O.3       1 SER1        0.0000 
      5 OG        -37.3200  -55.2500   -5.7000 O.3       1 SER1        0.0000 
      6 OG        -37.6800  -55.4700   -4.2600 O.3       1 SER1        0.0000 
      7 OG        -37.6400  -51.9400   -5.2700 O.3       1 SER1        0.0000 
      8 OG        -36.8600  -53.2200   -5.2800 O.3       1 SER1        0.0000 
      9 OG        -35.6300  -52.4800   -4.8600 O.3       1 SER1        0.0000 
     10 N         -45.2600  -51.2700   -5.5000 N.am      2 ALA2        0.0000 
     11 N         -44.0200  -50.5300   -5.0800 N.am      2 ALA2        0.0000 
     12 N         -44.3800  -50.7500   -3.6400 N.am      2 ALA2        0.0000 
     13 O         -41.2000  -48.8200   -5.6800 O.2       2 ALA2        0.0000 
     14 O         -41.5600  -49.0500   -4.2400 O.2       2 ALA2        0.0000 
     15 O         -40.4200  -50.1100   -5.6900 O.2       2 ALA2        0.0000 
     16 O         -40.7800  -50.3300   -4.2500 O.2       2 ALA2        0.0000 
     17 O         -40.0100  -51.6100   -4.2500 O.2       2 ALA2        0.0000 
     18 O         -38.4100  -50.6500   -5.2700 O.2       2 ALA2        0.0000 
     19 O         -38.7700  -50.8700   -3.8300 O.2       2 ALA2        0.0000 
     20 N         -36.7600  -51.4100   -3.4100 N.am      2 ALA2        0.0000 
     21 OD1       -47.5200  -52.6200  -12.5300 O.co2     3 ASP3        0.0000 
     22 OD1       -46.2900  -51.8700  -12.1100 O.co2     3 ASP3        0.0000 
     23 OD1       -43.4100  -51.8900   -9.8300 O.co2     3 ASP3        0.0000 
     24 OD1       -43.7600  -52.1200   -8.3900 O.co2     3 ASP3        0.0000 
     25 OD1       -44.1200  -52.3400   -6.9500 O.co2     3 ASP3        0.0000 
     26 OD1       -42.6300  -53.1800   -9.8300 O.co2     3 ASP3        0.0000 
     27 OD1       -41.7600  -52.6600   -7.9700 O.co2     3 ASP3        0.0000 
     28 OD1       -42.1100  -52.8800   -6.5300 O.co2     3 ASP3        0.0000 
     29 OD1       -42.4700  -53.1000   -5.0900 O.co2     3 ASP3        0.0000 
     30 OD1       -40.8800  -52.1400   -6.1100 O.co2     3 ASP3        0.0000 
     31 OD1       -40.1100  -53.4200   -6.1200 O.co2     3 ASP3        0.0000 
     32 OD1       -38.9700  -54.4800   -7.5600 O.co2     3 ASP3        0.0000 
     33 OD1       -39.3300  -54.7100   -6.1200 O.co2     3 ASP3        0.0000 
     34 OD1       -38.2000  -55.7700   -7.5700 O.co2     3 ASP3        0.0000 
     35 OD1       -38.3600  -52.3800   -2.3900 O.co2     3 ASP3        0.0000 
     36 NZ        -46.7500  -53.9000  -12.5300 N.4       4 LYS4        0.0000 
     37 NZ        -45.5200  -53.1600  -12.1100 N.4       4 LYS4        0.0000 
     38 NZ        -44.2800  -52.4200  -11.6900 N.4       4 LYS4        0.0000 
     39 NZ        -44.6400  -52.6400  -10.2500 N.4       4 LYS4        0.0000 
     40 NZ        -43.0500  -51.6700  -11.2700 N.4       4 LYS4        0.0000 
     41 NZ        -42.7900  -49.7900   -4.6600 N.4       4 LYS4        0.0000 
     42 NZ        -42.3700  -51.2900   -3.2300 N.4       4 LYS4        0.0000 
     43 NZ        -42.3300  -47.7600   -4.2400 N.4       4 LYS4        0.0000 
     44 NZ        -41.1400  -50.5500   -2.8100 N.4       4 LYS4        0.0000 
     45 NZ        -38.4600  -54.1800   -4.2600 N.4       4 LYS4        0.0000 
     46 NZ        -38.0000  -52.1600   -3.8300 N.4       4 LYS4        0.0000 
     47 NZ        -37.2200  -53.4400   -3.8400 N.4       4 LYS4        0.0000 
     48 NZ        -36.0900  -54.5000   -5.2800 N.4       4 LYS4        0.0000 
     49 NZ        -36.4500  -54.7300   -3.8400 N.4       4 LYS4        0.0000 
     50 NZ        -37.1200  -51.6400   -1.9700 N.4       4 LYS4        0.0000 
     51 NZ        -35.9900  -52.7000   -3.4200 N.4       4 LYS4        0.0000 
     52 NZ        -34.8600  -53.7600   -4.8600 N.4       4 LYS4        0.0000 
     53 NZ        -35.2100  -53.9800   -3.4200 N.4       4 LYS4        0.0000 
     54 CZ        -44.8400  -52.7800   -4.0700 C.ar      5 PHE5        0.0000 
     55 CZ        -43.6100  -52.0400   -3.6500 C.ar      5 PHE5        0.0000 
     56 CZ        -42.8300  -53.3200   -3.6500 C.ar      5 PHE5        0.0000 
     57 CZ        -41.2400  -52.3600   -4.6700 C.ar      5 PHE5        0.0000 
     58 CZ        -40.4600  -53.6400   -4.6800 C.ar      5 PHE5        0.0000 
     59 CZ        -39.6900  -54.9300   -4.6800 C.ar      5 PHE5        0.0000 
     60 CZ        -38.5600  -55.9900   -6.1300 C.ar      5 PHE5        0.0000 
     61 CZ        -39.2300  -52.9000   -4.2600 C.ar      5 PHE5        0.0000 
     62 CA        -44.7000  -50.9100  -13.1200 C.3       6 GLY6        0.0000 
     63 CA        -43.4700  -50.1700  -12.7000 C.3       6 GLY6        0.0000 
     64 CA        -42.6900  -51.4500  -12.7100 C.3       6 GLY6        0.0000 
     65 CA        -42.2700  -52.9600  -11.2700 C.3       6 GLY6        0.0000 
     66 CA        -44.1400  -47.0800  -10.8300 C.3       6 GLY6        0.0000 
     67 CA        -44.5000  -47.3000   -9.3900 C.3       6 GLY6        0.0000 
     68 CA        -44.8600  -47.5200   -7.9500 C.3       6 GLY6        0.0000 
     69 CA        -43.0100  -48.1400  -12.2800 C.3       6 GLY6        0.0000 
     70 CA        -43.3600  -48.3600  -10.8400 C.3       6 GLY6        0.0000 
     71 CA        -41.0400  -52.2200  -10.8500 C.3       6 GLY6        0.0000 
     72 CA        -43.6200  -46.7800   -7.5300 C.3       6 GLY6        0.0000 
     73 CA        -43.9800  -47.0000   -6.0900 C.3       6 GLY6        0.0000 
     74 CA        -43.5600  -48.5000   -4.6600 C.3       6 GLY6        0.0000 
     75 CA        -42.7500  -46.2600   -5.6700 C.3       6 GLY6        0.0000 
     76 CA        -41.6100  -47.3200   -7.1200 C.3       6 GLY6        0.0000 
     77 CA        -36.1900  -56.3100   -7.1500 C.3       6 GLY6        0.0000 
     78 CA        -36.5500  -56.5300   -5.7100 C.3       6 GLY6        0.0000 
     79 CA        -35.3200  -55.7900   -5.2900 C.3       6 GLY6        0.0000 
     80 CA        -34.7600  -51.9600   -3.0000 C.3       6 GLY6        0.0000 
     81 DU        -46.1900  -50.0700  -10.2400 H         7 CUB7        0.0000 
     82 DU        -45.0600  -51.1300  -11.6800 H         7 CUB7        0.0000 
     83 DU        -44.2400  -48.8800  -12.7000 H         7 CUB7        0.0000 
     84 DU        -44.6000  -49.1000  -11.2600 H         7 CUB7        0.0000 
     85 DU        -43.8200  -50.3900  -11.2600 H         7 CUB7        0.0000 
     86 DU        -44.5400  -50.8300   -8.3800 H         7 CUB7        0.0000 
     87 DU        -44.9000  -51.0500   -6.9400 H         7 CUB7        0.0000 
     88 DU        -44.4800  -52.5600   -5.5100 H         7 CUB7        0.0000 
     89 DU        -43.7200  -48.5800   -9.4000 H         7 CUB7        0.0000 
     90 DU        -42.5900  -49.6500  -10.8400 H         7 CUB7        0.0000 
     91 DU        -41.8200  -50.9300  -10.8500 H         7 CUB7        0.0000 
     92 DU        -42.1700  -51.1500   -9.4100 H         7 CUB7        0.0000 
     93 DU        -42.5300  -51.3700   -7.9700 H         7 CUB7        0.0000 
     94 DU        -42.8900  -51.5900   -6.5300 H         7 CUB7        0.0000 
     95 DU        -43.2500  -51.8200   -5.0900 H         7 CUB7        0.0000 
     96 DU        -42.8500  -48.0600   -7.5400 H         7 CUB7        0.0000 
     97 DU        -43.2100  -48.2800   -6.1000 H         7 CUB7        0.0000 
     98 DU        -42.4300  -49.5700   -6.1000 H         7 CUB7        0.0000 
     99 DU        -41.3000  -50.6300   -7.5500 H         7 CUB7        0.0000 
    100 DU        -41.6600  -50.8500   -6.1100 H         7 CUB7        0.0000 
    101 DU        -42.0100  -51.0700   -4.6700 H         7 CUB7        0.0000 
    102 DU        -41.9700  -47.5400   -5.6800 H         7 CUB7        0.0000 
    103 DU        -36.9700  -55.0300   -7.1400 H         7 CUB7        0.0000 
@<TRIPOS>BOND
@<TRIPOS>SUBSTRUCTURE
     1 SER1        1 GROUP   
     2 ALA2       10 GROUP   
     3 ASP3       21 GROUP   
     4 LYS4       36 GROUP   
     5 PHE5       54 GROUP   
     6 GLY6       62 GROUP   
     7 CUB7       81 GROUP   
@<TRIPOS>SET

