#    Name: 5ohs_8_NSQ
#    Modification time : Fri May 22 19:27:38 2020

@<TRIPOS>MOLECULE
5ohs_8_NSQ
   24    25     1     0     0
SMALL
NO_CHARGES


@<TRIPOS>ATOM
      1 O12        -4.3350  -69.3270   60.6520           1 NSQ704      0.0000 
      2 S10        -3.3170  -68.5890   59.8180           1 NSQ704      0.0000 
      3 O13        -2.4570  -69.6290   59.2440           1 NSQ704      0.0000 
      4 O11        -2.6390  -67.5970   60.6850           1 NSQ704      0.0000 
      5 C9         -4.1180  -67.7720   58.5600           1 NSQ704      0.0000 
      6 C1         -3.1730  -67.0430   57.5660           1 NSQ704      0.0000 
      7 O2         -2.7920  -68.0400   56.6240           1 NSQ704      0.0000 
      8 C3         -2.0230  -67.6160   55.4780           1 NSQ704      0.0000 
      9 C4         -2.7100  -66.5120   54.6810           1 NSQ704      0.0000 
     10 O16        -1.8830  -66.2210   53.5360           1 NSQ704      0.0000 
     11 C8         -3.0500  -65.3580   55.6180           1 NSQ704      0.0000 
     12 O15        -3.7590  -64.3200   54.9640           1 NSQ704      0.0000 
     13 C6         -3.8520  -65.8420   56.8340           1 NSQ704      0.0000 
     14 O14        -4.0570  -64.7430   57.7170           1 NSQ704      0.0000 
     15 O1         -0.7750  -67.1230   55.9670           1 NSQ704      0.0000 
     16 C25         0.1510  -67.9840   56.5240           1 NSQ704      0.0000 
     17 C26         0.5010  -67.8500   57.8530           1 NSQ704      0.0000 
     18 C27         1.4600  -68.6740   58.4320           1 NSQ704      0.0000 
     19 C28         2.0850  -69.6420   57.6650           1 NSQ704      0.0000 
     20 N32         3.0650  -70.4410   58.2510           1 NSQ704      0.0000 
     21 O33         3.3440  -70.2760   59.4750           1 NSQ704      0.0000 
     22 O34         3.6960  -71.2460   57.5140           1 NSQ704      0.0000 
     23 C29         1.7170  -69.8100   56.3260           1 NSQ704      0.0000 
     24 C30         0.7470  -68.9700   55.7780           1 NSQ704      0.0000 
@<TRIPOS>BOND
     1    1    2 du   
     2    2    3 du   
     3    2    4 du   
     4    2    5 du   
     5    5    6 du   
     6    6    7 du   
     7    6   13 du   
     8    7    8 du   
     9    8    9 du   
    10    8   15 du   
    11    9   10 du   
    12    9   11 du   
    13   11   12 du   
    14   11   13 du   
    15   13   14 du   
    16   15   16 du   
    17   16   17 du   
    18   16   24 du   
    19   17   18 du   
    20   18   19 du   
    21   19   20 du   
    22   19   23 du   
    23   20   21 du   
    24   20   22 du   
    25   23   24 du   
@<TRIPOS>SUBSTRUCTURE
     1 NSQ704      1 GROUP   
@<TRIPOS>SET

