#    Name: 5ohs_5_NSQ
#    Modification time : Fri May 22 19:27:24 2020

@<TRIPOS>MOLECULE
5ohs_5_NSQ
   24    25     1     0     0
SMALL
NO_CHARGES


@<TRIPOS>ATOM
      1 O12       -62.3300  -11.9280  -18.2350           1 NSQ705      0.0000 
      2 S10       -63.3580  -11.2960  -17.3570           1 NSQ705      0.0000 
      3 O13       -63.2930   -9.8070  -17.2520           1 NSQ705      0.0000 
      4 O11       -63.1540  -11.7560  -15.9930           1 NSQ705      0.0000 
      5 C9        -64.8610  -11.6720  -17.9770           1 NSQ705      0.0000 
      6 C1        -65.1740  -13.1720  -17.8000           1 NSQ705      0.0000 
      7 O2        -65.6040  -13.4260  -16.4590           1 NSQ705      0.0000 
      8 C3        -65.9660  -14.8010  -16.1740           1 NSQ705      0.0000 
      9 C4        -67.1320  -15.2570  -17.0260           1 NSQ705      0.0000 
     10 O16       -67.5140  -16.6040  -16.6580           1 NSQ705      0.0000 
     11 C8        -66.6990  -15.1150  -18.4750           1 NSQ705      0.0000 
     12 O15       -67.7560  -15.5050  -19.3600           1 NSQ705      0.0000 
     13 C6        -66.2780  -13.6570  -18.7300           1 NSQ705      0.0000 
     14 O14       -65.7780  -13.5210  -20.0450           1 NSQ705      0.0000 
     15 O1        -64.8700  -15.6920  -16.4300           1 NSQ705      0.0000 
     16 C25       -63.7700  -15.7300  -15.6010           1 NSQ705      0.0000 
     17 C26       -62.5450  -15.4660  -16.1780           1 NSQ705      0.0000 
     18 C27       -61.3990  -15.4770  -15.4130           1 NSQ705      0.0000 
     19 C28       -61.4780  -15.7710  -14.0590           1 NSQ705      0.0000 
     20 N32       -60.2850  -15.8010  -13.3610           1 NSQ705      0.0000 
     21 O33       -59.2450  -15.3660  -13.9000           1 NSQ705      0.0000 
     22 O34       -60.2510  -16.3020  -12.2190           1 NSQ705      0.0000 
     23 C29       -62.7110  -16.0630  -13.4580           1 NSQ705      0.0000 
     24 C30       -63.8540  -16.0360  -14.2410           1 NSQ705      0.0000 
@<TRIPOS>BOND
     1    1    2 du   
     2    2    3 du   
     3    2    4 du   
     4    2    5 du   
     5    5    6 du   
     6    6    7 du   
     7    6   13 du   
     8    7    8 du   
     9    8    9 du   
    10    8   15 du   
    11    9   10 du   
    12    9   11 du   
    13   11   12 du   
    14   11   13 du   
    15   13   14 du   
    16   15   16 du   
    17   16   17 du   
    18   16   24 du   
    19   17   18 du   
    20   18   19 du   
    21   19   20 du   
    22   19   23 du   
    23   20   21 du   
    24   20   22 du   
    25   23   24 du   
@<TRIPOS>SUBSTRUCTURE
     1 NSQ705      1 GROUP   
@<TRIPOS>SET

