#    Name: 5ohs_6_NSQ_CAVITY_N1_ALL
#    Modification time : Fri May 22 19:27:32 2020

@<TRIPOS>MOLECULE
5ohs_6_NSQ_CAVITY_N1_ALL
   73     0     7     0     0
SMALL
NO_CHARGES


@<TRIPOS>ATOM
      1 OG        108.8400  -95.3300   96.3800 O.3       1 SER1        0.0000 
      2 OG        109.6200  -96.6100   96.3800 O.3       1 SER1        0.0000 
      3 OG        110.8500  -95.8700   96.8000 O.3       1 SER1        0.0000 
      4 OG        111.9300  -91.7400  102.3900 O.3       1 SER1        0.0000 
      5 OG        112.7000  -93.0200  102.3800 O.3       1 SER1        0.0000 
      6 OG        113.4800  -94.3100  102.3800 O.3       1 SER1        0.0000 
      7 OG        114.7100  -93.5600  102.8000 O.3       1 SER1        0.0000 
      8 O         110.9100  -97.6000   99.6700 O.2       2 ALA2        0.0000 
      9 O         111.3700  -95.5700  100.1000 O.2       2 ALA2        0.0000 
     10 O         112.5000  -96.6300   98.6500 O.2       2 ALA2        0.0000 
     11 O         112.6000  -94.8300  100.5200 O.2       2 ALA2        0.0000 
     12 O         113.7300  -95.8900   99.0700 O.2       2 ALA2        0.0000 
     13 O         114.6100  -95.3700  100.9300 O.2       2 ALA2        0.0000 
     14 N         114.2500  -95.5900  102.3700 N.am      2 ALA2        0.0000 
     15 N         115.4800  -94.8500  102.8000 N.am      2 ALA2        0.0000 
     16 OD1       106.4800  -95.0100   97.4000 O.co2     3 ASP3        0.0000 
     17 OD1       107.7100  -94.2700   97.8300 O.co2     3 ASP3        0.0000 
     18 OD1       107.3500  -94.4900   99.2600 O.co2     3 ASP3        0.0000 
     19 OD1       108.4800  -95.5500   97.8200 O.co2     3 ASP3        0.0000 
     20 OD1       109.7200  -94.8100   98.2400 O.co2     3 ASP3        0.0000 
     21 OD1       110.5900  -94.2900  100.1000 O.co2     3 ASP3        0.0000 
     22 OD1       111.8300  -93.5400  100.5200 O.co2     3 ASP3        0.0000 
     23 OD1       112.2800  -91.5200  100.9500 O.co2     3 ASP3        0.0000 
     24 OD1       114.9700  -95.1500   99.4900 O.co2     3 ASP3        0.0000 
     25 NZ        110.0300  -98.1200   97.8100 N.4       4 LYS4        0.0000 
     26 NZ        111.2700  -97.3800   98.2300 N.4       4 LYS4        0.0000 
     27 NZ        113.0600  -92.8000  100.9400 N.4       4 LYS4        0.0000 
     28 NZ        114.1900  -93.8600   99.5000 N.4       4 LYS4        0.0000 
     29 NZ        113.8300  -94.0900  100.9400 N.4       4 LYS4        0.0000 
     30 NZ        114.2900  -92.0600  101.3600 N.4       4 LYS4        0.0000 
     31 NZ        113.9300  -92.2800  102.8000 N.4       4 LYS4        0.0000 
     32 NZ        115.0700  -93.3400  101.3600 N.4       4 LYS4        0.0000 
     33 NZ        115.8400  -94.6300  101.3600 N.4       4 LYS4        0.0000 
     34 NZ        115.9400  -92.8200  103.2200 N.4       4 LYS4        0.0000 
     35 CZ        103.2900  -96.9400   99.4400 C.ar      5 PHE5        0.0000 
     36 CZ        104.4200  -98.0000   98.0000 C.ar      5 PHE5        0.0000 
     37 CZ        104.0700  -98.2200   99.4400 C.ar      5 PHE5        0.0000 
     38 CZ        104.8800  -95.9700   98.4200 C.ar      5 PHE5        0.0000 
     39 CZ        105.6600  -97.2600   98.4200 C.ar      5 PHE5        0.0000 
     40 CZ        106.4300  -98.5400   98.4100 C.ar      5 PHE5        0.0000 
     41 CZ        106.1200  -95.2300   98.8400 C.ar      5 PHE5        0.0000 
     42 CZ        106.8900  -96.5100   98.8400 C.ar      5 PHE5        0.0000 
     43 CZ        107.6700  -97.8000   98.8300 C.ar      5 PHE5        0.0000 
     44 CZ        108.4400  -99.0800   98.8300 C.ar      5 PHE5        0.0000 
     45 CZ        108.1300  -95.7700   99.2600 C.ar      5 PHE5        0.0000 
     46 CZ        108.9000  -97.0600   99.2600 C.ar      5 PHE5        0.0000 
     47 CZ        109.6700  -98.3400   99.2500 C.ar      5 PHE5        0.0000 
     48 CZ        109.3600  -95.0300   99.6800 C.ar      5 PHE5        0.0000 
     49 CZ        110.1300  -96.3100   99.6800 C.ar      5 PHE5        0.0000 
     50 CZ        112.0800  -95.1300   97.2200 C.ar      5 PHE5        0.0000 
     51 CZ        111.7300  -95.3500   98.6600 C.ar      5 PHE5        0.0000 
     52 CZ        112.9600  -94.6100   99.0800 C.ar      5 PHE5        0.0000 
     53 CZ        113.4200  -92.5800   99.5000 C.ar      5 PHE5        0.0000 
     54 CZ        114.3500  -93.7900  104.2400 C.ar      5 PHE5        0.0000 
     55 CA        102.4800  -99.1800  100.4600 C.3       6 GLY6        0.0000 
     56 CA        103.9700 -100.0300   97.5700 C.3       6 GLY6        0.0000 
     57 CA        103.6100 -100.2500   99.0100 C.3       6 GLY6        0.0000 
     58 CA        105.5600  -99.0600   96.5500 C.3       6 GLY6        0.0000 
     59 CA        105.2000  -99.2800   97.9900 C.3       6 GLY6        0.0000 
     60 CA        104.8400  -99.5000   99.4300 C.3       6 GLY6        0.0000 
     61 CA        105.9700 -100.5700   97.9900 C.3       6 GLY6        0.0000 
     62 CA        105.2400  -95.7500   96.9800 C.3       6 GLY6        0.0000 
     63 CA        107.2100  -99.8200   98.4100 C.3       6 GLY6        0.0000 
     64 DU        102.0600  -97.6800   99.0200 H         7 CUB7        0.0000 
     65 DU        101.7000  -97.9000  100.4600 H         7 CUB7        0.0000 
     66 DU        103.1900  -98.7400   97.5800 H         7 CUB7        0.0000 
     67 DU        102.8300  -98.9600   99.0200 H         7 CUB7        0.0000 
     68 DU        103.6500  -96.7100   98.0000 H         7 CUB7        0.0000 
     69 DU        106.0200  -97.0300   96.9800 H         7 CUB7        0.0000 
     70 DU        107.2500  -96.2900   97.4000 H         7 CUB7        0.0000 
     71 DU        108.8000  -98.8600   97.3900 H         7 CUB7        0.0000 
     72 DU        109.2600  -96.8300   97.8200 H         7 CUB7        0.0000 
     73 DU        110.4900  -96.0900   98.2400 H         7 CUB7        0.0000 
@<TRIPOS>BOND
@<TRIPOS>SUBSTRUCTURE
     1 SER1        1 GROUP   
     2 ALA2        8 GROUP   
     3 ASP3       16 GROUP   
     4 LYS4       25 GROUP   
     5 PHE5       35 GROUP   
     6 GLY6       55 GROUP   
     7 CUB7       64 GROUP   
@<TRIPOS>SET

