#    Name: 6a0h_2_ASN_LEU_ALA
#    Modification time : Fri May 22 19:24:59 2020

@<TRIPOS>MOLECULE
6a0h_2_ASN_LEU_ALA
   21    20     3     0     0
SMALL
NO_CHARGES


@<TRIPOS>ATOM
      1 N          -8.8710   12.1170  -47.4310 N.4       1 ASN1        0.0000 
      2 CA         -7.8050   12.7950  -46.6980 C.3       1 ASN1        0.0000 
      3 C          -7.9420   14.3110  -46.7250 C.2       1 ASN1        0.0000 
      4 O          -7.4880   14.9620  -47.6630 O.2       1 ASN1        0.0000 
      5 CB         -6.4390   12.4090  -47.2590 C.3       1 ASN1        0.0000 
      6 CG         -5.7790   11.3020  -46.4700 C.2       1 ASN1        0.0000 
      7 OD1        -4.6190   10.9650  -46.7060 O.2       1 ASN1        0.0000 
      8 ND2        -6.5110   10.7340  -45.5220 N.am      1 ASN1        0.0000 
      9 N          -8.5560   14.8650  -45.6830 N.am      2 LEU2        0.0000 
     10 CA         -8.6480   16.3110  -45.5460 C.3       2 LEU2        0.0000 
     11 C          -7.2840   16.8990  -45.1970 C.2       2 LEU2        0.0000 
     12 O          -6.4550   16.2590  -44.5440 O.2       2 LEU2        0.0000 
     13 CB         -9.6660   16.6840  -44.4680 C.3       2 LEU2        0.0000 
     14 CG        -10.9380   15.8360  -44.3700 C.3       2 LEU2        0.0000 
     15 CD1       -11.5150   15.8960  -42.9600 C.3       2 LEU2        0.0000 
     16 CD2       -11.9720   16.2790  -45.3890 C.3       2 LEU2        0.0000 
     17 N          -7.0560   18.1320  -45.6370 N.am      3 ALA3        0.0000 
     18 CA         -5.8010   18.8230  -45.3580 C.3       3 ALA3        0.0000 
     19 C          -6.0410   20.0800  -44.5260 C.2       3 ALA3        0.0000 
     20 O          -6.0420   20.0330  -43.2960 O.2       3 ALA3        0.0000 
     21 CB         -5.0860   19.1720  -46.6540 C.3       3 ALA3        0.0000 
@<TRIPOS>BOND
     1    1    2 1    
     2    2    3 1    
     3    2    5 1    
     4    3    4 2    
     5    3    9 am   
     6    5    6 1    
     7    6    7 2    
     8    6    8 am   
     9    9   10 1    
    10   10   11 1    
    11   10   13 1    
    12   11   12 2    
    13   11   17 am   
    14   13   14 1    
    15   14   15 1    
    16   14   16 1    
    17   17   18 1    
    18   18   19 1    
    19   18   21 1    
    20   19   20 2    
@<TRIPOS>SUBSTRUCTURE
     1 ASN1        1 RESIDUE 
     2 LEU2        9 RESIDUE 
     3 ALA3       17 RESIDUE 
@<TRIPOS>SET

