#    Name: 6a0h_1_ASN_LEU_ALA_ALA
#    Modification time : Fri May 22 19:24:54 2020

@<TRIPOS>MOLECULE
6a0h_1_ASN_LEU_ALA_ALA
   26    25     4     0     0
SMALL
NO_CHARGES


@<TRIPOS>ATOM
      1 N           7.0600    4.4700    4.3730 N.4       1 ASN1        0.0000 
      2 CA          7.1510    3.9510    3.0130 C.3       1 ASN1        0.0000 
      3 C           7.0150    2.4340    3.0000 C.2       1 ASN1        0.0000 
      4 O           7.4440    1.7570    3.9330 O.2       1 ASN1        0.0000 
      5 CB          8.4720    4.3620    2.3710 C.3       1 ASN1        0.0000 
      6 CG          8.2780    5.1920    1.1240 C.2       1 ASN1        0.0000 
      7 OD1         7.2880    5.9120    0.9920 O.2       1 ASN1        0.0000 
      8 ND2         9.2220    5.0980    0.1980 N.am      1 ASN1        0.0000 
      9 N           6.4190    1.9050    1.9370 N.am      2 LEU2        0.0000 
     10 CA          6.1730    0.4750    1.8070 C.3       2 LEU2        0.0000 
     11 C           7.2850   -0.1750    0.9980 C.2       2 LEU2        0.0000 
     12 O           7.6890    0.3460   -0.0470 O.2       2 LEU2        0.0000 
     13 CB          4.8220    0.2090    1.1410 C.3       2 LEU2        0.0000 
     14 CG          3.5930    0.8140    1.8160 C.3       2 LEU2        0.0000 
     15 CD1         2.3200    0.3320    1.1380 C.3       2 LEU2        0.0000 
     16 CD2         3.5830    0.4710    3.2920 C.3       2 LEU2        0.0000 
     17 N           7.7740   -1.3120    1.4830 N.am      3 ALA3        0.0000 
     18 CA          8.7390   -2.1160    0.7490 C.3       3 ALA3        0.0000 
     19 C           7.9850   -3.1790   -0.0420 C.2       3 ALA3        0.0000 
     20 O           7.2840   -4.0140    0.5410 O.2       3 ALA3        0.0000 
     21 CB          9.7480   -2.7550    1.7010 C.3       3 ALA3        0.0000 
     22 N           8.1230   -3.1410   -1.3630 N.am      4 ALA4        0.0000 
     23 CA          7.4220   -4.0760   -2.2360 C.3       4 ALA4        0.0000 
     24 C           8.0390   -5.4710   -2.1730 C.2       4 ALA4        0.0000 
     25 O           8.7330   -5.8170   -1.2160 O.2       4 ALA4        0.0000 
     26 CB          7.4220   -3.5630   -3.6680 C.3       4 ALA4        0.0000 
@<TRIPOS>BOND
     1    1    2 1    
     2    2    3 1    
     3    2    5 1    
     4    3    4 2    
     5    3    9 am   
     6    5    6 1    
     7    6    7 2    
     8    6    8 am   
     9    9   10 1    
    10   10   11 1    
    11   10   13 1    
    12   11   12 2    
    13   11   17 am   
    14   13   14 1    
    15   14   15 1    
    16   14   16 1    
    17   17   18 1    
    18   18   19 1    
    19   18   21 1    
    20   19   20 2    
    21   19   22 am   
    22   22   23 1    
    23   23   24 1    
    24   23   26 1    
    25   24   25 2    
@<TRIPOS>SUBSTRUCTURE
     1 ASN1        1 RESIDUE 
     2 LEU2        9 RESIDUE 
     3 ALA3       17 RESIDUE 
     4 ALA4       22 RESIDUE 
@<TRIPOS>SET

