#    Name: 6a0h_1_ASN_LEU_ALA_ALA_CAVITY_N1_4
#    Modification time : Fri May 22 19:24:56 2020

@<TRIPOS>MOLECULE
6a0h_1_ASN_LEU_ALA_ALA_CAVITY_N1_4
   90     0     6     0     0
SMALL
NO_CHARGES


@<TRIPOS>ATOM
      1 OG          3.9600   -0.1800    0.7200 O.3       1 SER1        0.0000 
      2 OG          2.0000    0.1700    1.4300 O.3       1 SER1        0.0000 
      3 OG          9.2100    3.9900    0.5100 O.3       1 SER1        0.0000 
      4 OG          8.2800    5.1600    0.5200 O.3       1 SER1        0.0000 
      5 OG          9.1100    1.9900    1.2200 O.3       1 SER1        0.0000 
      6 OG          8.1800    3.1600    1.2200 O.3       1 SER1        0.0000 
      7 OG          2.1900    2.2200    4.0800 O.3       1 SER1        0.0000 
      8 OG          8.8400    5.6000    1.8400 O.3       1 SER1        0.0000 
      9 OG          8.7400    3.6000    2.5400 O.3       1 SER1        0.0000 
     10 OG          7.8100    4.7800    2.5500 O.3       1 SER1        0.0000 
     11 OG          7.7100    2.7800    3.2600 O.3       1 SER1        0.0000 
     12 N           0.6000    2.9000   -0.5900 N.am      2 ALA2        0.0000 
     13 N           9.9600    0.7600   -2.1400 N.am      2 ALA2        0.0000 
     14 O           8.9200   -0.0600   -1.4300 O.2       2 ALA2        0.0000 
     15 O           6.9600    0.2900   -0.7100 O.2       2 ALA2        0.0000 
     16 O           5.9300   -0.5300    0.0000 O.2       2 ALA2        0.0000 
     17 N           4.9900    0.6400    0.0100 N.am      2 ALA2        0.0000 
     18 N           3.0300    0.9900    0.7200 N.am      2 ALA2        0.0000 
     19 N           2.1000    2.1700    0.7300 N.am      2 ALA2        0.0000 
     20 N           0.9600   -0.6500    2.1500 N.am      2 ALA2        0.0000 
     21 O           8.5500    1.5500   -0.1000 O.2       2 ALA2        0.0000 
     22 O           7.5200    0.7300    0.6100 O.2       2 ALA2        0.0000 
     23 N           3.7900    5.4300    0.6300 N.am      2 ALA2        0.0000 
     24 N           7.4200   -1.2700    1.3100 N.am      2 ALA2        0.0000 
     25 N           6.4900   -0.1000    1.3200 N.am      2 ALA2        0.0000 
     26 N           5.5500    1.0800    1.3300 N.am      2 ALA2        0.0000 
     27 N           2.7600    4.6000    1.3400 N.am      2 ALA2        0.0000 
     28 N           6.3900   -2.0900    2.0300 N.am      2 ALA2        0.0000 
     29 N           5.4500   -0.9200    2.0300 N.am      2 ALA2        0.0000 
     30 N           4.5200    0.2600    2.0400 N.am      2 ALA2        0.0000 
     31 N           3.5900    1.4300    2.0400 N.am      2 ALA2        0.0000 
     32 N           2.6600    2.6100    2.0500 N.am      2 ALA2        0.0000 
     33 N           7.2500    4.3400    1.2300 N.am      2 ALA2        0.0000 
     34 N           7.1500    2.3400    1.9400 N.am      2 ALA2        0.0000 
     35 N           6.2200    3.5200    1.9400 N.am      2 ALA2        0.0000 
     36 N           5.2800    4.6900    1.9500 N.am      2 ALA2        0.0000 
     37 N           4.3500    5.8700    1.9500 N.am      2 ALA2        0.0000 
     38 N           7.0500    0.3400    2.6400 N.am      2 ALA2        0.0000 
     39 N           6.1200    1.5200    2.6500 N.am      2 ALA2        0.0000 
     40 N           5.1800    2.6900    2.6500 N.am      2 ALA2        0.0000 
     41 N           4.2500    3.8700    2.6600 N.am      2 ALA2        0.0000 
     42 N           6.8800    5.9500    2.5600 N.am      2 ALA2        0.0000 
     43 O           8.6400    1.6000    3.2500 O.2       2 ALA2        0.0000 
     44 N           5.8400    5.1300    3.2700 N.am      2 ALA2        0.0000 
     45 OD1         8.3600   -0.5000   -2.7500 O.co2     3 ASP3        0.0000 
     46 OD1         7.3300   -1.3200   -2.0400 O.co2     3 ASP3        0.0000 
     47 OD1         6.3000   -2.1500   -1.3300 O.co2     3 ASP3        0.0000 
     48 OD1         5.3700   -0.9700   -1.3200 O.co2     3 ASP3        0.0000 
     49 OD1         7.8900   -0.8900   -0.7200 O.co2     3 ASP3        0.0000 
     50 CZ          1.1600    3.3400    0.7400 C.ar      4 PHE5        0.0000 
     51 CZ          0.1300    2.5200    1.4500 C.ar      4 PHE5        0.0000 
     52 CZ          1.7200    3.7800    2.0600 C.ar      4 PHE5        0.0000 
     53 CZ          1.6200    1.7800    2.7600 C.ar      4 PHE5        0.0000 
     54 CZ          0.5900    0.9600    3.4700 C.ar      4 PHE5        0.0000 
     55 CZ          3.3200    5.0400    2.6600 C.ar      4 PHE5        0.0000 
     56 CZ          5.0800    0.6900    3.3600 C.ar      4 PHE5        0.0000 
     57 CZ          4.1500    1.8700    3.3600 C.ar      4 PHE5        0.0000 
     58 CZ          3.2200    3.0400    3.3700 C.ar      4 PHE5        0.0000 
     59 CZ          2.2900    4.2200    3.3800 C.ar      4 PHE5        0.0000 
     60 CZ          3.1200    1.0500    4.0800 C.ar      4 PHE5        0.0000 
     61 CZ          6.7800    3.9500    3.2600 C.ar      4 PHE5        0.0000 
     62 CZ          6.6800    1.9600    3.9700 C.ar      4 PHE5        0.0000 
     63 CZ          3.8800    5.4800    3.9900 C.ar      4 PHE5        0.0000 
     64 CA          4.3300   -1.7900   -0.6100 C.3       5 GLY6        0.0000 
     65 CA          9.8600   -1.2400   -1.4300 C.3       5 GLY6        0.0000 
     66 CA          2.2000    4.1700    0.0200 C.3       5 GLY6        0.0000 
     67 CA          6.7600   -3.7100    0.7000 C.3       5 GLY6        0.0000 
     68 CA          5.8300   -2.5300    0.7100 C.3       5 GLY6        0.0000 
     69 CA          4.8900   -1.3600    0.7100 C.3       5 GLY6        0.0000 
     70 CA          2.9300   -1.0000    1.4300 C.3       5 GLY6        0.0000 
     71 CA          1.0600    1.3500    1.4400 C.3       5 GLY6        0.0000 
     72 CA          1.9000   -1.8300    2.1400 C.3       5 GLY6        0.0000 
     73 CA          0.0300    0.5200    2.1500 C.3       5 GLY6        0.0000 
     74 CA          9.5900    2.3700   -0.8100 C.3       5 GLY6        0.0000 
     75 CA          9.4900    0.3800   -0.1100 C.3       5 GLY6        0.0000 
     76 CA          8.4500   -0.4500    0.6000 C.3       5 GLY6        0.0000 
     77 CA          4.4200   -1.7400    2.7400 C.3       5 GLY6        0.0000 
     78 CA          3.4900   -0.5700    2.7500 C.3       5 GLY6        0.0000 
     79 CA          2.4600   -1.3900    3.4600 C.3       5 GLY6        0.0000 
     80 CA          1.5200   -0.2100    3.4700 C.3       5 GLY6        0.0000 
     81 CA          0.4900   -1.0400    4.1800 C.3       5 GLY6        0.0000 
     82 CA          9.0100   -0.0100    1.9200 C.3       5 GLY6        0.0000 
     83 CA          8.0800    1.1700    1.9300 C.3       5 GLY6        0.0000 
     84 CA          4.0500   -0.1300    4.0700 C.3       5 GLY6        0.0000 
     85 CA          2.0900    0.2200    4.7900 C.3       5 GLY6        0.0000 
     86 CA          7.6100    0.7800    3.9600 C.3       5 GLY6        0.0000 
     87 DU          8.8200   -2.0600   -0.7200 H         6 CUB7        0.0000 
     88 DU          7.7900   -2.8800   -0.0100 H         6 CUB7        0.0000 
     89 DU          6.8600   -1.7100   -0.0100 H         6 CUB7        0.0000 
     90 DU          2.5600    0.6100    2.7600 H         6 CUB7        0.0000 
@<TRIPOS>BOND
@<TRIPOS>SUBSTRUCTURE
     1 SER1        1 GROUP   
     2 ALA2       12 GROUP   
     3 ASP3       45 GROUP   
     4 PHE5       50 GROUP   
     5 GLY6       64 GROUP   
     6 CUB7       87 GROUP   
@<TRIPOS>SET

