#    Name: 5wc2_1_ADP
#    Modification time : Fri May 22 19:17:07 2020

@<TRIPOS>MOLECULE
5wc2_1_ADP
   39    41     1     0     1
SMALL
NO_CHARGES


@<TRIPOS>ATOM
      1 PB         49.0480  110.3190  -11.4720 P.3       1 ADP501      0.0000 
      2 O1B        48.6100  110.8200  -12.8320 O.co2     1 ADP501      0.0000 
      3 O2B        47.9000  109.9940  -10.5340 O.co2     1 ADP501      0.0000 
      4 O3B        50.1330  109.2630  -11.5150 O.co2     1 ADP501      0.0000 
      5 PA         49.5200  112.1990   -9.3530 P.3       1 ADP501      0.0000 
      6 O1A        48.1660  112.8550   -9.2750 O.co2     1 ADP501      0.0000 
      7 O2A        49.9000  111.1660   -8.3280 O.co2     1 ADP501      0.0000 
      8 O3A        49.7990  111.5960  -10.8270 O.3       1 ADP501      0.0000 
      9 O5'        50.6300  113.3620   -9.3460 O.3       1 ADP501      0.0000 
     10 C5'        51.3180  113.6810   -8.1440 C.3       1 ADP501      0.0000 
     11 C4'        51.6420  115.1650   -8.0940 C.3       1 ADP501      0.0000 
     12 O4'        52.3640  115.6190   -9.2460 O.3       1 ADP501      0.0000 
     13 C3'        50.3960  116.0320   -8.0600 C.3       1 ADP501      0.0000 
     14 O3'        49.8010  116.1110   -6.7610 O.3       1 ADP501      0.0000 
     15 C2'        50.9280  117.3650   -8.5340 C.3       1 ADP501      0.0000 
     16 O2'        51.4390  118.1280   -7.4310 O.3       1 ADP501      0.0000 
     17 C1'        52.0530  116.9980   -9.4910 C.3       1 ADP501      0.0000 
     18 N9         51.5270  117.1800  -10.8610 N.pl3     1 ADP501      0.0000 
     19 C8         51.2030  116.1910  -11.7220 C.2       1 ADP501      0.0000 
     20 N7         50.7330  116.7110  -12.8870 N.2       1 ADP501      0.0000 
     21 C5         50.7460  118.0500  -12.7630 C.ar      1 ADP501      0.0000 
     22 C6         50.3790  119.1940  -13.6110 C.ar      1 ADP501      0.0000 
     23 N6         49.8950  118.9800  -14.8530 N.pl3     1 ADP501      0.0000 
     24 N1         50.5470  120.4390  -13.1090 N.ar      1 ADP501      0.0000 
     25 C2         51.0350  120.6530  -11.8750 C.ar      1 ADP501      0.0000 
     26 N3         51.3900  119.6530  -11.0540 N.ar      1 ADP501      0.0000 
     27 C4         51.2730  118.3580  -11.4320 C.ar      1 ADP501      0.0000 
     28 H5'1       50.6980  113.4120   -7.2860 H         1 ADP501      0.0000 
     29 H5'2       52.2420  113.1030   -8.0870 H         1 ADP501      0.0000 
     30 H4'        52.2300  115.3640   -7.1870 H         1 ADP501      0.0000 
     31 H3'        49.6700  115.6510   -8.7920 H         1 ADP501      0.0000 
     32 HO3'       49.0150  116.6730   -6.8000 H         1 ADP501      0.0000 
     33 H2'        50.1420  117.9160   -9.0700 H         1 ADP501      0.0000 
     34 HO2'       50.7260  118.3030   -6.8020 H         1 ADP501      0.0000 
     35 H1'        52.9260  117.6410   -9.3110 H         1 ADP501      0.0000 
     36 H8         51.3110  115.1340  -11.5160 H         1 ADP501      0.0000 
     37 HN61       49.6460  119.7630  -15.4400 H         1 ADP501      0.0000 
     38 HN62       49.7840  118.0370  -15.1960 H         1 ADP501      0.0000 
     39 H2         51.1460  121.6740  -11.5300 H         1 ADP501      0.0000 
@<TRIPOS>BOND
     1    1    2 ar   
     2    1    3 ar   
     3    1    4 ar   
     4    1    8 1    
     5    5    6 ar   
     6    5    7 ar   
     7    5    8 1    
     8    5    9 1    
     9    9   10 1    
    10   10   11 1    
    11   10   28 1    
    12   10   29 1    
    13   11   12 1    
    14   11   13 1    
    15   11   30 1    
    16   12   17 1    
    17   13   14 1    
    18   13   15 1    
    19   13   31 1    
    20   14   32 1    
    21   15   16 1    
    22   15   17 1    
    23   15   33 1    
    24   16   34 1    
    25   17   18 1    
    26   17   35 1    
    27   18   19 1    
    28   18   27 1    
    29   19   20 2    
    30   19   36 1    
    31   20   21 1    
    32   21   22 ar   
    33   21   27 ar   
    34   22   23 1    
    35   22   24 ar   
    36   23   37 1    
    37   23   38 1    
    38   24   25 ar   
    39   25   26 ar   
    40   25   39 1    
    41   26   27 ar   
@<TRIPOS>SUBSTRUCTURE
     1 ADP501      1 GROUP   
@<TRIPOS>SET
ATOM$ORANGE STATIC     ATOMS   COLORGROUP SYSTEM 
20 10 10 11 11 13 13 15 15 17 17 19 19 21 21 22 22 25 \
25 27 27 

