#    Name: 5zmw_1_TG1
#    Modification time : Fri May 22 19:23:39 2020

@<TRIPOS>MOLECULE
5zmw_1_TG1
   46    48     1     0     0
SMALL
NO_CHARGES


@<TRIPOS>ATOM
      1 C34       146.2690   13.2180    0.4420 C.3       1 TG11003     0.0000 
      2 C11       144.9460   13.4440   -0.3000 C.3       1 TG11003     0.0000 
      3 C7        143.6070   13.2310    0.5700 C.3       1 TG11003     0.0000 
      4 C8        143.4130   14.1450    1.7990 C.3       1 TG11003     0.0000 
      5 C9        142.1100   13.8970    2.6000 C.3       1 TG11003     0.0000 
      6 C10       140.6650   13.8130    2.0060 C.3       1 TG11003     0.0000 
      7 C1        140.3900   12.7300    0.9250 C.3       1 TG11003     0.0000 
      8 C2        138.8770   12.6730    0.5300 C.3       1 TG11003     0.0000 
      9 O1        138.3440   11.3480    0.7300 O.3       1 TG11003     0.0000 
     10 C13       137.1570   11.1820    1.4500 C.2       1 TG11003     0.0000 
     11 O2        136.7770   12.0440    2.2270 O.2       1 TG11003     0.0000 
     12 C14       136.4290    9.8830    1.1770 C.3       1 TG11003     0.0000 
     13 C15       135.0250   10.1270    0.5820 C.3       1 TG11003     0.0000 
     14 C16       134.0150    8.9610    0.6200 C.3       1 TG11003     0.0000 
     15 C17       132.5540    9.4050    0.8620 C.3       1 TG11003     0.0000 
     16 C18       131.4680    8.4680    0.3080 C.3       1 TG11003     0.0000 
     17 C19       130.6080    7.7810    1.3820 C.3       1 TG11003     0.0000 
     18 C20       129.1260    7.8040    1.0450 C.3       1 TG11003     0.0000 
     19 C3        138.7010   12.9910   -0.9760 C.3       1 TG11003     0.0000 
     20 O3        138.1430   14.2830   -1.0650 O.3       1 TG11003     0.0000 
     21 C21       136.8710   14.3370   -1.6190 C.2       1 TG11003     0.0000 
     22 O4        136.7540   13.9370   -2.7600 O.2       1 TG11003     0.0000 
     23 C22       135.7910   14.8900   -0.7270 C.2       1 TG11003     0.0000 
     24 C23       134.5960   13.9250   -0.7340 C.3       1 TG11003     0.0000 
     25 C24       135.2650   16.2600   -1.1680 C.2       1 TG11003     0.0000 
     26 C25       136.2910   17.3580   -1.3440 C.3       1 TG11003     0.0000 
     27 C4        140.0910   12.8540   -1.6220 C.2       1 TG11003     0.0000 
     28 C26       140.4340   13.5700   -2.9180 C.3       1 TG11003     0.0000 
     29 C5        141.1500   12.7940   -0.4490 C.2       1 TG11003     0.0000 
     30 C6        142.6070   13.2820   -0.6340 C.3       1 TG11003     0.0000 
     31 O5        143.2390   12.4540   -1.6130 O.3       1 TG11003     0.0000 
     32 C12       144.6370   12.3790   -1.4050 C.2       1 TG11003     0.0000 
     33 O12       145.2220   12.7160   -2.6000 O.2       1 TG11003     0.0000 
     34 C31       140.1930   15.2300    1.5440 C.3       1 TG11003     0.0000 
     35 O9        139.8020   13.5180    3.1240 O.3       1 TG11003     0.0000 
     36 C32       139.2820   14.1480    4.2100 C.2       1 TG11003     0.0000 
     37 O10       140.0070   14.8840    4.8490 O.2       1 TG11003     0.0000 
     38 C33       138.5490   13.0180    4.8840 C.3       1 TG11003     0.0000 
     39 O7        143.4520   15.5000    1.3790 O.3       1 TG11003     0.0000 
     40 C27       144.5360   16.2830    1.7610 C.2       1 TG11003     0.0000 
     41 O8        145.3880   15.8630    2.5370 O.2       1 TG11003     0.0000 
     42 C28       144.5260   17.6380    1.1130 C.3       1 TG11003     0.0000 
     43 C29       145.7680   17.8180    0.2440 C.3       1 TG11003     0.0000 
     44 C30       145.7130   19.1620   -0.4530 C.3       1 TG11003     0.0000 
     45 O6        143.6230   11.9000    1.0580 O.3       1 TG11003     0.0000 
     46 O11       144.9250   14.7480   -0.8130 O.3       1 TG11003     0.0000 
@<TRIPOS>BOND
     1    1    2 1    
     2    2    3 1    
     3    2   32 1    
     4    2   46 1    
     5    3    4 1    
     6    3   30 1    
     7    3   45 1    
     8    4    5 1    
     9    4   39 1    
    10    5    6 1    
    11    6    7 1    
    12    6   34 1    
    13    6   35 1    
    14    7    8 1    
    15    7   29 1    
    16    8    9 1    
    17    8   19 1    
    18    9   10 1    
    19   10   11 2    
    20   10   12 1    
    21   12   13 1    
    22   13   14 1    
    23   14   15 1    
    24   15   16 1    
    25   16   17 1    
    26   17   18 1    
    27   19   20 1    
    28   19   27 1    
    29   20   21 1    
    30   21   22 2    
    31   21   23 1    
    32   23   24 1    
    33   23   25 2    
    34   25   26 1    
    35   27   28 1    
    36   27   29 2    
    37   29   30 1    
    38   30   31 1    
    39   31   32 1    
    40   32   33 2    
    41   35   36 1    
    42   36   37 2    
    43   36   38 1    
    44   39   40 1    
    45   40   41 2    
    46   40   42 1    
    47   42   43 1    
    48   43   44 1    
@<TRIPOS>SUBSTRUCTURE
     1 TG11003     1 GROUP   
@<TRIPOS>SET

