#    Name: 6of3_1_AGS
#    Modification time : Fri May 22 19:36:56 2020

@<TRIPOS>MOLECULE
6of3_1_AGS
   31    33     1     0     0
SMALL
NO_CHARGES


@<TRIPOS>ATOM
      1 PG        150.2750  121.8510  109.0760 P.3       1 AGS801      0.0000 
      2 S1G       151.1070  120.5570  110.2570 S.2       1 AGS801      0.0000 
      3 O2G       148.7760  121.7520  109.1200 O.3       1 AGS801      0.0000 
      4 O3G       150.7150  123.2410  109.4440 O.3       1 AGS801      0.0000 
      5 PB        151.4070  123.0000  106.8720 P.3       1 AGS801      0.0000 
      6 O1B       150.2350  123.8340  106.4280 O.co2     1 AGS801      0.0000 
      7 O2B       152.4440  123.6180  107.7710 O.co2     1 AGS801      0.0000 
      8 O3B       150.8170  121.6900  107.5800 O.3       1 AGS801      0.0000 
      9 PA        153.5640  121.7640  105.7220 P.3       1 AGS801      0.0000 
     10 O1A       154.6090  122.7940  105.3930 O.co2     1 AGS801      0.0000 
     11 O2A       153.5780  121.0890  107.0650 O.co2     1 AGS801      0.0000 
     12 O3A       152.1250  122.4450  105.5510 O.3       1 AGS801      0.0000 
     13 O5'       153.6010  120.6430  104.5840 O.3       1 AGS801      0.0000 
     14 C5'       152.4550  119.8850  104.2260 C.3       1 AGS801      0.0000 
     15 C4'       152.8890  118.9880  103.1040 C.3       1 AGS801      0.0000 
     16 O4'       152.9310  119.7340  101.8670 O.3       1 AGS801      0.0000 
     17 C3'       154.2760  118.3940  103.2830 C.3       1 AGS801      0.0000 
     18 O3'       154.2110  116.9960  103.4790 O.3       1 AGS801      0.0000 
     19 C2'       155.0610  118.7910  102.0390 C.3       1 AGS801      0.0000 
     20 O2'       155.6920  117.6490  101.4850 O.3       1 AGS801      0.0000 
     21 C1'       153.9690  119.2270  101.0690 C.3       1 AGS801      0.0000 
     22 N9        154.3680  120.2670  100.1000 N.pl3     1 AGS801      0.0000 
     23 C8        153.7280  121.4590   99.9040 C.2       1 AGS801      0.0000 
     24 N7        154.2740  122.2170   98.9900 N.2       1 AGS801      0.0000 
     25 C5        155.3540  121.4730   98.5530 C.ar      1 AGS801      0.0000 
     26 C6        156.3400  121.7220   97.5840 C.ar      1 AGS801      0.0000 
     27 N6        156.3970  122.8370   96.8550 N.pl3     1 AGS801      0.0000 
     28 N1        157.2840  120.7840   97.3770 N.ar      1 AGS801      0.0000 
     29 C2        157.2320  119.6650   98.1010 C.ar      1 AGS801      0.0000 
     30 N3        156.3560  119.3160   99.0340 N.ar      1 AGS801      0.0000 
     31 C4        155.4330  120.2710   99.2280 C.ar      1 AGS801      0.0000 
@<TRIPOS>BOND
     1    1    2 2    
     2    1    3 1    
     3    1    4 1    
     4    1    8 1    
     5    5    6 ar   
     6    5    7 ar   
     7    5    8 1    
     8    5   12 1    
     9    9   10 ar   
    10    9   11 ar   
    11    9   12 1    
    12    9   13 1    
    13   13   14 1    
    14   14   15 1    
    15   15   16 1    
    16   15   17 1    
    17   16   21 1    
    18   17   18 1    
    19   17   19 1    
    20   19   20 1    
    21   19   21 1    
    22   21   22 1    
    23   22   23 1    
    24   22   31 1    
    25   23   24 2    
    26   24   25 1    
    27   25   26 ar   
    28   25   31 ar   
    29   26   27 1    
    30   26   28 ar   
    31   28   29 ar   
    32   29   30 ar   
    33   30   31 ar   
@<TRIPOS>SUBSTRUCTURE
     1 AGS801      1 GROUP   
@<TRIPOS>SET

