#    Name: 6of3_2_AGS
#    Modification time : Fri May 22 19:37:03 2020

@<TRIPOS>MOLECULE
6of3_2_AGS
   31    33     1     0     0
SMALL
NO_CHARGES


@<TRIPOS>ATOM
      1 PG         91.8470  119.8840  109.0890 P.3       1 AGS801      0.0000 
      2 S1G        91.0210  121.1870  110.2640 S.2       1 AGS801      0.0000 
      3 O2G        93.3470  119.9760  109.1340 O.3       1 AGS801      0.0000 
      4 O3G        91.4000  118.4980  109.4610 O.3       1 AGS801      0.0000 
      5 PB         90.7130  118.7330  106.8870 P.3       1 AGS801      0.0000 
      6 O1B        91.8810  117.8920  106.4480 O.co2     1 AGS801      0.0000 
      7 O2B        89.6710  118.1230  107.7870 O.co2     1 AGS801      0.0000 
      8 O3B        91.3080  120.0430  107.5920 O.3       1 AGS801      0.0000 
      9 PA         88.5630  119.9750  105.7310 P.3       1 AGS801      0.0000 
     10 O1A        87.5130  118.9500  105.4040 O.co2     1 AGS801      0.0000 
     11 O2A        88.5510  120.6550  107.0720 O.co2     1 AGS801      0.0000 
     12 O3A        89.9990  119.2870  105.5640 O.3       1 AGS801      0.0000 
     13 O5'        88.5330  121.0920  104.5890 O.3       1 AGS801      0.0000 
     14 C5'        89.6830  121.8440  104.2290 C.3       1 AGS801      0.0000 
     15 C4'        89.2540  122.7390  103.1040 C.3       1 AGS801      0.0000 
     16 O4'        89.2110  121.9890  101.8700 O.3       1 AGS801      0.0000 
     17 C3'        87.8700  123.3410  103.2790 C.3       1 AGS801      0.0000 
     18 O3'        87.9420  124.7390  103.4700 O.3       1 AGS801      0.0000 
     19 C2'        87.0850  122.9430  102.0350 C.3       1 AGS801      0.0000 
     20 O2'        86.4600  124.0860  101.4770 O.3       1 AGS801      0.0000 
     21 C1'        88.1760  122.4980  101.0680 C.3       1 AGS801      0.0000 
     22 N9         87.7730  121.4570  100.1020 N.pl3     1 AGS801      0.0000 
     23 C8         88.4070  120.2610   99.9120 C.2       1 AGS801      0.0000 
     24 N7         87.8590  119.5030   99.0000 N.2       1 AGS801      0.0000 
     25 C5         86.7830  120.2510   98.5590 C.ar      1 AGS801      0.0000 
     26 C6         85.7970  120.0020   97.5900 C.ar      1 AGS801      0.0000 
     27 N6         85.7350  118.8850   96.8650 N.pl3     1 AGS801      0.0000 
     28 N1         84.8580  120.9450   97.3780 N.ar      1 AGS801      0.0000 
     29 C2         84.9150  122.0660   98.0980 C.ar      1 AGS801      0.0000 
     30 N3         85.7910  122.4140   99.0310 N.ar      1 AGS801      0.0000 
     31 C4         86.7090  121.4550   99.2290 C.ar      1 AGS801      0.0000 
@<TRIPOS>BOND
     1    1    2 2    
     2    1    3 1    
     3    1    4 1    
     4    1    8 1    
     5    5    6 ar   
     6    5    7 ar   
     7    5    8 1    
     8    5   12 1    
     9    9   10 ar   
    10    9   11 ar   
    11    9   12 1    
    12    9   13 1    
    13   13   14 1    
    14   14   15 1    
    15   15   16 1    
    16   15   17 1    
    17   16   21 1    
    18   17   18 1    
    19   17   19 1    
    20   19   20 1    
    21   19   21 1    
    22   21   22 1    
    23   22   23 1    
    24   22   31 1    
    25   23   24 2    
    26   24   25 1    
    27   25   26 ar   
    28   25   31 ar   
    29   26   27 1    
    30   26   28 ar   
    31   28   29 ar   
    32   29   30 ar   
    33   30   31 ar   
@<TRIPOS>SUBSTRUCTURE
     1 AGS801      1 GROUP   
@<TRIPOS>SET

