#    Name: 6cpg_1_35R
#    Modification time : Fri May 22 19:36:37 2020

@<TRIPOS>MOLECULE
6cpg_1_35R
   51    55     1     0     0
SMALL
NO_CHARGES


@<TRIPOS>ATOM
      1 O1          7.2240   -9.2040   60.0550           1 35R501      0.0000 
      2 C2          7.7920   -9.9740   59.3570           1 35R501      0.0000 
      3 N3          9.0740   -9.6340   58.7270           1 35R501      0.0000 
      4 C4          9.7320  -10.6370   57.8640           1 35R501      0.0000 
      5 C5         10.2020  -10.1440   56.4920           1 35R501      0.0000 
      6 C6          8.9550  -11.0230   56.6000           1 35R501      0.0000 
      7 N7          7.2500  -11.3070   59.0910           1 35R501      0.0000 
      8 C8          5.9810  -11.8110   59.6080           1 35R501      0.0000 
      9 C9          5.2930  -11.5460   60.7570           1 35R501      0.0000 
     10 N10         4.1820  -12.2860   60.7230           1 35R501      0.0000 
     11 N12         4.1720  -13.0250   59.5390           1 35R501      0.0000 
     12 C13         5.2820  -12.7150   58.8750           1 35R501      0.0000 
     13 C14         5.8930  -13.1580   57.5240           1 35R501      0.0000 
     14 N15         4.8500  -13.9480   57.1670           1 35R501      0.0000 
     15 C16         5.1550  -14.4750   55.9660           1 35R501      0.0000 
     16 C17         4.4690  -15.3620   55.1040           1 35R501      0.0000 
     17 C18         5.0400  -15.7420   53.8960           1 35R501      0.0000 
     18 C19         6.2900  -15.2550   53.5400           1 35R501      0.0000 
     19 C20         6.6420  -15.8580   52.1540           1 35R501      0.0000 
     20 N21         8.0400  -16.3430   51.9420           1 35R501      0.0000 
     21 C23         8.0120  -17.4450   51.0320           1 35R501      0.0000 
     22 C24         7.5390  -18.7330   51.7260           1 35R501      0.0000 
     23 O25         8.1680  -18.9610   52.9930           1 35R501      0.0000 
     24 C26         9.2630  -18.0800   53.2620           1 35R501      0.0000 
     25 C27         8.9120  -16.5970   53.0660           1 35R501      0.0000 
     26 C28         6.9660  -14.3800   54.3720           1 35R501      0.0000 
     27 C29         6.3780  -14.0070   55.5950           1 35R501      0.0000 
     28 N30         6.8170  -13.2050   56.5540           1 35R501      0.0000 
     29 H1          9.4350   -8.8640   58.8580           1 35R501      0.0000 
     30 H2         10.2780  -11.3360   58.2590           1 35R501      0.0000 
     31 H3         10.0390   -9.2070   56.3050           1 35R501      0.0000 
     32 H4         10.9930  -10.5820   56.1380           1 35R501      0.0000 
     33 H5          8.1090  -10.5660   56.4730           1 35R501      0.0000 
     34 H6          9.0630  -11.9410   56.3060           1 35R501      0.0000 
     35 H7          7.7130  -11.8330   58.5920           1 35R501      0.0000 
     36 H8          5.5490  -10.9610   61.4330           1 35R501      0.0000 
     37 H9          3.5730  -12.3050   61.3300           1 35R501      0.0000 
     38 H10         4.1330  -14.0860   57.6210           1 35R501      0.0000 
     39 H11         3.6340  -15.6910   55.3460           1 35R501      0.0000 
     40 H12         4.5870  -16.3220   53.3280           1 35R501      0.0000 
     41 H13         6.0480  -16.6110   52.0060           1 35R501      0.0000 
     42 H14         6.4680  -15.1740   51.4880           1 35R501      0.0000 
     43 H16         8.9030  -17.5860   50.6780           1 35R501      0.0000 
     44 H17         7.4070  -17.2380   50.3030           1 35R501      0.0000 
     45 H18         6.5800  -18.6740   51.8630           1 35R501      0.0000 
     46 H19         7.7330  -19.4850   51.1450           1 35R501      0.0000 
     47 H20         9.5480  -18.2120   54.1800           1 35R501      0.0000 
     48 H21         9.9940  -18.3060   52.6650           1 35R501      0.0000 
     49 H22         8.4740  -16.2770   53.8710           1 35R501      0.0000 
     50 H23         9.7350  -16.1020   52.9320           1 35R501      0.0000 
     51 H24         7.7970  -14.0420   54.1260           1 35R501      0.0000 
@<TRIPOS>BOND
     1    1    2 du   
     2    2    3 du   
     3    2    7 du   
     4    3    4 du   
     5    4    5 du   
     6    3   29 1    
     7    4    6 du   
     8    4   30 1    
     9    5    6 du   
    10    5   31 1    
    11    5   32 1    
    12    6   33 1    
    13    6   34 1    
    14    7    8 du   
    15    8    9 du   
    16    7   35 1    
    17    8   12 du   
    18    9   10 du   
    19   10   11 du   
    20    9   36 1    
    21   11   12 du   
    22   10   37 1    
    23   12   13 du   
    24   13   14 du   
    25   13   28 du   
    26   14   15 du   
    27   15   16 du   
    28   14   38 1    
    29   15   27 du   
    30   16   17 du   
    31   17   18 du   
    32   16   39 1    
    33   18   19 du   
    34   17   40 1    
    35   18   26 du   
    36   19   20 du   
    37   19   41 1    
    38   19   42 1    
    39   20   21 du   
    40   20   25 du   
    41   21   22 du   
    42   21   43 1    
    43   21   44 1    
    44   22   23 du   
    45   22   45 1    
    46   22   46 1    
    47   23   24 du   
    48   24   25 du   
    49   24   47 1    
    50   24   48 1    
    51   25   49 1    
    52   25   50 1    
    53   26   27 du   
    54   27   28 du   
    55   26   51 1    
@<TRIPOS>SUBSTRUCTURE
     1 35R501      1 GROUP   
@<TRIPOS>SET

