#    Name: 6cpg_2_35R
#    Modification time : Fri May 22 19:36:39 2020

@<TRIPOS>MOLECULE
6cpg_2_35R
   51    55     1     0     0
SMALL
NO_CHARGES


@<TRIPOS>ATOM
      1 O1         27.1780   20.9460   69.3220           1 35R501      0.0000 
      2 C2         27.7600   20.6500   70.3100           1 35R501      0.0000 
      3 N3         27.7860   19.2650   70.8010           1 35R501      0.0000 
      4 C4         28.5340   18.9720   72.0380           1 35R501      0.0000 
      5 C5         29.8090   18.1510   71.8330           1 35R501      0.0000 
      6 C6         28.5870   17.5150   72.4990           1 35R501      0.0000 
      7 N7         28.4880   21.6450   71.0990           1 35R501      0.0000 
      8 C8         28.5800   23.0650   70.7730           1 35R501      0.0000 
      9 C9         27.8630   23.8300   69.9000           1 35R501      0.0000 
     10 N10        28.3340   25.0740   69.9840           1 35R501      0.0000 
     11 N12        29.3680   25.0930   70.9180           1 35R501      0.0000 
     12 C13        29.4860   23.8590   71.4010           1 35R501      0.0000 
     13 C14        30.4640   23.2430   72.4300           1 35R501      0.0000 
     14 N15        30.5160   24.3620   73.1920           1 35R501      0.0000 
     15 C16        31.3460   24.1020   74.2210           1 35R501      0.0000 
     16 C17        31.7980   24.8700   75.3230           1 35R501      0.0000 
     17 C18        32.6690   24.3250   76.2530           1 35R501      0.0000 
     18 C19        33.0970   23.0220   76.0830           1 35R501      0.0000 
     19 C20        34.0680   22.6730   77.2320           1 35R501      0.0000 
     20 N21        35.3790   22.1830   76.7160           1 35R501      0.0000 
     21 C23        36.3990   22.4250   77.6860           1 35R501      0.0000 
     22 C24        36.8940   23.8840   77.6820           1 35R501      0.0000 
     23 O25        37.2520   24.3720   76.3850           1 35R501      0.0000 
     24 C26        36.2090   24.1440   75.4370           1 35R501      0.0000 
     25 C27        35.8070   22.6650   75.4260           1 35R501      0.0000 
     26 C28        32.6690   22.2590   75.0150           1 35R501      0.0000 
     27 C29        31.7880   22.8250   74.0810           1 35R501      0.0000 
     28 N30        31.2430   22.3090   72.9890           1 35R501      0.0000 
     29 H1         27.3740   18.6410   70.3770           1 35R501      0.0000 
     30 H2         28.5410   19.6150   72.7640           1 35R501      0.0000 
     31 H3         30.5450   18.3660   72.4270           1 35R501      0.0000 
     32 H4         29.9830   17.8690   70.9210           1 35R501      0.0000 
     33 H5         28.6550   17.3810   73.4570           1 35R501      0.0000 
     34 H6         28.0940   16.8840   71.9520           1 35R501      0.0000 
     35 H7         28.8910   21.3730   71.8090           1 35R501      0.0000 
     36 H8         27.1730   23.5370   69.3480           1 35R501      0.0000 
     37 H9         28.0490   25.7510   69.5360           1 35R501      0.0000 
     38 H10        30.0990   25.1000   73.0470           1 35R501      0.0000 
     39 H11        31.5070   25.7480   75.4240           1 35R501      0.0000 
     40 H12        32.9610   24.8280   76.9790           1 35R501      0.0000 
     41 H13        34.2180   23.4670   77.7690           1 35R501      0.0000 
     42 H14        33.6680   21.9820   77.7830           1 35R501      0.0000 
     43 H16        36.0460   22.2190   78.5660           1 35R501      0.0000 
     44 H17        37.1510   21.8420   77.4990           1 35R501      0.0000 
     45 H18        36.1890   24.4480   78.0380           1 35R501      0.0000 
     46 H19        37.6730   23.9460   78.2580           1 35R501      0.0000 
     47 H20        36.5180   24.3980   74.5530           1 35R501      0.0000 
     48 H21        35.4390   24.6840   75.6730           1 35R501      0.0000 
     49 H22        35.0800   22.5470   74.7950           1 35R501      0.0000 
     50 H23        36.5690   22.1390   75.1370           1 35R501      0.0000 
     51 H24        32.9600   21.3810   74.9160           1 35R501      0.0000 
@<TRIPOS>BOND
     1    1    2 du   
     2    2    3 du   
     3    2    7 du   
     4    3    4 du   
     5    4    5 du   
     6    3   29 1    
     7    4    6 du   
     8    4   30 1    
     9    5    6 du   
    10    5   31 1    
    11    5   32 1    
    12    6   33 1    
    13    6   34 1    
    14    7    8 du   
    15    8    9 du   
    16    7   35 1    
    17    8   12 du   
    18    9   10 du   
    19   10   11 du   
    20    9   36 1    
    21   11   12 du   
    22   10   37 1    
    23   12   13 du   
    24   13   14 du   
    25   13   28 du   
    26   14   15 du   
    27   15   16 du   
    28   14   38 1    
    29   15   27 du   
    30   16   17 du   
    31   17   18 du   
    32   16   39 1    
    33   18   19 du   
    34   17   40 1    
    35   18   26 du   
    36   19   20 du   
    37   19   41 1    
    38   19   42 1    
    39   20   21 du   
    40   20   25 du   
    41   21   22 du   
    42   21   43 1    
    43   21   44 1    
    44   22   23 du   
    45   22   45 1    
    46   22   46 1    
    47   23   24 du   
    48   24   25 du   
    49   24   47 1    
    50   24   48 1    
    51   25   49 1    
    52   25   50 1    
    53   26   27 du   
    54   27   28 du   
    55   26   51 1    
@<TRIPOS>SUBSTRUCTURE
     1 35R501      1 GROUP   
@<TRIPOS>SET

