#    Name: 6anl_1_T75
#    Modification time : Fri May 22 19:34:35 2020

@<TRIPOS>MOLECULE
6anl_1_T75
   29    32     1     0     0
SMALL
NO_CHARGES


@<TRIPOS>ATOM
      1 O24        12.7990    4.8520   -4.3540 O.2       1 T75401      0.0000 
      2 C22        12.8860    5.0040   -5.5660 C.2       1 T75401      0.0000 
      3 C23        11.6440    5.0330   -6.3870 C.ar      1 T75401      0.0000 
      4 C29        11.6050    5.7290   -7.6130 C.ar      1 T75401      0.0000 
      5 C28        10.4420    5.7480   -8.3770 C.ar      1 T75401      0.0000 
      6 C27         9.3050    5.0800   -7.9280 C.ar      1 T75401      0.0000 
      7 C26         9.3270    4.3850   -6.7190 C.ar      1 T75401      0.0000 
      8 C25        10.4850    4.3570   -5.9490 C.ar      1 T75401      0.0000 
      9 N19        14.0890    5.1460   -6.1910 N.am      1 T75401      0.0000 
     10 C8         15.3770    5.1360   -5.6380 C.ar      1 T75401      0.0000 
     11 C7         15.6260    5.2140   -4.2640 C.ar      1 T75401      0.0000 
     12 N9         16.4010    5.0380   -6.4860 N.ar      1 T75401      0.0000 
     13 C10        17.6660    5.0120   -6.0820 C.ar      1 T75401      0.0000 
     14 C11        17.9890    5.0750   -4.7350 C.ar      1 T75401      0.0000 
     15 C6         16.9510    5.2000   -3.7860 C.ar      1 T75401      0.0000 
     16 C5         17.1950    5.2460   -2.3270 C.2       1 T75401      0.0000 
     17 S4         16.0180    4.5810   -1.2000 S.3       1 T75401      0.0000 
     18 C3         17.0060    4.9760    0.1340 C.2       1 T75401      0.0000 
     19 C20        16.6740    4.7120    1.5870 C.3       1 T75401      0.0000 
     20 C21        15.3110    4.0260    1.7290 C.3       1 T75401      0.0000 
     21 N2         18.0880    5.5380   -0.2710 N.2       1 T75401      0.0000 
     22 C1         18.2630    5.7100   -1.5740 C.2       1 T75401      0.0000 
     23 C12        19.4850    6.3920   -2.0650 C.ar      1 T75401      0.0000 
     24 C17        19.3490    7.5820   -2.8060 C.ar      1 T75401      0.0000 
     25 C16        20.4690    8.2620   -3.2650 C.ar      1 T75401      0.0000 
     26 C15        21.7330    7.7620   -2.9780 C.ar      1 T75401      0.0000 
     27 C14        21.8740    6.5860   -2.2420 C.ar      1 T75401      0.0000 
     28 C18        23.2530    6.0690   -1.9480 C.3       1 T75401      0.0000 
     29 C13        20.7670    5.8970   -1.7750 C.ar      1 T75401      0.0000 
@<TRIPOS>BOND
     1    1    2 2    
     2    2    3 1    
     3    2    9 am   
     4    3    4 ar   
     5    3    8 ar   
     6    4    5 ar   
     7    5    6 ar   
     8    6    7 ar   
     9    7    8 ar   
    10    9   10 1    
    11   10   11 ar   
    12   10   12 ar   
    13   11   15 ar   
    14   12   13 ar   
    15   13   14 ar   
    16   14   15 ar   
    17   15   16 1    
    18   16   17 1    
    19   16   22 2    
    20   17   18 1    
    21   18   19 1    
    22   18   21 2    
    23   19   20 1    
    24   21   22 1    
    25   22   23 1    
    26   23   24 ar   
    27   23   29 ar   
    28   24   25 ar   
    29   25   26 ar   
    30   26   27 ar   
    31   27   28 1    
    32   27   29 ar   
@<TRIPOS>SUBSTRUCTURE
     1 T75401      1 GROUP   
@<TRIPOS>SET

