#    Name: 5ox4_1_IMP_CAVITY_N1_4
#    Modification time : Fri May 22 19:15:19 2020

@<TRIPOS>MOLECULE
5ox4_1_IMP_CAVITY_N1_4
   85     0     6     0     0
SMALL
NO_CHARGES


@<TRIPOS>ATOM
      1 OG         29.9400    1.0300   47.9200 O.3       1 SER1        0.0000 
      2 N          28.4100   -0.1800   50.6400 N.am      2 ALA2        0.0000 
      3 N          28.9300    1.0900   49.0200 N.am      2 ALA2        0.0000 
      4 N          29.4200   -0.2300   49.5400 N.am      2 ALA2        0.0000 
      5 N          27.9400    4.5000   49.9800 N.am      2 ALA2        0.0000 
      6 N          28.4300    3.1700   50.4900 N.am      2 ALA2        0.0000 
      7 N          28.9500    4.4400   48.8700 N.am      2 ALA2        0.0000 
      8 N          29.4400    3.1200   49.3800 N.am      2 ALA2        0.0000 
      9 OD1        24.9200    3.9100   51.3200 O.co2     3 ASP3        0.0000 
     10 OD1        30.4300   -0.2900   48.4300 O.co2     3 ASP3        0.0000 
     11 OD1        25.3900    3.3500   53.8100 O.co2     3 ASP3        0.0000 
     12 OD1        29.9300    1.7900   49.9000 O.co2     3 ASP3        0.0000 
     13 OD1        30.4500    3.0600   48.2800 O.co2     3 ASP3        0.0000 
     14 OD1        30.9400    1.7400   48.7900 O.co2     3 ASP3        0.0000 
     15 OD1        31.4200    0.4100   49.3000 O.co2     3 ASP3        0.0000 
     16 OD1        27.9300    5.2600   51.9600 O.co2     3 ASP3        0.0000 
     17 OD1        28.9400    5.2000   50.8500 O.co2     3 ASP3        0.0000 
     18 OD1        29.9500    5.1400   49.7400 O.co2     3 ASP3        0.0000 
     19 OD1        30.4300    3.8200   50.2600 O.co2     3 ASP3        0.0000 
     20 OD1        30.9200    2.5000   50.7700 O.co2     3 ASP3        0.0000 
     21 OD1        31.4100    1.1800   51.2800 O.co2     3 ASP3        0.0000 
     22 OD1        32.4200    1.1200   50.1800 O.co2     3 ASP3        0.0000 
     23 OD1        30.4200    4.5800   52.2400 O.co2     3 ASP3        0.0000 
     24 OD1        30.9100    3.2600   52.7500 O.co2     3 ASP3        0.0000 
     25 OD1        31.3900    1.9400   53.2600 O.co2     3 ASP3        0.0000 
     26 OD1        31.9200    3.2000   51.6400 O.co2     3 ASP3        0.0000 
     27 OD1        32.4000    1.8800   52.1600 O.co2     3 ASP3        0.0000 
     28 OD1        32.8900    0.5600   52.6700 O.co2     3 ASP3        0.0000 
     29 OD1        33.3800   -0.7700   53.1800 O.co2     3 ASP3        0.0000 
     30 OD1        33.4100    1.8200   51.0500 O.co2     3 ASP3        0.0000 
     31 OD1        33.9000    0.5000   51.5600 O.co2     3 ASP3        0.0000 
     32 OD1        34.3700   -0.0600   54.0600 O.co2     3 ASP3        0.0000 
     33 CZ         30.3700   -2.1200   52.5400 C.ar      4 PHE5        0.0000 
     34 CZ         30.9000   -0.8500   50.9200 C.ar      4 PHE5        0.0000 
     35 CZ         31.9100   -0.9100   49.8200 C.ar      4 PHE5        0.0000 
     36 CZ         31.3700   -1.4100   53.4200 C.ar      4 PHE5        0.0000 
     37 CZ         31.8600   -2.7400   53.9300 C.ar      4 PHE5        0.0000 
     38 CZ         32.3800   -1.4700   52.3100 C.ar      4 PHE5        0.0000 
     39 CZ         33.3900   -1.5300   51.2000 C.ar      4 PHE5        0.0000 
     40 CZ         28.4000    4.7000   54.4500 C.ar      4 PHE5        0.0000 
     41 CZ         29.4100    4.6400   53.3400 C.ar      4 PHE5        0.0000 
     42 CA         23.4000    1.9400   52.0700 C.3       5 GLY6        0.0000 
     43 CA         23.8900    0.6100   52.5800 C.3       5 GLY6        0.0000 
     44 CA         24.4100    1.8800   50.9600 C.3       5 GLY6        0.0000 
     45 CA         24.9000    0.5600   51.4700 C.3       5 GLY6        0.0000 
     46 CA         25.3900   -0.7700   51.9800 C.3       5 GLY6        0.0000 
     47 CA         26.4000   -0.8200   50.8800 C.3       5 GLY6        0.0000 
     48 CA         26.8900   -2.1500   51.3900 C.3       5 GLY6        0.0000 
     49 CA         27.3700   -3.4700   51.9000 C.3       5 GLY6        0.0000 
     50 CA         25.4100    2.5800   51.8300 C.3       5 GLY6        0.0000 
     51 CA         25.9000    1.2600   52.3400 C.3       5 GLY6        0.0000 
     52 CA         25.9300    3.8500   50.2100 C.3       5 GLY6        0.0000 
     53 CA         26.4200    2.5300   50.7200 C.3       5 GLY6        0.0000 
     54 CA         26.9100    1.2000   51.2400 C.3       5 GLY6        0.0000 
     55 CA         27.3900   -0.1200   51.7500 C.3       5 GLY6        0.0000 
     56 CA         26.9500    3.7900   49.1100 C.3       5 GLY6        0.0000 
     57 CA         27.4300    2.4700   49.6200 C.3       5 GLY6        0.0000 
     58 CA         27.9200    1.1500   50.1300 C.3       5 GLY6        0.0000 
     59 CA         28.8900   -1.5000   51.1600 C.3       5 GLY6        0.0000 
     60 CA         29.3800   -2.8200   51.6700 C.3       5 GLY6        0.0000 
     61 CA         29.9000   -1.5600   50.0500 C.3       5 GLY6        0.0000 
     62 CA         30.9100   -1.6100   48.9400 C.3       5 GLY6        0.0000 
     63 CA         32.9200   -0.9700   48.7100 C.3       5 GLY6        0.0000 
     64 CA         32.9000   -0.2100   50.6900 C.3       5 GLY6        0.0000 
     65 CA         33.8600   -2.0900   53.7000 C.3       5 GLY6        0.0000 
     66 CA         34.8600   -1.3800   54.5700 C.3       5 GLY6        0.0000 
     67 DU         24.4000    2.6400   52.9400 H         6 CUB7        0.0000 
     68 DU         27.8800   -1.4400   52.2600 H         6 CUB7        0.0000 
     69 DU         26.4100    3.2900   52.7000 H         6 CUB7        0.0000 
     70 DU         26.9300    4.5500   51.0800 H         6 CUB7        0.0000 
     71 DU         27.4200    3.2300   51.6000 H         6 CUB7        0.0000 
     72 DU         27.9000    1.9100   52.1100 H         6 CUB7        0.0000 
     73 DU         28.3900    0.5900   52.6200 H         6 CUB7        0.0000 
     74 DU         28.9100    1.8500   51.0000 H         6 CUB7        0.0000 
     75 DU         29.4000    0.5300   51.5200 H         6 CUB7        0.0000 
     76 DU         29.8900   -0.8000   52.0300 H         6 CUB7        0.0000 
     77 DU         30.4100    0.4700   50.4100 H         6 CUB7        0.0000 
     78 DU         27.4000    3.9900   53.5800 H         6 CUB7        0.0000 
     79 DU         28.4100    3.9400   52.4700 H         6 CUB7        0.0000 
     80 DU         28.9000    2.6100   52.9800 H         6 CUB7        0.0000 
     81 DU         29.4200    3.8800   51.3600 H         6 CUB7        0.0000 
     82 DU         29.9100    2.5600   51.8800 H         6 CUB7        0.0000 
     83 DU         30.4000    1.2300   52.3900 H         6 CUB7        0.0000 
     84 DU         30.8800   -0.0900   52.9000 H         6 CUB7        0.0000 
     85 DU         31.8900   -0.1500   51.8000 H         6 CUB7        0.0000 
@<TRIPOS>BOND
@<TRIPOS>SUBSTRUCTURE
     1 SER1        1 GROUP   
     2 ALA2        2 GROUP   
     3 ASP3        9 GROUP   
     4 PHE5       33 GROUP   
     5 GLY6       42 GROUP   
     6 CUB7       67 GROUP   
@<TRIPOS>SET

