#    Name: 5ox4_1_IMP
#    Modification time : Fri May 22 19:15:18 2020

@<TRIPOS>MOLECULE
5ox4_1_IMP
   23    25     1     0     0
SMALL
NO_CHARGES


@<TRIPOS>ATOM
      1 P          30.9710    2.4010   51.5350 P.3       1 IMP903      0.0000 
      2 O1P        31.4070    1.5130   50.3940 O.co2     1 IMP903      0.0000 
      3 O2P        31.4970    1.9440   52.8750 O.co2     1 IMP903      0.0000 
      4 O3P        31.1620    3.8790   51.2870 O.co2     1 IMP903      0.0000 
      5 O5'        29.3580    2.2770   51.6560 O.3       1 IMP903      0.0000 
      6 C5'        28.5630    1.1620   51.2220 C.3       1 IMP903      0.0000 
      7 C4'        28.5460    0.0720   52.3030 C.3       1 IMP903      0.0000 
      8 O4'        28.7860   -1.2110   51.7070 O.3       1 IMP903      0.0000 
      9 C3'        27.2870   -0.0880   53.1720 C.3       1 IMP903      0.0000 
     10 O3'        26.1080    0.5500   52.6600 O.3       1 IMP903      0.0000 
     11 C2'        27.1120   -1.6020   53.3160 C.3       1 IMP903      0.0000 
     12 O2'        25.8700   -2.0890   52.7880 O.3       1 IMP903      0.0000 
     13 C1'        28.2940   -2.2330   52.5760 C.3       1 IMP903      0.0000 
     14 N9         29.3430   -2.6750   53.5450 N.pl3     1 IMP903      0.0000 
     15 C8         30.5530   -2.1060   53.7780 C.2       1 IMP903      0.0000 
     16 N7         31.2340   -2.7800   54.7400 N.2       1 IMP903      0.0000 
     17 C5         30.4590   -3.8050   55.1420 C.2       1 IMP903      0.0000 
     18 C6         30.5640   -4.9150   56.1250 C.2       1 IMP903      0.0000 
     19 O6         31.5880   -5.0460   56.8300 O.2       1 IMP903      0.0000 
     20 N1         29.5290   -5.7720   56.2330 N.am      1 IMP903      0.0000 
     21 C2         28.4100   -5.6510   55.4790 C.2       1 IMP903      0.0000 
     22 N3         28.2470   -4.6680   54.5650 N.2       1 IMP903      0.0000 
     23 C4         29.2160   -3.7350   54.3510 C.2       1 IMP903      0.0000 
@<TRIPOS>BOND
     1    1    2 ar   
     2    1    3 ar   
     3    1    4 ar   
     4    1    5 1    
     5    5    6 1    
     6    6    7 1    
     7    7    8 1    
     8    7    9 1    
     9    8   13 1    
    10    9   10 1    
    11    9   11 1    
    12   11   12 1    
    13   11   13 1    
    14   13   14 1    
    15   14   15 1    
    16   14   23 1    
    17   15   16 2    
    18   16   17 1    
    19   17   18 1    
    20   17   23 2    
    21   18   19 2    
    22   18   20 am   
    23   20   21 1    
    24   21   22 2    
    25   22   23 1    
@<TRIPOS>SUBSTRUCTURE
     1 IMP903      1 GROUP   
@<TRIPOS>SET

