#    Name: 5ox4_1_IMP_CAVITY_N1_ALL
#    Modification time : Fri May 22 19:15:19 2020

@<TRIPOS>MOLECULE
5ox4_1_IMP_CAVITY_N1_ALL
  109     0     7     0     0
SMALL
NO_CHARGES


@<TRIPOS>ATOM
      1 OG         25.4500    5.1700   49.7000 O.3       1 SER1        0.0000 
      2 OG         29.9400    1.0300   47.9200 O.3       1 SER1        0.0000 
      3 OG         28.4700    5.7600   48.3600 O.3       1 SER1        0.0000 
      4 O          23.4400    4.5200   49.9300 O.2       2 ALA2        0.0000 
      5 O          24.4500    4.4700   48.8300 O.2       2 ALA2        0.0000 
      6 N          28.4100   -0.1800   50.6400 N.am      2 ALA2        0.0000 
      7 N          28.9300    1.0900   49.0200 N.am      2 ALA2        0.0000 
      8 N          29.4200   -0.2300   49.5400 N.am      2 ALA2        0.0000 
      9 N          27.9400    4.5000   49.9800 N.am      2 ALA2        0.0000 
     10 N          28.4300    3.1700   50.4900 N.am      2 ALA2        0.0000 
     11 N          28.9500    4.4400   48.8700 N.am      2 ALA2        0.0000 
     12 N          29.4400    3.1200   49.3800 N.am      2 ALA2        0.0000 
     13 OD1        22.9000    4.0200   53.5300 O.co2     3 ASP3        0.0000 
     14 OD1        23.9100    3.9600   52.4300 O.co2     3 ASP3        0.0000 
     15 OD1        24.4400    5.2300   50.8100 O.co2     3 ASP3        0.0000 
     16 OD1        24.9200    3.9100   51.3200 O.co2     3 ASP3        0.0000 
     17 OD1        30.4300   -0.2900   48.4300 O.co2     3 ASP3        0.0000 
     18 OD1        25.3900    3.3500   53.8100 O.co2     3 ASP3        0.0000 
     19 OD1        25.4300    5.9300   51.6800 O.co2     3 ASP3        0.0000 
     20 OD1        25.9200    4.6100   52.1900 O.co2     3 ASP3        0.0000 
     21 OD1        29.9300    1.7900   49.9000 O.co2     3 ASP3        0.0000 
     22 OD1        30.4500    3.0600   48.2800 O.co2     3 ASP3        0.0000 
     23 OD1        30.9400    1.7400   48.7900 O.co2     3 ASP3        0.0000 
     24 OD1        31.4200    0.4100   49.3000 O.co2     3 ASP3        0.0000 
     25 OD1        25.9000    5.3700   54.1700 O.co2     3 ASP3        0.0000 
     26 OD1        26.4300    6.6400   52.5500 O.co2     3 ASP3        0.0000 
     27 OD1        26.9100    5.3200   53.0600 O.co2     3 ASP3        0.0000 
     28 OD1        27.9300    5.2600   51.9600 O.co2     3 ASP3        0.0000 
     29 OD1        28.9400    5.2000   50.8500 O.co2     3 ASP3        0.0000 
     30 OD1        29.9500    5.1400   49.7400 O.co2     3 ASP3        0.0000 
     31 OD1        30.4300    3.8200   50.2600 O.co2     3 ASP3        0.0000 
     32 OD1        30.9200    2.5000   50.7700 O.co2     3 ASP3        0.0000 
     33 OD1        31.4100    1.1800   51.2800 O.co2     3 ASP3        0.0000 
     34 OD1        32.4200    1.1200   50.1800 O.co2     3 ASP3        0.0000 
     35 OD1        26.9000    6.0800   55.0400 O.co2     3 ASP3        0.0000 
     36 OD1        30.4200    4.5800   52.2400 O.co2     3 ASP3        0.0000 
     37 OD1        30.9100    3.2600   52.7500 O.co2     3 ASP3        0.0000 
     38 OD1        31.3900    1.9400   53.2600 O.co2     3 ASP3        0.0000 
     39 OD1        31.9200    3.2000   51.6400 O.co2     3 ASP3        0.0000 
     40 OD1        32.4000    1.8800   52.1600 O.co2     3 ASP3        0.0000 
     41 OD1        32.8900    0.5600   52.6700 O.co2     3 ASP3        0.0000 
     42 OD1        33.3800   -0.7700   53.1800 O.co2     3 ASP3        0.0000 
     43 OD1        33.4100    1.8200   51.0500 O.co2     3 ASP3        0.0000 
     44 OD1        33.9000    0.5000   51.5600 O.co2     3 ASP3        0.0000 
     45 OD1        34.3700   -0.0600   54.0600 O.co2     3 ASP3        0.0000 
     46 NZ         26.4400    5.8800   50.5700 N.4       4 LYS4        0.0000 
     47 NZ         27.4500    5.8200   49.4700 N.4       4 LYS4        0.0000 
     48 CZ         22.4300    4.5800   51.0400 C.ar      5 PHE5        0.0000 
     49 CZ         23.9500    6.5500   50.2900 C.ar      5 PHE5        0.0000 
     50 CZ         24.9600    6.4900   49.1900 C.ar      5 PHE5        0.0000 
     51 CZ         30.3700   -2.1200   52.5400 C.ar      5 PHE5        0.0000 
     52 CZ         30.9000   -0.8500   50.9200 C.ar      5 PHE5        0.0000 
     53 CZ         31.9100   -0.9100   49.8200 C.ar      5 PHE5        0.0000 
     54 CZ         31.3700   -1.4100   53.4200 C.ar      5 PHE5        0.0000 
     55 CZ         31.8600   -2.7400   53.9300 C.ar      5 PHE5        0.0000 
     56 CZ         32.3800   -1.4700   52.3100 C.ar      5 PHE5        0.0000 
     57 CZ         33.3900   -1.5300   51.2000 C.ar      5 PHE5        0.0000 
     58 CZ         27.3900    4.7500   55.5600 C.ar      5 PHE5        0.0000 
     59 CZ         27.9100    6.0200   53.9400 C.ar      5 PHE5        0.0000 
     60 CZ         28.4000    4.7000   54.4500 C.ar      5 PHE5        0.0000 
     61 CZ         29.4100    4.6400   53.3400 C.ar      5 PHE5        0.0000 
     62 CA         22.3900    1.9900   53.1700 C.3       6 GLY6        0.0000 
     63 CA         22.9200    3.2600   51.5500 C.3       6 GLY6        0.0000 
     64 CA         23.4000    1.9400   52.0700 C.3       6 GLY6        0.0000 
     65 CA         23.8900    0.6100   52.5800 C.3       6 GLY6        0.0000 
     66 CA         23.9300    3.2000   50.4500 C.3       6 GLY6        0.0000 
     67 CA         24.4100    1.8800   50.9600 C.3       6 GLY6        0.0000 
     68 CA         24.9000    0.5600   51.4700 C.3       6 GLY6        0.0000 
     69 CA         25.3900   -0.7700   51.9800 C.3       6 GLY6        0.0000 
     70 CA         26.4000   -0.8200   50.8800 C.3       6 GLY6        0.0000 
     71 CA         26.8900   -2.1500   51.3900 C.3       6 GLY6        0.0000 
     72 CA         27.3700   -3.4700   51.9000 C.3       6 GLY6        0.0000 
     73 CA         25.4100    2.5800   51.8300 C.3       6 GLY6        0.0000 
     74 CA         25.9000    1.2600   52.3400 C.3       6 GLY6        0.0000 
     75 CA         25.9300    3.8500   50.2100 C.3       6 GLY6        0.0000 
     76 CA         26.4200    2.5300   50.7200 C.3       6 GLY6        0.0000 
     77 CA         26.9100    1.2000   51.2400 C.3       6 GLY6        0.0000 
     78 CA         27.3900   -0.1200   51.7500 C.3       6 GLY6        0.0000 
     79 CA         26.9500    3.7900   49.1100 C.3       6 GLY6        0.0000 
     80 CA         27.4300    2.4700   49.6200 C.3       6 GLY6        0.0000 
     81 CA         27.9200    1.1500   50.1300 C.3       6 GLY6        0.0000 
     82 CA         28.8900   -1.5000   51.1600 C.3       6 GLY6        0.0000 
     83 CA         29.3800   -2.8200   51.6700 C.3       6 GLY6        0.0000 
     84 CA         29.9000   -1.5600   50.0500 C.3       6 GLY6        0.0000 
     85 CA         30.9100   -1.6100   48.9400 C.3       6 GLY6        0.0000 
     86 CA         32.9200   -0.9700   48.7100 C.3       6 GLY6        0.0000 
     87 CA         32.9000   -0.2100   50.6900 C.3       6 GLY6        0.0000 
     88 CA         33.8600   -2.0900   53.7000 C.3       6 GLY6        0.0000 
     89 CA         34.3900   -0.8200   52.0800 C.3       6 GLY6        0.0000 
     90 CA         34.8600   -1.3800   54.5700 C.3       6 GLY6        0.0000 
     91 DU         24.4000    2.6400   52.9400 H         7 CUB7        0.0000 
     92 DU         27.8800   -1.4400   52.2600 H         7 CUB7        0.0000 
     93 DU         26.4100    3.2900   52.7000 H         7 CUB7        0.0000 
     94 DU         26.9300    4.5500   51.0800 H         7 CUB7        0.0000 
     95 DU         27.4200    3.2300   51.6000 H         7 CUB7        0.0000 
     96 DU         27.9000    1.9100   52.1100 H         7 CUB7        0.0000 
     97 DU         28.3900    0.5900   52.6200 H         7 CUB7        0.0000 
     98 DU         28.9100    1.8500   51.0000 H         7 CUB7        0.0000 
     99 DU         29.4000    0.5300   51.5200 H         7 CUB7        0.0000 
    100 DU         29.8900   -0.8000   52.0300 H         7 CUB7        0.0000 
    101 DU         30.4100    0.4700   50.4100 H         7 CUB7        0.0000 
    102 DU         27.4000    3.9900   53.5800 H         7 CUB7        0.0000 
    103 DU         28.4100    3.9400   52.4700 H         7 CUB7        0.0000 
    104 DU         28.9000    2.6100   52.9800 H         7 CUB7        0.0000 
    105 DU         29.4200    3.8800   51.3600 H         7 CUB7        0.0000 
    106 DU         29.9100    2.5600   51.8800 H         7 CUB7        0.0000 
    107 DU         30.4000    1.2300   52.3900 H         7 CUB7        0.0000 
    108 DU         30.8800   -0.0900   52.9000 H         7 CUB7        0.0000 
    109 DU         31.8900   -0.1500   51.8000 H         7 CUB7        0.0000 
@<TRIPOS>BOND
@<TRIPOS>SUBSTRUCTURE
     1 SER1        1 GROUP   
     2 ALA2        4 GROUP   
     3 ASP3       13 GROUP   
     4 LYS4       46 GROUP   
     5 PHE5       48 GROUP   
     6 GLY6       62 GROUP   
     7 CUB7       91 GROUP   
@<TRIPOS>SET

