#    Name: 5z6m_1_FOL
#    Modification time : Fri May 22 19:26:57 2020

@<TRIPOS>MOLECULE
5z6m_1_FOL
   32    34     1     0     0
SMALL
NO_CHARGES


@<TRIPOS>ATOM
      1 N1          4.2350    5.5070   11.5070 N.pl3     1 FOL201      0.0000 
      2 C2          3.3960    6.5590   11.5380 C.2       1 FOL201      0.0000 
      3 NA2         3.9130    7.7950   11.7880 N.pl3     1 FOL201      0.0000 
      4 N3          2.0540    6.4170   11.3330 N.2       1 FOL201      0.0000 
      5 C4          1.4830    5.2090   11.0850 C.2       1 FOL201      0.0000 
      6 O4          0.2420    5.1290   10.9070 O.2       1 FOL201      0.0000 
      7 C4A         2.3810    4.0110   11.0390 C.ar      1 FOL201      0.0000 
      8 N5          1.9740    2.7390   10.7990 N.ar      1 FOL201      0.0000 
      9 C6          2.8830    1.7270   10.7780 C.ar      1 FOL201      0.0000 
     10 C7          4.2350    1.9710   10.9990 C.ar      1 FOL201      0.0000 
     11 N8          4.6780    3.2120   11.2430 N.ar      1 FOL201      0.0000 
     12 C8A         3.8170    4.2560   11.2770 C.ar      1 FOL201      0.0000 
     13 C9          2.4520    0.3040   10.5060 C.3       1 FOL201      0.0000 
     14 N10         1.1290    0.2380    9.9060 N.pl3     1 FOL201      0.0000 
     15 C11         0.1410    1.6570    6.1260 C.ar      1 FOL201      0.0000 
     16 C12        -0.8190    1.0520    6.9340 C.ar      1 FOL201      0.0000 
     17 C13        -0.4750    0.5810    8.1990 C.ar      1 FOL201      0.0000 
     18 C14         0.8350    0.7110    8.6650 C.ar      1 FOL201      0.0000 
     19 C15         1.7990    1.3240    7.8510 C.ar      1 FOL201      0.0000 
     20 C16         1.4520    1.7990    6.5860 C.ar      1 FOL201      0.0000 
     21 C          -0.2510    2.1580    4.7610 C.2       1 FOL201      0.0000 
     22 O          -1.2880    1.7380    4.2540 O.2       1 FOL201      0.0000 
     23 N           0.5400    3.0480    4.1420 N.am      1 FOL201      0.0000 
     24 CA          0.8530    2.9980    2.7170 C.3       1 FOL201      0.0000 
     25 CB          0.1860    4.1380    1.9400 C.3       1 FOL201      0.0000 
     26 CG          0.5160    5.5120    2.5160 C.3       1 FOL201      0.0000 
     27 CD         -0.5290    5.8710    3.5500 C.2       1 FOL201      0.0000 
     28 OE1        -0.2800    6.7870    4.3630 O.co2     1 FOL201      0.0000 
     29 OE2        -1.6060    5.2310    3.5590 O.co2     1 FOL201      0.0000 
     30 CT          2.3350    3.0300    2.4460 C.2       1 FOL201      0.0000 
     31 O1          3.1260    2.7570    3.3740 O.co2     1 FOL201      0.0000 
     32 O2          2.7270    3.3340    1.2930 O.co2     1 FOL201      0.0000 
@<TRIPOS>BOND
     1    1    2 1    
     2    1   12 1    
     3    2    3 1    
     4    2    4 2    
     5    4    5 1    
     6    5    6 2    
     7    5    7 1    
     8    7    8 ar   
     9    7   12 ar   
    10    8    9 ar   
    11    9   10 ar   
    12    9   13 1    
    13   10   11 ar   
    14   11   12 ar   
    15   13   14 1    
    16   14   18 1    
    17   15   16 ar   
    18   15   20 ar   
    19   15   21 1    
    20   16   17 ar   
    21   17   18 ar   
    22   18   19 ar   
    23   19   20 ar   
    24   21   22 2    
    25   21   23 am   
    26   23   24 1    
    27   24   25 1    
    28   24   30 1    
    29   25   26 1    
    30   26   27 1    
    31   27   28 ar   
    32   27   29 ar   
    33   30   31 ar   
    34   30   32 ar   
@<TRIPOS>SUBSTRUCTURE
     1 FOL201      1 GROUP   
@<TRIPOS>SET

