#    Name: 6mv8_4_NAI
#    Modification time : Fri May 22 19:24:56 2020

@<TRIPOS>MOLECULE
6mv8_4_NAI
   44    48     1     0     1
SMALL
NO_CHARGES


@<TRIPOS>ATOM
      1 PA        -13.5560   -3.0240   25.1330 P.3       1 NAI801      0.0000 
      2 O1A       -15.0570   -3.0520   25.1750 O.co2     1 NAI801      0.0000 
      3 O2A       -12.8280   -3.3040   26.4440 O.co2     1 NAI801      0.0000 
      4 O5B       -13.1740   -1.5800   24.6390 O.3       1 NAI801      0.0000 
      5 C5B       -13.6850   -0.9390   23.5390 C.3       1 NAI801      0.0000 
      6 C4B       -13.4960    0.4950   23.5940 C.3       1 NAI801      0.0000 
      7 O4B       -13.8860    1.0590   22.3630 O.3       1 NAI801      0.0000 
      8 C3B       -14.3210    1.1040   24.6960 C.3       1 NAI801      0.0000 
      9 O3B       -13.5470    1.9490   25.5070 O.3       1 NAI801      0.0000 
     10 C2B       -15.3150    1.8040   23.9830 C.3       1 NAI801      0.0000 
     11 O2B       -15.8740    2.8750   24.6770 O.3       1 NAI801      0.0000 
     12 C1B       -14.5840    2.2120   22.7250 C.3       1 NAI801      0.0000 
     13 N9A       -15.4340    2.7280   21.6550 N.pl3     1 NAI801      0.0000 
     14 C8A       -16.6920    2.3460   21.3620 C.2       1 NAI801      0.0000 
     15 N7A       -17.1630    3.0860   20.3310 N.2       1 NAI801      0.0000 
     16 C5A       -16.2290    3.9610   19.9590 C.ar      1 NAI801      0.0000 
     17 C6A       -16.1260    4.9600   18.9920 C.ar      1 NAI801      0.0000 
     18 N6A       -17.2140    5.2380   18.0840 N.pl3     1 NAI801      0.0000 
     19 N1A       -14.9970    5.6900   18.8670 N.ar      1 NAI801      0.0000 
     20 C2A       -13.9640    5.4550   19.6990 C.ar      1 NAI801      0.0000 
     21 N3A       -14.0070    4.5060   20.6310 N.ar      1 NAI801      0.0000 
     22 C4A       -15.1200    3.7430   20.8050 C.ar      1 NAI801      0.0000 
     23 O3        -13.0730   -4.0330   23.9720 O.3       1 NAI801      0.0000 
     24 PN        -11.6250   -4.6970   23.9790 P.3       1 NAI801      0.0000 
     25 O1N       -10.5900   -3.6400   24.3340 O.co2     1 NAI801      0.0000 
     26 O2N       -11.5390   -5.8880   24.9010 O.co2     1 NAI801      0.0000 
     27 O5D       -11.4400   -5.1870   22.4930 O.3       1 NAI801      0.0000 
     28 C5D       -11.4940   -4.3150   21.4180 C.3       1 NAI801      0.0000 
     29 C4D       -11.5580   -4.8930   20.0960 C.3       1 NAI801      0.0000 
     30 O4D       -10.2970   -5.5850   19.8780 O.3       1 NAI801      0.0000 
     31 C3D       -12.6290   -5.9180   19.9240 C.3       1 NAI801      0.0000 
     32 O3D       -13.1420   -5.8280   18.6340 O.3       1 NAI801      0.0000 
     33 C2D       -11.9220   -7.2040   20.1150 C.3       1 NAI801      0.0000 
     34 O2D       -12.5420   -8.2440   19.5350 O.3       1 NAI801      0.0000 
     35 C1D       -10.6440   -6.8580   19.4070 C.3       1 NAI801      0.0000 
     36 N1N        -9.5530   -7.8240   19.3690 N.pl3     1 NAI801      0.0000 
     37 C2N        -8.7960   -8.3370   18.3260 C.2       1 NAI801      0.0000 
     38 C3N        -7.5890   -9.1600   18.5130 C.2       1 NAI801      0.0000 
     39 C7N        -6.9890   -9.6520   17.2330 C.2       1 NAI801      0.0000 
     40 O7N        -6.1340  -10.5350   17.2570 O.2       1 NAI801      0.0000 
     41 N7N        -7.4000   -9.1250   15.9620 N.am      1 NAI801      0.0000 
     42 C4N        -7.3750   -9.8310   19.8210 C.3       1 NAI801      0.0000 
     43 C5N        -8.2740   -9.3370   20.9190 C.2       1 NAI801      0.0000 
     44 C6N        -9.2820   -8.2520   20.7060 C.2       1 NAI801      0.0000 
@<TRIPOS>BOND
     1    1    2 ar   
     2    1    3 ar   
     3    1    4 1    
     4    1   23 1    
     5    4    5 1    
     6    5    6 1    
     7    6    7 1    
     8    6    8 1    
     9    7   12 1    
    10    8    9 1    
    11    8   10 1    
    12   10   11 1    
    13   10   12 1    
    14   12   13 1    
    15   13   14 1    
    16   13   22 1    
    17   14   15 2    
    18   15   16 1    
    19   16   17 ar   
    20   16   22 ar   
    21   17   18 1    
    22   17   19 ar   
    23   19   20 ar   
    24   20   21 ar   
    25   21   22 ar   
    26   23   24 1    
    27   24   25 ar   
    28   24   26 ar   
    29   24   27 1    
    30   27   28 1    
    31   28   29 1    
    32   29   30 1    
    33   29   31 1    
    34   30   35 1    
    35   31   32 1    
    36   31   33 1    
    37   33   34 1    
    38   33   35 1    
    39   35   36 1    
    40   36   37 1    
    41   36   44 1    
    42   37   38 2    
    43   38   39 1    
    44   38   42 1    
    45   39   40 2    
    46   39   41 am   
    47   42   43 1    
    48   43   44 2    
@<TRIPOS>SUBSTRUCTURE
     1 NAI801      1 GROUP   
@<TRIPOS>SET
ATOM$ORANGE STATIC     ATOMS   COLORGROUP SYSTEM 
42 5 5 6 6 8 8 10 10 12 12 14 14 16 16 17 17 20 \
20 22 22 28 28 29 29 31 31 33 33 35 35 37 37 38 38 39 \
39 42 42 43 43 44 44 

