#    Name: 6hxl_7_COA
#    Modification time : Fri May 22 19:33:05 2020

@<TRIPOS>MOLECULE
6hxl_7_COA
   80    82     1     0     1
SMALL
NO_CHARGES


@<TRIPOS>ATOM
      1 N1A        -5.2410   50.0750   17.2660 N.ar      1 COA1200     0.0000 
      2 C2A        -6.1570   49.7900   18.1930 C.ar      1 COA1200     0.0000 
      3 N3A        -5.8730   49.1560   19.3560 N.ar      1 COA1200     0.0000 
      4 C4A        -4.5870   48.8270   19.6450 C.ar      1 COA1200     0.0000 
      5 C5A        -3.5250   49.2070   18.7250 C.ar      1 COA1200     0.0000 
      6 C6A        -3.9380   49.8430   17.4750 C.ar      1 COA1200     0.0000 
      7 N6A        -3.0370   50.1360   16.5390 N.pl3     1 COA1200     0.0000 
      8 N7A        -2.3610   48.7770   19.2420 N.2       1 COA1200     0.0000 
      9 C8A        -2.6280   48.2130   20.4400 C.2       1 COA1200     0.0000 
     10 N9A        -3.9500   48.2800   20.6690 N.pl3     1 COA1200     0.0000 
     11 C1B        -4.6210   47.7650   21.8660 C.3       1 COA1200     0.0000 
     12 C2B        -4.6380   46.2530   21.8710 C.3       1 COA1200     0.0000 
     13 O2B        -5.6780   45.7030   21.0530 O.3       1 COA1200     0.0000 
     14 C3B        -4.7440   45.9920   23.3580 C.3       1 COA1200     0.0000 
     15 O3B        -6.0900   46.2410   23.7550 O.3       1 COA1200     0.0000 
     16 P3B        -6.8420   45.3400   24.8750 P.3       1 COA1200     0.0000 
     17 O7A        -6.0900   45.6630   26.1420 O.co2     1 COA1200     0.0000 
     18 O8A        -8.2570   45.8680   24.8230 O.co2     1 COA1200     0.0000 
     19 O9A        -6.6660   43.9210   24.3900 O.co2     1 COA1200     0.0000 
     20 C4B        -3.8650   47.0840   23.9570 C.3       1 COA1200     0.0000 
     21 O4B        -3.8750   48.1610   23.0020 O.3       1 COA1200     0.0000 
     22 C5B        -2.4350   46.6150   24.2110 C.3       1 COA1200     0.0000 
     23 O5B        -1.9450   45.9020   23.0720 O.3       1 COA1200     0.0000 
     24 P1A        -0.3790   45.5700   22.9210 P.3       1 COA1200     0.0000 
     25 O1A        -0.2420   44.6770   21.7320 O.co2     1 COA1200     0.0000 
     26 O2A         0.1760   45.1760   24.2800 O.co2     1 COA1200     0.0000 
     27 O3A         0.1690   47.0530   22.6120 O.3       1 COA1200     0.0000 
     28 P2A         1.6520   47.4810   22.2180 P.3       1 COA1200     0.0000 
     29 O4A         1.8960   48.8770   22.7250 O.co2     1 COA1200     0.0000 
     30 O5A         2.6210   46.3950   22.5900 O.co2     1 COA1200     0.0000 
     31 O6A         1.4580   47.4280   20.6270 O.3       1 COA1200     0.0000 
     32 CBP         2.1550   47.7830   18.3750 C.3       1 COA1200     0.0000 
     33 CCP         2.3770   48.1700   19.8230 C.3       1 COA1200     0.0000 
     34 CDP         3.0440   48.7110   17.5360 C.3       1 COA1200     0.0000 
     35 CEP         2.6470   46.3520   18.1660 C.3       1 COA1200     0.0000 
     36 CAP         0.6780   47.9330   17.9720 C.3       1 COA1200     0.0000 
     37 OAP         0.2770   49.1960   18.4910 O.3       1 COA1200     0.0000 
     38 C9P         0.4570   47.8030   16.4790 C.2       1 COA1200     0.0000 
     39 O9P         0.4990   46.6840   15.9400 O.2       1 COA1200     0.0000 
     40 N8P         0.1720   48.9180   15.7940 N.am      1 COA1200     0.0000 
     41 C7P        -0.1720   48.8720   14.3850 C.3       1 COA1200     0.0000 
     42 C6P         1.0240   48.6900   13.4530 C.3       1 COA1200     0.0000 
     43 C5P         1.9020   49.9210   13.4380 C.2       1 COA1200     0.0000 
     44 O5P         1.4270   51.0490   13.2280 O.2       1 COA1200     0.0000 
     45 N4P         3.1980   49.7120   13.6670 N.am      1 COA1200     0.0000 
     46 C3P         4.2120   50.7660   13.6350 C.3       1 COA1200     0.0000 
     47 C2P         4.7350   51.0610   15.0330 C.3       1 COA1200     0.0000 
     48 S1P         6.0360   49.9070   15.5950 S.3       1 COA1200     0.0000 
     49 H2A        -7.1890   50.0240   17.9650 H         1 COA1200     0.0000 
     50 H61A       -3.3350   50.5840   15.7070 H         1 COA1200     0.0000 
     51 H62A       -2.0750   49.9110   16.6920 H         1 COA1200     0.0000 
     52 H8A        -1.8970   47.7990   21.1220 H         1 COA1200     0.0000 
     53 H1B        -5.6510   48.1530   21.9260 H         1 COA1200     0.0000 
     54 H2B        -3.6780   45.8750   21.4980 H         1 COA1200     0.0000 
     55 HO2A       -5.6470   44.7380   21.0920 H         1 COA1200     0.0000 
     56 H3B        -4.3850   44.9870   23.6170 H         1 COA1200     0.0000 
     57 H4B        -4.3060   47.4170   24.9070 H         1 COA1200     0.0000 
     58 H51A       -1.7940   47.4750   24.4190 H         1 COA1200     0.0000 
     59 H52A       -2.4090   45.9550   25.0820 H         1 COA1200     0.0000 
     60 H121        3.3990   47.9340   20.1310 H         1 COA1200     0.0000 
     61 H122        2.2290   49.2430   19.9600 H         1 COA1200     0.0000 
     62 H131        2.5850   49.6590   17.4440 H         1 COA1200     0.0000 
     63 H132        3.9900   48.8230   18.0010 H         1 COA1200     0.0000 
     64 H133        3.1840   48.3020   16.5700 H         1 COA1200     0.0000 
     65 H141        3.6070   46.2430   18.6020 H         1 COA1200     0.0000 
     66 H142        2.7260   46.1360   17.1330 H         1 COA1200     0.0000 
     67 H143        1.9720   45.6760   18.6190 H         1 COA1200     0.0000 
     68 H10         0.0930   47.1430   18.4630 H         1 COA1200     0.0000 
     69 HO1        -0.6130   49.4060   18.2060 H         1 COA1200     0.0000 
     70 HN8         0.1740   49.8060   16.2470 H         1 COA1200     0.0000 
     71 H71        -0.8830   48.0630   14.2020 H         1 COA1200     0.0000 
     72 H72        -0.6760   49.8060   14.1280 H         1 COA1200     0.0000 
     73 H61         0.6720   48.5070   12.4350 H         1 COA1200     0.0000 
     74 H62         1.5860   47.8030   13.7560 H         1 COA1200     0.0000 
     75 HN4         3.5190   48.7850   13.8530 H         1 COA1200     0.0000 
     76 H31         5.0410   50.4310   13.0090 H         1 COA1200     0.0000 
     77 H32         3.8220   51.6880   13.2000 H         1 COA1200     0.0000 
     78 H21         3.9020   51.0260   15.7390 H         1 COA1200     0.0000 
     79 H22         5.1240   52.0790   15.0500 H         1 COA1200     0.0000 
     80 HS1         5.2520   48.9080   15.9650 H         1 COA1200     0.0000 
@<TRIPOS>BOND
     1    1    2 ar   
     2    1    6 ar   
     3    2    3 ar   
     4    2   49 1    
     5    3    4 ar   
     6    4    5 ar   
     7    4   10 1    
     8    5    6 ar   
     9    5    8 1    
    10    6    7 1    
    11    7   50 1    
    12    7   51 1    
    13    8    9 2    
    14    9   10 1    
    15    9   52 1    
    16   10   11 1    
    17   11   12 1    
    18   11   21 1    
    19   11   53 1    
    20   12   13 1    
    21   12   14 1    
    22   12   54 1    
    23   13   55 1    
    24   14   15 1    
    25   14   20 1    
    26   14   56 1    
    27   15   16 1    
    28   16   17 ar   
    29   16   18 ar   
    30   16   19 ar   
    31   20   21 1    
    32   20   22 1    
    33   20   57 1    
    34   22   23 1    
    35   22   58 1    
    36   22   59 1    
    37   23   24 1    
    38   24   25 ar   
    39   24   26 ar   
    40   24   27 1    
    41   27   28 1    
    42   28   29 ar   
    43   28   30 ar   
    44   28   31 1    
    45   31   33 1    
    46   32   33 1    
    47   32   34 1    
    48   32   35 1    
    49   32   36 1    
    50   33   60 1    
    51   33   61 1    
    52   34   62 1    
    53   34   63 1    
    54   34   64 1    
    55   35   66 1    
    56   35   65 1    
    57   35   67 1    
    58   36   37 1    
    59   36   38 1    
    60   36   68 1    
    61   37   69 1    
    62   38   39 2    
    63   38   40 am   
    64   40   41 1    
    65   40   70 1    
    66   41   42 1    
    67   41   71 1    
    68   41   72 1    
    69   42   43 1    
    70   42   73 1    
    71   42   74 1    
    72   43   44 2    
    73   43   45 am   
    74   45   46 1    
    75   45   75 1    
    76   46   47 1    
    77   46   76 1    
    78   46   77 1    
    79   47   48 1    
    80   47   78 1    
    81   47   79 1    
    82   48   80 1    
@<TRIPOS>SUBSTRUCTURE
     1 COA1200     1 GROUP   
@<TRIPOS>SET
ATOM$ORANGE STATIC     ATOMS   COLORGROUP SYSTEM 
42 2 2 4 4 5 5 6 6 9 9 11 11 12 12 14 14 20 \
20 22 22 32 32 33 33 34 34 35 35 36 36 38 38 41 41 42 \
42 43 43 46 46 47 47 

