#    Name: 6hxl_5_COA_CAVITY_N1_ALL
#    Modification time : Fri May 22 19:33:01 2020

@<TRIPOS>MOLECULE
6hxl_5_COA_CAVITY_N1_ALL
   77     0     7     0     0
SMALL
NO_CHARGES


@<TRIPOS>ATOM
      1 OG         25.7000   24.9000   16.1300 O.3       1 SER1        0.0000 
      2 OG         26.6900   23.3000   17.1000 O.3       1 SER1        0.0000 
      3 OG         25.2900   23.8200   17.0800 O.3       1 SER1        0.0000 
      4 OG         23.8900   24.3500   17.0700 O.3       1 SER1        0.0000 
      5 OG         26.0300   25.8000   17.2900 O.3       1 SER1        0.0000 
      6 O          25.7900   25.0900   14.0200 O.2       2 ALA2        0.0000 
      7 O          26.1100   25.9900   15.1800 O.2       2 ALA2        0.0000 
      8 N          33.3000   28.0200   13.5200 N.am      2 ALA2        0.0000 
      9 N          31.4800   27.4700   14.4600 N.am      2 ALA2        0.0000 
     10 O          32.4700   25.8600   15.4200 O.2       2 ALA2        0.0000 
     11 O          31.0700   26.3900   15.4100 O.2       2 ALA2        0.0000 
     12 N          29.6600   26.9100   15.4000 N.am      2 ALA2        0.0000 
     13 O          30.6600   25.3000   16.3700 O.2       2 ALA2        0.0000 
     14 O          29.2500   25.8300   16.3600 O.2       2 ALA2        0.0000 
     15 N          32.2200   29.4500   14.6600 N.am      2 ALA2        0.0000 
     16 N          34.6200   27.3100   15.6400 N.am      2 ALA2        0.0000 
     17 N          33.2100   27.8400   15.6300 N.am      2 ALA2        0.0000 
     18 N          31.8100   28.3600   15.6200 N.am      2 ALA2        0.0000 
     19 N          32.8000   26.7600   16.5800 N.am      2 ALA2        0.0000 
     20 N          31.3900   27.2800   16.5700 N.am      2 ALA2        0.0000 
     21 N          30.9800   26.2000   17.5200 N.am      2 ALA2        0.0000 
     22 N          29.5800   26.7300   17.5100 N.am      2 ALA2        0.0000 
     23 N          36.3500   27.6800   16.8100 N.am      2 ALA2        0.0000 
     24 N          34.9400   28.2100   16.8000 N.am      2 ALA2        0.0000 
     25 N          32.1300   29.2600   16.7700 N.am      2 ALA2        0.0000 
     26 N          33.1300   27.6500   17.7400 N.am      2 ALA2        0.0000 
     27 N          31.7200   28.1800   17.7300 N.am      2 ALA2        0.0000 
     28 N          30.3200   28.7100   17.7200 N.am      2 ALA2        0.0000 
     29 N          31.3100   27.1000   18.6800 N.am      2 ALA2        0.0000 
     30 N          36.2600   27.5000   18.9200 N.am      2 ALA2        0.0000 
     31 N          34.8600   28.0200   18.9100 N.am      2 ALA2        0.0000 
     32 O          31.6300   28.0000   19.8400 O.2       2 ALA2        0.0000 
     33 O          30.2300   28.5200   19.8300 O.2       2 ALA2        0.0000 
     34 O          31.9600   28.8900   21.0000 O.2       2 ALA2        0.0000 
     35 O          33.6900   29.2600   22.1700 O.2       2 ALA2        0.0000 
     36 OD1        24.9600   22.9300   15.9300 O.co2     3 ASP3        0.0000 
     37 OD1        23.5600   23.4500   15.9200 O.co2     3 ASP3        0.0000 
     38 OD1        30.9700   30.5000   20.0300 O.co2     3 ASP3        0.0000 
     39 OD1        32.7000   30.8700   21.2000 O.co2     3 ASP3        0.0000 
     40 OD1        32.2900   29.7900   22.1500 O.co2     3 ASP3        0.0000 
     41 NZ         26.7800   23.4800   14.9800 N.4       4 LYS4        0.0000 
     42 NZ         29.3400   26.0200   14.2400 N.4       4 LYS4        0.0000 
     43 NZ         28.9200   24.9300   15.2000 N.4       4 LYS4        0.0000 
     44 NZ         27.5200   25.4600   15.1900 N.4       4 LYS4        0.0000 
     45 NZ         28.5100   23.8500   16.1500 N.4       4 LYS4        0.0000 
     46 NZ         27.1100   24.3800   16.1400 N.4       4 LYS4        0.0000 
     47 CZ         25.3800   24.0100   14.9700 C.ar      5 PHE5        0.0000 
     48 CZ         23.9700   24.5300   14.9600 C.ar      5 PHE5        0.0000 
     49 CZ         24.3000   25.4300   16.1200 C.ar      5 PHE5        0.0000 
     50 CZ         28.8400   24.7500   17.3100 C.ar      5 PHE5        0.0000 
     51 CZ         27.4300   25.2800   17.3000 C.ar      5 PHE5        0.0000 
     52 CA         26.3700   22.4000   15.9400 C.3       6 GLY6        0.0000 
     53 CA         31.1500   26.5700   13.3000 C.3       6 GLY6        0.0000 
     54 CA         32.8900   26.9400   14.4700 C.3       6 GLY6        0.0000 
     55 CA         35.0300   28.3900   14.6800 C.3       6 GLY6        0.0000 
     56 CA         35.3600   29.2900   15.8400 C.3       6 GLY6        0.0000 
     57 CA         32.5500   30.3400   15.8200 C.3       6 GLY6        0.0000 
     58 CA         29.9000   27.6200   18.6700 C.3       6 GLY6        0.0000 
     59 CA         36.6700   28.5800   17.9600 C.3       6 GLY6        0.0000 
     60 CA         35.2700   29.1100   17.9500 C.3       6 GLY6        0.0000 
     61 CA         31.0500   30.6800   17.9200 C.3       6 GLY6        0.0000 
     62 CA         30.6400   29.6000   18.8700 C.3       6 GLY6        0.0000 
     63 CA         35.8500   26.4200   19.8700 C.3       6 GLY6        0.0000 
     64 CA         34.4400   26.9400   19.8600 C.3       6 GLY6        0.0000 
     65 CA         33.0400   27.4700   19.8500 C.3       6 GLY6        0.0000 
     66 CA         37.0000   29.4800   19.1200 C.3       6 GLY6        0.0000 
     67 CA         31.3800   31.5800   19.0800 C.3       6 GLY6        0.0000 
     68 CA         36.5900   28.4000   20.0800 C.3       6 GLY6        0.0000 
     69 CA         36.1800   27.3100   21.0300 C.3       6 GLY6        0.0000 
     70 DU         33.5400   28.7400   16.7800 H         7 CUB7        0.0000 
     71 DU         33.8600   29.6300   17.9400 H         7 CUB7        0.0000 
     72 DU         32.4600   30.1600   17.9300 H         7 CUB7        0.0000 
     73 DU         33.4500   28.5500   18.9000 H         7 CUB7        0.0000 
     74 DU         32.0500   29.0800   18.8800 H         7 CUB7        0.0000 
     75 DU         32.7900   31.0500   19.0900 H         7 CUB7        0.0000 
     76 DU         35.1800   28.9200   20.0600 H         7 CUB7        0.0000 
     77 DU         32.3700   29.9700   20.0400 H         7 CUB7        0.0000 
@<TRIPOS>BOND
@<TRIPOS>SUBSTRUCTURE
     1 SER1        1 GROUP   
     2 ALA2        6 GROUP   
     3 ASP3       36 GROUP   
     4 LYS4       41 GROUP   
     5 PHE5       47 GROUP   
     6 GLY6       52 GROUP   
     7 CUB7       70 GROUP   
@<TRIPOS>SET

