#    Name: 6hxl_3_COA
#    Modification time : Fri May 22 19:32:53 2020

@<TRIPOS>MOLECULE
6hxl_3_COA
   80    82     1     0     1
SMALL
NO_CHARGES


@<TRIPOS>ATOM
      1 N1A        -4.5360   -7.1270  -69.9690 N.ar      1 COA1200     0.0000 
      2 C2A        -5.3890   -6.5430  -70.8330 C.ar      1 COA1200     0.0000 
      3 N3A        -4.9590   -5.9170  -71.9550 N.ar      1 COA1200     0.0000 
      4 C4A        -3.6370   -5.8530  -72.2660 C.ar      1 COA1200     0.0000 
      5 C5A        -2.6720   -6.4910  -71.3950 C.ar      1 COA1200     0.0000 
      6 C6A        -3.2080   -7.1500  -70.2050 C.ar      1 COA1200     0.0000 
      7 N6A        -2.3600   -7.7590  -69.3700 N.pl3     1 COA1200     0.0000 
      8 N7A        -1.4520   -6.2710  -71.9090 N.2       1 COA1200     0.0000 
      9 C8A        -1.6050   -5.5550  -73.0460 C.2       1 COA1200     0.0000 
     10 N9A        -2.9070   -5.3230  -73.2440 N.pl3     1 COA1200     0.0000 
     11 C1B        -3.4990   -4.5810  -74.3640 C.3       1 COA1200     0.0000 
     12 C2B        -3.3830   -3.1070  -74.0690 C.3       1 COA1200     0.0000 
     13 O2B        -4.4370   -2.6530  -73.2250 O.3       1 COA1200     0.0000 
     14 C3B        -3.4180   -2.5470  -75.4760 C.3       1 COA1200     0.0000 
     15 O3B        -4.7900   -2.5570  -75.9000 O.3       1 COA1200     0.0000 
     16 P3B        -5.4520   -1.4980  -76.9310 P.3       1 COA1200     0.0000 
     17 O7A        -4.9260   -1.9500  -78.2750 O.co2     1 COA1200     0.0000 
     18 O8A        -6.9370   -1.7240  -76.7450 O.co2     1 COA1200     0.0000 
     19 O9A        -4.9400   -0.1550  -76.4420 O.co2     1 COA1200     0.0000 
     20 C4B        -2.6440   -3.5860  -76.2800 C.3       1 COA1200     0.0000 
     21 O4B        -2.7890   -4.8240  -75.5770 O.3       1 COA1200     0.0000 
     22 C5B        -1.1600   -3.2630  -76.4570 C.3       1 COA1200     0.0000 
     23 O5B        -0.5290   -2.8970  -75.2260 O.3       1 COA1200     0.0000 
     24 P1A         1.0780   -2.9240  -75.1220 P.3       1 COA1200     0.0000 
     25 O1A         1.4500   -2.3610  -73.7640 O.co2     1 COA1200     0.0000 
     26 O2A         1.6290   -2.2620  -76.3790 O.co2     1 COA1200     0.0000 
     27 O3A         1.3560   -4.5040  -75.2420 O.3       1 COA1200     0.0000 
     28 P2A         2.7120   -5.2460  -74.9050 P.3       1 COA1200     0.0000 
     29 O4A         2.7190   -6.5900  -75.5750 O.co2     1 COA1200     0.0000 
     30 O5A         3.8560   -4.2840  -75.1270 O.co2     1 COA1200     0.0000 
     31 O6A         2.5500   -5.4460  -73.3170 O.3       1 COA1200     0.0000 
     32 CBP         3.2220   -6.2650  -71.1560 C.3       1 COA1200     0.0000 
     33 CCP         3.2980   -6.4660  -72.6680 C.3       1 COA1200     0.0000 
     34 CDP         3.8890   -7.4900  -70.5420 C.3       1 COA1200     0.0000 
     35 CEP         3.9890   -4.9980  -70.7940 C.3       1 COA1200     0.0000 
     36 CAP         1.7590   -6.1590  -70.6860 C.3       1 COA1200     0.0000 
     37 OAP         1.0610   -7.2150  -71.3590 O.3       1 COA1200     0.0000 
     38 C9P         1.6130   -6.1860  -69.1790 C.2       1 COA1200     0.0000 
     39 O9P         1.8990   -5.1820  -68.5050 O.2       1 COA1200     0.0000 
     40 N8P         1.1070   -7.2800  -68.6230 N.am      1 COA1200     0.0000 
     41 C7P         0.7680   -7.3570  -67.2090 C.3       1 COA1200     0.0000 
     42 C6P         2.0340   -7.5280  -66.3920 C.3       1 COA1200     0.0000 
     43 C5P         2.6100   -8.9140  -66.5680 C.2       1 COA1200     0.0000 
     44 O5P         1.8750   -9.9070  -66.4510 O.2       1 COA1200     0.0000 
     45 N4P         3.9390   -8.9570  -66.7990 N.am      1 COA1200     0.0000 
     46 C3P         4.7110  -10.1690  -66.9440 C.3       1 COA1200     0.0000 
     47 C2P         5.1700  -10.3390  -68.4020 C.3       1 COA1200     0.0000 
     48 S1P         6.6830   -9.4310  -68.8260 S.3       1 COA1200     0.0000 
     49 H2A        -6.4520   -6.5720  -70.6230 H         1 COA1200     0.0000 
     50 H61A       -2.7210   -8.2110  -68.5650 H         1 COA1200     0.0000 
     51 H62A       -1.3740   -7.7260  -69.5420 H         1 COA1200     0.0000 
     52 H8A        -0.8040   -5.2440  -73.7070 H         1 COA1200     0.0000 
     53 H1B        -4.5590   -4.8470  -74.4840 H         1 COA1200     0.0000 
     54 H2B        -2.4170   -2.8910  -73.5970 H         1 COA1200     0.0000 
     55 HO2A       -4.0810   -2.0130  -72.5920 H         1 COA1200     0.0000 
     56 H3B        -2.9400   -1.5590  -75.5240 H         1 COA1200     0.0000 
     57 H4B        -3.1030   -3.6800  -77.2750 H         1 COA1200     0.0000 
     58 H51A       -0.6570   -4.1330  -76.8830 H         1 COA1200     0.0000 
     59 H52A       -1.0560   -2.4420  -77.1690 H         1 COA1200     0.0000 
     60 H121        4.3390   -6.4250  -72.9950 H         1 COA1200     0.0000 
     61 H122        2.9130   -7.4470  -72.9500 H         1 COA1200     0.0000 
     62 H131        3.3160   -8.3510  -70.7660 H         1 COA1200     0.0000 
     63 H132        4.8530   -7.6020  -70.9660 H         1 COA1200     0.0000 
     64 H133        3.9900   -7.3880  -69.4950 H         1 COA1200     0.0000 
     65 H141        4.8780   -4.9380  -71.3680 H         1 COA1200     0.0000 
     66 H142        4.2530   -5.0330  -69.7670 H         1 COA1200     0.0000 
     67 H143        3.3910   -4.1460  -70.9770 H         1 COA1200     0.0000 
     68 H10         1.3460   -5.1980  -71.0270 H         1 COA1200     0.0000 
     69 HO1         0.2020   -7.3730  -70.9720 H         1 COA1200     0.0000 
     70 HN8         0.9200   -8.0910  -69.1720 H         1 COA1200     0.0000 
     71 H71         0.2720   -6.4340  -66.9050 H         1 COA1200     0.0000 
     72 H72         0.0720   -8.1750  -67.0230 H         1 COA1200     0.0000 
     73 H61         1.8060   -7.3780  -65.3360 H         1 COA1200     0.0000 
     74 H62         2.7630   -6.7690  -66.6750 H         1 COA1200     0.0000 
     75 HN4         4.4470   -8.1000  -66.8730 H         1 COA1200     0.0000 
     76 H31         5.5800  -10.1160  -66.2860 H         1 COA1200     0.0000 
     77 H32         4.1280  -11.0430  -66.6480 H         1 COA1200     0.0000 
     78 H21         4.3670  -10.0060  -69.0640 H         1 COA1200     0.0000 
     79 H22         5.3170  -11.4040  -68.5960 H         1 COA1200     0.0000 
     80 HS1         6.1160   -8.2620  -69.0920 H         1 COA1200     0.0000 
@<TRIPOS>BOND
     1    1    2 ar   
     2    1    6 ar   
     3    2    3 ar   
     4    2   49 1    
     5    3    4 ar   
     6    4    5 ar   
     7    4   10 1    
     8    5    6 ar   
     9    5    8 1    
    10    6    7 1    
    11    7   50 1    
    12    7   51 1    
    13    8    9 2    
    14    9   10 1    
    15    9   52 1    
    16   10   11 1    
    17   11   12 1    
    18   11   21 1    
    19   11   53 1    
    20   12   13 1    
    21   12   14 1    
    22   12   54 1    
    23   13   55 1    
    24   14   15 1    
    25   14   20 1    
    26   14   56 1    
    27   15   16 1    
    28   16   17 ar   
    29   16   18 ar   
    30   16   19 ar   
    31   20   21 1    
    32   20   22 1    
    33   20   57 1    
    34   22   23 1    
    35   22   58 1    
    36   22   59 1    
    37   23   24 1    
    38   24   25 ar   
    39   24   26 ar   
    40   24   27 1    
    41   27   28 1    
    42   28   29 ar   
    43   28   30 ar   
    44   28   31 1    
    45   31   33 1    
    46   32   33 1    
    47   32   34 1    
    48   32   35 1    
    49   32   36 1    
    50   33   60 1    
    51   33   61 1    
    52   34   62 1    
    53   34   63 1    
    54   34   64 1    
    55   35   66 1    
    56   35   65 1    
    57   35   67 1    
    58   36   37 1    
    59   36   38 1    
    60   36   68 1    
    61   37   69 1    
    62   38   39 2    
    63   38   40 am   
    64   40   41 1    
    65   40   70 1    
    66   41   42 1    
    67   41   71 1    
    68   41   72 1    
    69   42   43 1    
    70   42   73 1    
    71   42   74 1    
    72   43   44 2    
    73   43   45 am   
    74   45   46 1    
    75   45   75 1    
    76   46   47 1    
    77   46   76 1    
    78   46   77 1    
    79   47   48 1    
    80   47   78 1    
    81   47   79 1    
    82   48   80 1    
@<TRIPOS>SUBSTRUCTURE
     1 COA1200     1 GROUP   
@<TRIPOS>SET
ATOM$ORANGE STATIC     ATOMS   COLORGROUP SYSTEM 
42 2 2 4 4 5 5 6 6 9 9 11 11 12 12 14 14 20 \
20 22 22 32 32 33 33 34 34 35 35 36 36 38 38 41 41 42 \
42 43 43 46 46 47 47 

