#    Name: 6hxl_7_COA_CAVITY_N1_12
#    Modification time : Fri May 22 19:33:06 2020

@<TRIPOS>MOLECULE
6hxl_7_COA_CAVITY_N1_12
   74     0     7     0     0
SMALL
NO_CHARGES


@<TRIPOS>ATOM
      1 OG          8.5600   51.8300   15.6500 O.3       1 SER1        0.0000 
      2 OG          8.1500   50.7500   16.6100 O.3       1 SER1        0.0000 
      3 N           0.8100   48.1900   12.8900 N.am      2 ALA2        0.0000 
      4 N           2.5400   48.5600   14.0600 N.am      2 ALA2        0.0000 
      5 N           1.1300   49.0800   14.0500 N.am      2 ALA2        0.0000 
      6 N           2.1300   47.4800   15.0100 N.am      2 ALA2        0.0000 
      7 N          -0.6800   48.5300   14.9900 N.am      2 ALA2        0.0000 
      8 N           1.7100   46.3900   15.9700 N.am      2 ALA2        0.0000 
      9 N           4.6800   50.0100   14.2700 N.am      2 ALA2        0.0000 
     10 O           3.2800   50.5400   14.2600 O.2       2 ALA2        0.0000 
     11 N           2.8700   49.4500   15.2100 N.am      2 ALA2        0.0000 
     12 N           1.4600   49.9800   15.2000 N.am      2 ALA2        0.0000 
     13 N           2.4500   48.3700   16.1700 N.am      2 ALA2        0.0000 
     14 N           1.0500   48.9000   16.1600 N.am      2 ALA2        0.0000 
     15 N          -0.7700   48.3400   17.1000 N.am      2 ALA2        0.0000 
     16 O           8.2300   50.9400   14.5000 O.2       2 ALA2        0.0000 
     17 O           5.0100   50.9100   15.4300 O.2       2 ALA2        0.0000 
     18 N           4.6000   49.8200   16.3800 N.am      2 ALA2        0.0000 
     19 N           3.1900   50.3500   16.3700 N.am      2 ALA2        0.0000 
     20 N           4.1800   48.7400   17.3400 N.am      2 ALA2        0.0000 
     21 N           2.7800   49.2700   17.3300 N.am      2 ALA2        0.0000 
     22 N           1.3800   49.7900   17.3100 N.am      2 ALA2        0.0000 
     23 N          -0.4400   49.2400   18.2600 N.am      2 ALA2        0.0000 
     24 N          -1.8500   49.7700   18.2500 N.am      2 ALA2        0.0000 
     25 O           4.1000   48.5600   19.4500 O.2       2 ALA2        0.0000 
     26 O           2.6900   49.0800   19.4400 O.2       2 ALA2        0.0000 
     27 O           1.2900   49.6100   19.4300 O.2       2 ALA2        0.0000 
     28 O           0.8800   48.5300   20.3800 O.2       2 ALA2        0.0000 
     29 O          -0.5300   49.0500   20.3700 O.2       2 ALA2        0.0000 
     30 N           2.6100   48.9000   21.5500 N.am      2 ALA2        0.0000 
     31 O           1.2000   49.4300   21.5400 O.2       2 ALA2        0.0000 
     32 OD1         3.3600   46.5800   19.2500 O.co2     3 ASP3        0.0000 
     33 OD1         1.5400   46.0300   20.1900 O.co2     3 ASP3        0.0000 
     34 OD1        10.3800   52.3900   14.7100 O.co2     3 ASP3        0.0000 
     35 OD1         3.6900   47.4800   20.4000 O.co2     3 ASP3        0.0000 
     36 OD1         1.8700   46.9200   21.3500 O.co2     3 ASP3        0.0000 
     37 NZ          8.6400   52.0200   13.5400 N.4       4 LYS4        0.0000 
     38 NZ          6.8300   51.4600   14.4900 N.4       4 LYS4        0.0000 
     39 NZ          5.4200   51.9900   14.4700 N.4       4 LYS4        0.0000 
     40 CZ         10.0500   51.4900   13.5500 C.ar      5 PHE5        0.0000 
     41 CZ          9.6400   50.4100   14.5100 C.ar      5 PHE5        0.0000 
     42 CZ          9.9600   51.3100   15.6700 C.ar      5 PHE5        0.0000 
     43 CZ          7.1500   52.3600   15.6400 C.ar      5 PHE5        0.0000 
     44 CZ          6.7400   51.2800   16.6000 C.ar      5 PHE5        0.0000 
     45 CA          2.9500   49.6400   13.1000 C.3       6 GLY6        0.0000 
     46 CA          1.5500   50.1600   13.0900 C.3       6 GLY6        0.0000 
     47 CA          0.3100   46.9200   15.9500 C.3       6 GLY6        0.0000 
     48 CA         -1.0900   47.4500   15.9400 C.3       6 GLY6        0.0000 
     49 CA          3.4500   46.7700   17.1300 C.3       6 GLY6        0.0000 
     50 CA          3.0300   45.6800   18.0900 C.3       6 GLY6        0.0000 
     51 CA         -1.1800   47.2600   18.0500 C.3       6 GLY6        0.0000 
     52 CA         -2.5900   47.7900   18.0400 C.3       6 GLY6        0.0000 
     53 CA          3.7700   47.6600   18.2900 C.3       6 GLY6        0.0000 
     54 CA          0.9600   48.7100   18.2700 C.3       6 GLY6        0.0000 
     55 CA         -2.2600   48.6800   19.2000 C.3       6 GLY6        0.0000 
     56 CA         -2.6700   47.6000   20.1500 C.3       6 GLY6        0.0000 
     57 CA          8.9700   52.9100   14.7000 C.3       6 GLY6        0.0000 
     58 CA          7.5700   53.4400   14.6900 C.3       6 GLY6        0.0000 
     59 CA         11.3700   50.7800   15.6800 C.3       6 GLY6        0.0000 
     60 CA          9.5500   50.2200   16.6200 C.3       6 GLY6        0.0000 
     61 CA          3.1100   50.1700   18.4800 C.3       6 GLY6        0.0000 
     62 CA         -0.1200   50.1400   19.4200 C.3       6 GLY6        0.0000 
     63 CA         -1.5200   50.6600   19.4000 C.3       6 GLY6        0.0000 
     64 CA         -1.9300   49.5800   20.3600 C.3       6 GLY6        0.0000 
     65 DU          0.7200   48.0000   15.0000 H         7 CUB7        0.0000 
     66 DU          2.0400   47.2900   17.1200 H         7 CUB7        0.0000 
     67 DU          0.6400   47.8200   17.1100 H         7 CUB7        0.0000 
     68 DU          1.6300   46.2100   18.0800 H         7 CUB7        0.0000 
     69 DU          0.2200   46.7400   18.0700 H         7 CUB7        0.0000 
     70 DU          2.3700   48.1900   18.2800 H         7 CUB7        0.0000 
     71 DU          1.9500   47.1100   19.2300 H         7 CUB7        0.0000 
     72 DU          0.5500   47.6300   19.2200 H         7 CUB7        0.0000 
     73 DU         -0.8500   48.1600   19.2100 H         7 CUB7        0.0000 
     74 DU          2.2800   48.0000   20.3900 H         7 CUB7        0.0000 
@<TRIPOS>BOND
@<TRIPOS>SUBSTRUCTURE
     1 SER1        1 GROUP   
     2 ALA2        3 GROUP   
     3 ASP3       32 GROUP   
     4 LYS4       37 GROUP   
     5 PHE5       40 GROUP   
     6 GLY6       45 GROUP   
     7 CUB7       65 GROUP   
@<TRIPOS>SET

