#    Name: 6hxl_5_COA
#    Modification time : Fri May 22 19:32:59 2020

@<TRIPOS>MOLECULE
6hxl_5_COA
   80    82     1     0     1
SMALL
NO_CHARGES


@<TRIPOS>ATOM
      1 N1A        39.7090   26.7750   18.1900 N.ar      1 COA1201     0.0000 
      2 C2A        40.6390   27.1850   19.0820 C.ar      1 COA1201     0.0000 
      3 N3A        40.3310   27.8920   20.2020 N.ar      1 COA1201     0.0000 
      4 C4A        39.0310   28.2170   20.4680 C.ar      1 COA1201     0.0000 
      5 C5A        37.9820   27.7890   19.5490 C.ar      1 COA1201     0.0000 
      6 C6A        38.3950   27.0650   18.3540 C.ar      1 COA1201     0.0000 
      7 N6A        37.4540   26.6700   17.4920 N.pl3     1 COA1201     0.0000 
      8 N7A        36.8150   28.2460   20.0380 N.2       1 COA1201     0.0000 
      9 C8A        37.0650   28.8930   21.1950 C.2       1 COA1201     0.0000 
     10 N9A        38.3920   28.8830   21.4320 N.pl3     1 COA1201     0.0000 
     11 C1B        39.0510   29.4900   22.5950 C.3       1 COA1201     0.0000 
     12 C2B        39.1130   30.9960   22.4420 C.3       1 COA1201     0.0000 
     13 O2B        40.2130   31.3950   21.6290 O.3       1 COA1201     0.0000 
     14 C3B        39.1870   31.4250   23.8970 C.3       1 COA1201     0.0000 
     15 O3B        40.5370   31.2850   24.3550 O.3       1 COA1201     0.0000 
     16 P3B        41.2630   32.3430   25.3420 P.3       1 COA1201     0.0000 
     17 O7A        40.6910   32.0270   26.7040 O.co2     1 COA1201     0.0000 
     18 O8A        42.7260   31.9910   25.2040 O.co2     1 COA1201     0.0000 
     19 O9A        40.8890   33.7010   24.7960 O.co2     1 COA1201     0.0000 
     20 C4B        38.3120   30.3980   24.6140 C.3       1 COA1201     0.0000 
     21 O4B        38.2650   29.2560   23.7560 O.3       1 COA1201     0.0000 
     22 C5B        36.8840   30.8710   24.8510 C.3       1 COA1201     0.0000 
     23 O5B        36.3790   31.3900   23.6220 O.3       1 COA1201     0.0000 
     24 P1A        34.8370   31.7790   23.4410 P.3       1 COA1201     0.0000 
     25 O1A        34.6680   32.5290   22.1410 O.co2     1 COA1201     0.0000 
     26 O2A        34.3780   32.4250   24.7440 O.co2     1 COA1201     0.0000 
     27 O3A        34.2950   30.2590   23.3900 O.3       1 COA1201     0.0000 
     28 P2A        32.7960   29.8660   22.9750 P.3       1 COA1201     0.0000 
     29 O4A        32.4970   28.5450   23.6250 O.co2     1 COA1201     0.0000 
     30 O5A        31.8960   31.0330   23.2810 O.co2     1 COA1201     0.0000 
     31 O6A        32.9410   29.7280   21.3750 O.3       1 COA1201     0.0000 
     32 CBP        32.2230   29.1480   19.1670 C.3       1 COA1201     0.0000 
     33 CCP        32.0470   28.9060   20.6560 C.3       1 COA1201     0.0000 
     34 CDP        31.3640   28.1180   18.4430 C.3       1 COA1201     0.0000 
     35 CEP        31.7360   30.5660   18.8280 C.3       1 COA1201     0.0000 
     36 CAP        33.6970   28.9780   18.7960 C.3       1 COA1201     0.0000 
     37 OAP        34.1700   27.7690   19.4150 O.3       1 COA1201     0.0000 
     38 C9P        33.9460   28.9750   17.3000 C.2       1 COA1201     0.0000 
     39 O9P        33.9300   30.0300   16.6600 O.2       1 COA1201     0.0000 
     40 N8P        34.1770   27.8020   16.7070 N.am      1 COA1201     0.0000 
     41 C7P        34.5960   27.6880   15.3270 C.3       1 COA1201     0.0000 
     42 C6P        33.4140   27.8080   14.3890 C.3       1 COA1201     0.0000 
     43 C5P        32.5470   26.5870   14.5170 C.2       1 COA1201     0.0000 
     44 O5P        33.0360   25.4810   14.3760 O.2       1 COA1201     0.0000 
     45 N4P        31.2460   26.8030   14.7190 N.am      1 COA1201     0.0000 
     46 C3P        30.2460   25.7640   14.7970 C.3       1 COA1201     0.0000 
     47 C2P        29.7580   25.6000   16.2260 C.3       1 COA1201     0.0000 
     48 S1P        28.4260   26.7700   16.5770 S.3       1 COA1201     0.0000 
     49 H2A        41.6780   26.9490   18.8860 H         1 COA1201     0.0000 
     50 H61A       37.7280   26.1500   16.6930 H         1 COA1201     0.0000 
     51 H62A       36.4890   26.9050   17.6430 H         1 COA1201     0.0000 
     52 H8A        36.3220   29.3710   21.8210 H         1 COA1201     0.0000 
     53 H1B        40.0680   29.0940   22.7230 H         1 COA1201     0.0000 
     54 H2B        38.1830   31.3620   21.9890 H         1 COA1201     0.0000 
     55 HO2A       39.9650   32.1790   21.1190 H         1 COA1201     0.0000 
     56 H3B        38.7880   32.4400   24.0280 H         1 COA1201     0.0000 
     57 H4B        38.7740   30.1300   25.5750 H         1 COA1201     0.0000 
     58 H51A       36.2650   30.0350   25.1840 H         1 COA1201     0.0000 
     59 H52A       36.8680   31.6450   25.6220 H         1 COA1201     0.0000 
     60 H121       31.0220   29.1410   20.9530 H         1 COA1201     0.0000 
     61 H122       32.2250   27.8580   20.9060 H         1 COA1201     0.0000 
     62 H131       31.7320   27.1450   18.6430 H         1 COA1201     0.0000 
     63 H132       30.3690   28.1920   18.8040 H         1 COA1201     0.0000 
     64 H133       31.3660   28.2960   17.3990 H         1 COA1201     0.0000 
     65 H141       30.8460   30.7850   19.3590 H         1 COA1201     0.0000 
     66 H142       31.5450   30.6270   17.7870 H         1 COA1201     0.0000 
     67 H143       32.4770   31.2770   19.0870 H         1 COA1201     0.0000 
     68 H10        34.2600   29.8270   19.2090 H         1 COA1201     0.0000 
     69 HO1        35.0270   27.5180   19.0720 H         1 COA1201     0.0000 
     70 HN8        34.1160   26.9470   17.2240 H         1 COA1201     0.0000 
     71 H71        35.3160   28.4720   15.0980 H         1 COA1201     0.0000 
     72 H72        35.0950   26.7290   15.1840 H         1 COA1201     0.0000 
     73 H61        33.7650   27.8890   13.3580 H         1 COA1201     0.0000 
     74 H62        32.8560   28.7170   14.6220 H         1 COA1201     0.0000 
     75 HN4        30.9200   27.7460   14.8180 H         1 COA1201     0.0000 
     76 H31        29.4180   26.0490   14.1500 H         1 COA1201     0.0000 
     77 H32        30.6410   24.8130   14.4310 H         1 COA1201     0.0000 
     78 H21        30.5900   25.7650   16.9160 H         1 COA1201     0.0000 
     79 H22        29.4010   24.5780   16.3790 H         1 COA1201     0.0000 
     80 HS1        29.1850   27.8390   16.7700 H         1 COA1201     0.0000 
@<TRIPOS>BOND
     1    1    2 ar   
     2    1    6 ar   
     3    2    3 ar   
     4    2   49 1    
     5    3    4 ar   
     6    4    5 ar   
     7    4   10 1    
     8    5    6 ar   
     9    5    8 1    
    10    6    7 1    
    11    7   50 1    
    12    7   51 1    
    13    8    9 2    
    14    9   10 1    
    15    9   52 1    
    16   10   11 1    
    17   11   12 1    
    18   11   21 1    
    19   11   53 1    
    20   12   13 1    
    21   12   14 1    
    22   12   54 1    
    23   13   55 1    
    24   14   15 1    
    25   14   20 1    
    26   14   56 1    
    27   15   16 1    
    28   16   17 ar   
    29   16   18 ar   
    30   16   19 ar   
    31   20   21 1    
    32   20   22 1    
    33   20   57 1    
    34   22   23 1    
    35   22   58 1    
    36   22   59 1    
    37   23   24 1    
    38   24   25 ar   
    39   24   26 ar   
    40   24   27 1    
    41   27   28 1    
    42   28   29 ar   
    43   28   30 ar   
    44   28   31 1    
    45   31   33 1    
    46   32   33 1    
    47   32   34 1    
    48   32   35 1    
    49   32   36 1    
    50   33   60 1    
    51   33   61 1    
    52   34   62 1    
    53   34   63 1    
    54   34   64 1    
    55   35   66 1    
    56   35   65 1    
    57   35   67 1    
    58   36   37 1    
    59   36   38 1    
    60   36   68 1    
    61   37   69 1    
    62   38   39 2    
    63   38   40 am   
    64   40   41 1    
    65   40   70 1    
    66   41   42 1    
    67   41   71 1    
    68   41   72 1    
    69   42   43 1    
    70   42   73 1    
    71   42   74 1    
    72   43   44 2    
    73   43   45 am   
    74   45   46 1    
    75   45   75 1    
    76   46   47 1    
    77   46   76 1    
    78   46   77 1    
    79   47   48 1    
    80   47   78 1    
    81   47   79 1    
    82   48   80 1    
@<TRIPOS>SUBSTRUCTURE
     1 COA1201     1 GROUP   
@<TRIPOS>SET
ATOM$ORANGE STATIC     ATOMS   COLORGROUP SYSTEM 
42 2 2 4 4 5 5 6 6 9 9 11 11 12 12 14 14 20 \
20 22 22 32 32 33 33 34 34 35 35 36 36 38 38 41 41 42 \
42 43 43 46 46 47 47 

