#    Name: 5yga_3_AMP
#    Modification time : Fri May 22 19:15:49 2020

@<TRIPOS>MOLECULE
5yga_3_AMP
   23    25     1     0     1
SMALL
NO_CHARGES


@<TRIPOS>ATOM
      1 P          -7.9980   56.0010   30.1390 P.3       1 AMP402      0.0000 
      2 O1P        -7.9090   54.8880   29.1000 O.co2     1 AMP402      0.0000 
      3 O2P        -7.4070   55.6740   31.5240 O.co2     1 AMP402      0.0000 
      4 O3P        -7.6840   57.3830   29.5720 O.co2     1 AMP402      0.0000 
      5 O5'        -9.6030   56.0080   30.4080 O.3       1 AMP402      0.0000 
      6 C5'       -10.4670   57.1000   30.1030 C.3       1 AMP402      0.0000 
      7 C4'       -11.8280   56.9080   30.7470 C.3       1 AMP402      0.0000 
      8 O4'       -12.8890   57.2070   29.8250 O.3       1 AMP402      0.0000 
      9 C3'       -12.1540   55.5150   31.2590 C.3       1 AMP402      0.0000 
     10 O3'       -12.7300   55.7780   32.5080 O.3       1 AMP402      0.0000 
     11 C2'       -13.1530   54.8620   30.2860 C.3       1 AMP402      0.0000 
     12 O2'       -14.2170   54.0970   30.8750 O.3       1 AMP402      0.0000 
     13 C1'       -13.6760   56.0300   29.4550 C.3       1 AMP402      0.0000 
     14 N9        -13.5080   55.8830   27.9650 N.pl3     1 AMP402      0.0000 
     15 C8        -12.3390   55.8000   27.2410 C.2       1 AMP402      0.0000 
     16 N7        -12.5320   55.6850   25.9050 N.2       1 AMP402      0.0000 
     17 C5        -13.8650   55.7500   25.7570 C.ar      1 AMP402      0.0000 
     18 C6        -14.7830   55.7300   24.6090 C.ar      1 AMP402      0.0000 
     19 N6        -14.3040   55.6370   23.3280 N.pl3     1 AMP402      0.0000 
     20 N1        -16.1090   55.8160   24.9180 N.ar      1 AMP402      0.0000 
     21 C2        -16.6020   55.9150   26.1730 C.ar      1 AMP402      0.0000 
     22 N3        -15.8410   55.9430   27.2840 N.ar      1 AMP402      0.0000 
     23 C4        -14.5020   55.8740   27.1110 C.ar      1 AMP402      0.0000 
@<TRIPOS>BOND
     1    1    2 ar   
     2    1    3 ar   
     3    1    4 ar   
     4    1    5 1    
     5    5    6 1    
     6    6    7 1    
     7    7    8 1    
     8    7    9 1    
     9    8   13 1    
    10    9   10 1    
    11    9   11 1    
    12   11   12 1    
    13   11   13 1    
    14   13   14 1    
    15   14   15 1    
    16   14   23 1    
    17   15   16 2    
    18   16   17 1    
    19   17   18 ar   
    20   17   23 ar   
    21   18   19 1    
    22   18   20 ar   
    23   20   21 ar   
    24   21   22 ar   
    25   22   23 ar   
@<TRIPOS>SUBSTRUCTURE
     1 AMP402      1 GROUP   
@<TRIPOS>SET
ATOM$ORANGE STATIC     ATOMS   COLORGROUP SYSTEM 
20 6 6 7 7 9 9 11 11 13 13 15 15 17 17 18 18 21 \
21 23 23 

