#    Name: 5yga_1_AMP
#    Modification time : Fri May 22 19:15:29 2020

@<TRIPOS>MOLECULE
5yga_1_AMP
   23    25     1     0     1
SMALL
NO_CHARGES


@<TRIPOS>ATOM
      1 P          -8.1590   71.0500   46.5940 P.3       1 AMP403      0.0000 
      2 O1P        -7.3810   70.0210   45.7360 O.co2     1 AMP403      0.0000 
      3 O2P        -8.4780   72.4800   46.1270 O.co2     1 AMP403      0.0000 
      4 O3P        -7.8370   71.1140   48.1060 O.co2     1 AMP403      0.0000 
      5 O5'        -9.6450   70.4250   46.5030 O.3       1 AMP403      0.0000 
      6 C5'       -10.6570   70.7900   47.4300 C.3       1 AMP403      0.0000 
      7 C4'       -11.9710   70.2310   46.9430 C.3       1 AMP403      0.0000 
      8 O4'       -13.0770   70.8370   47.5950 O.3       1 AMP403      0.0000 
      9 C3'       -12.2810   70.3920   45.4810 C.3       1 AMP403      0.0000 
     10 O3'       -12.9580   69.1710   45.1880 O.3       1 AMP403      0.0000 
     11 C2'       -13.2110   71.5880   45.3690 C.3       1 AMP403      0.0000 
     12 O2'       -14.2050   71.3690   44.3780 O.3       1 AMP403      0.0000 
     13 C1'       -13.8090   71.7600   46.7680 C.3       1 AMP403      0.0000 
     14 N9        -13.6600   73.1170   47.4240 N.pl3     1 AMP403      0.0000 
     15 C8        -12.5330   73.8630   47.7230 C.2       1 AMP403      0.0000 
     16 N7        -12.7800   75.0710   48.3110 N.2       1 AMP403      0.0000 
     17 C5        -14.1150   75.0820   48.4180 C.ar      1 AMP403      0.0000 
     18 C6        -15.0700   76.0230   48.9890 C.ar      1 AMP403      0.0000 
     19 N6        -14.6420   77.1870   49.5440 N.pl3     1 AMP403      0.0000 
     20 N1        -16.3680   75.6840   48.8940 N.ar      1 AMP403      0.0000 
     21 C2        -16.8100   74.5160   48.3400 C.ar      1 AMP403      0.0000 
     22 N3        -16.0100   73.5840   47.8130 N.ar      1 AMP403      0.0000 
     23 C4        -14.6820   73.8210   47.8490 C.ar      1 AMP403      0.0000 
@<TRIPOS>BOND
     1    1    2 ar   
     2    1    3 ar   
     3    1    4 ar   
     4    1    5 1    
     5    5    6 1    
     6    6    7 1    
     7    7    8 1    
     8    7    9 1    
     9    8   13 1    
    10    9   10 1    
    11    9   11 1    
    12   11   12 1    
    13   11   13 1    
    14   13   14 1    
    15   14   15 1    
    16   14   23 1    
    17   15   16 2    
    18   16   17 1    
    19   17   18 ar   
    20   17   23 ar   
    21   18   19 1    
    22   18   20 ar   
    23   20   21 ar   
    24   21   22 ar   
    25   22   23 ar   
@<TRIPOS>SUBSTRUCTURE
     1 AMP403      1 GROUP   
@<TRIPOS>SET
ATOM$ORANGE STATIC     ATOMS   COLORGROUP SYSTEM 
20 6 6 7 7 9 9 11 11 13 13 15 15 17 17 18 18 21 \
21 23 23 

