#    Name: 5yga_2_AMP
#    Modification time : Fri May 22 19:15:39 2020

@<TRIPOS>MOLECULE
5yga_2_AMP
   23    25     1     0     1
SMALL
NO_CHARGES


@<TRIPOS>ATOM
      1 P          -8.0640   49.5710   51.2220 P.3       1 AMP402      0.0000 
      2 O1P        -7.2940   50.6070   50.4060 O.co2     1 AMP402      0.0000 
      3 O2P        -8.1510   49.8990   52.6790 O.co2     1 AMP402      0.0000 
      4 O3P        -7.9180   48.0730   50.9540 O.co2     1 AMP402      0.0000 
      5 O5'        -9.5350   49.8820   50.6310 O.3       1 AMP402      0.0000 
      6 C5'       -10.6250   49.0110   50.9190 C.3       1 AMP402      0.0000 
      7 C4'       -11.9000   49.5340   50.2810 C.3       1 AMP402      0.0000 
      8 O4'       -12.9530   48.6160   50.5110 O.3       1 AMP402      0.0000 
      9 C3'       -12.3470   50.7960   50.9830 C.3       1 AMP402      0.0000 
     10 O3'       -13.0540   51.6080   50.0530 O.3       1 AMP402      0.0000 
     11 C2'       -13.1850   50.2760   52.1670 C.3       1 AMP402      0.0000 
     12 O2'       -14.1700   51.2190   52.5650 O.3       1 AMP402      0.0000 
     13 C1'       -13.7570   48.9610   51.6740 C.3       1 AMP402      0.0000 
     14 N9        -13.6480   47.7290   52.5120 N.pl3     1 AMP402      0.0000 
     15 C8        -12.5460   47.0320   52.9400 C.2       1 AMP402      0.0000 
     16 N7        -12.8530   45.9130   53.6440 N.2       1 AMP402      0.0000 
     17 C5        -14.1810   45.8590   53.6160 C.ar      1 AMP402      0.0000 
     18 C6        -15.1470   44.9210   54.1580 C.ar      1 AMP402      0.0000 
     19 N6        -14.7490   43.8220   54.8330 N.pl3     1 AMP402      0.0000 
     20 N1        -16.4130   45.2050   53.9330 N.ar      1 AMP402      0.0000 
     21 C2        -16.8210   46.3070   53.2690 C.ar      1 AMP402      0.0000 
     22 N3        -16.0370   47.2410   52.7230 N.ar      1 AMP402      0.0000 
     23 C4        -14.7090   47.0350   52.8800 C.ar      1 AMP402      0.0000 
@<TRIPOS>BOND
     1    1    2 ar   
     2    1    3 ar   
     3    1    4 ar   
     4    1    5 1    
     5    5    6 1    
     6    6    7 1    
     7    7    8 1    
     8    7    9 1    
     9    8   13 1    
    10    9   10 1    
    11    9   11 1    
    12   11   12 1    
    13   11   13 1    
    14   13   14 1    
    15   14   15 1    
    16   14   23 1    
    17   15   16 2    
    18   16   17 1    
    19   17   18 ar   
    20   17   23 ar   
    21   18   19 1    
    22   18   20 ar   
    23   20   21 ar   
    24   21   22 ar   
    25   22   23 ar   
@<TRIPOS>SUBSTRUCTURE
     1 AMP402      1 GROUP   
@<TRIPOS>SET
ATOM$ORANGE STATIC     ATOMS   COLORGROUP SYSTEM 
20 6 6 7 7 9 9 11 11 13 13 15 15 17 17 18 18 21 \
21 23 23 

