#    Name: 6he4_2_ATP
#    Modification time : Fri May 22 19:30:01 2020

@<TRIPOS>MOLECULE
6he4_2_ATP
   31    33     1     0     1
SMALL
NO_CHARGES


@<TRIPOS>ATOM
      1 PG        239.4720  238.0390  368.3880 P.3       1 ATP401      0.0000 
      2 O1G       240.2080  238.3710  367.0610 O.co2     1 ATP401      0.0000 
      3 O2G       240.2520  237.8660  369.6060 O.co2     1 ATP401      0.0000 
      4 O3G       238.1930  238.8570  368.4680 O.co2     1 ATP401      0.0000 
      5 PB        239.0320  234.6000  368.2460 P.3       1 ATP401      0.0000 
      6 O1B       239.0100  233.9980  366.8350 O.co2     1 ATP401      0.0000 
      7 O2B       240.0710  234.1680  369.2930 O.co2     1 ATP401      0.0000 
      8 O3B       238.9340  236.3940  368.2310 O.3       1 ATP401      0.0000 
      9 PA        236.7940  233.0950  369.7190 P.3       1 ATP401      0.0000 
     10 O1A       237.8380  232.0320  369.9690 O.co2     1 ATP401      0.0000 
     11 O2A       235.8750  233.5170  370.7870 O.co2     1 ATP401      0.0000 
     12 O3A       237.5740  234.3330  369.1100 O.3       1 ATP401      0.0000 
     13 O5'       235.8690  232.4530  368.6540 O.3       1 ATP401      0.0000 
     14 C5'       235.1100  233.3530  367.7670 C.3       1 ATP401      0.0000 
     15 C4'       233.8220  232.6210  367.2800 C.3       1 ATP401      0.0000 
     16 O4'       234.0060  231.6950  366.1820 O.3       1 ATP401      0.0000 
     17 C3'       233.0750  231.8430  368.3700 C.3       1 ATP401      0.0000 
     18 O3'       231.6630  232.1730  368.3550 O.3       1 ATP401      0.0000 
     19 C2'       233.4180  230.3880  368.0520 C.3       1 ATP401      0.0000 
     20 O2'       232.4610  229.4920  368.6110 O.3       1 ATP401      0.0000 
     21 C1'       233.5150  230.3780  366.5410 C.3       1 ATP401      0.0000 
     22 N9        234.4030  229.3880  365.9840 N.pl3     1 ATP401      0.0000 
     23 C8        235.6880  229.5770  365.6640 C.2       1 ATP401      0.0000 
     24 N7        236.2700  228.5020  365.1560 N.2       1 ATP401      0.0000 
     25 C5        235.2940  227.5940  365.0180 C.ar      1 ATP401      0.0000 
     26 C6        235.3040  226.3090  364.4840 C.ar      1 ATP401      0.0000 
     27 N6        236.3870  225.8420  363.8450 N.pl3     1 ATP401      0.0000 
     28 N1        234.1110  225.6430  364.6000 N.ar      1 ATP401      0.0000 
     29 C2        233.0440  226.2360  365.1490 C.ar      1 ATP401      0.0000 
     30 N3        232.9450  227.5040  365.6820 N.ar      1 ATP401      0.0000 
     31 C4        234.1340  228.1290  365.5700 C.ar      1 ATP401      0.0000 
@<TRIPOS>BOND
     1    1    2 ar   
     2    1    3 ar   
     3    1    4 ar   
     4    1    8 1    
     5    5    6 ar   
     6    5    7 ar   
     7    5    8 1    
     8    5   12 1    
     9    9   10 ar   
    10    9   11 ar   
    11    9   12 1    
    12    9   13 1    
    13   13   14 1    
    14   14   15 1    
    15   15   16 1    
    16   15   17 1    
    17   16   21 1    
    18   17   18 1    
    19   17   19 1    
    20   19   20 1    
    21   19   21 1    
    22   21   22 1    
    23   22   23 1    
    24   22   31 1    
    25   23   24 2    
    26   24   25 1    
    27   25   26 ar   
    28   25   31 ar   
    29   26   27 1    
    30   26   28 ar   
    31   28   29 ar   
    32   29   30 ar   
    33   30   31 ar   
@<TRIPOS>SUBSTRUCTURE
     1 ATP401      1 GROUP   
@<TRIPOS>SET
ATOM$ORANGE STATIC     ATOMS   COLORGROUP SYSTEM 
20 14 14 15 15 17 17 19 19 21 21 23 23 25 25 26 26 29 \
29 31 31 

