#    Name: 6he4_1_ATP
#    Modification time : Fri May 22 19:29:52 2020

@<TRIPOS>MOLECULE
6he4_1_ATP
   31    33     1     0     1
SMALL
NO_CHARGES


@<TRIPOS>ATOM
      1 PG        265.9510  239.2720  374.2210 P.3       1 ATP401      0.0000 
      2 O1G       266.5210  240.5220  373.6490 O.co2     1 ATP401      0.0000 
      3 O2G       266.0140  239.2490  375.7020 O.co2     1 ATP401      0.0000 
      4 O3G       264.5630  238.8990  373.7520 O.co2     1 ATP401      0.0000 
      5 PB        268.2790  236.8440  373.7570 P.3       1 ATP401      0.0000 
      6 O1B       269.2000  237.1550  372.6010 O.co2     1 ATP401      0.0000 
      7 O2B       268.7780  236.7880  375.2070 O.co2     1 ATP401      0.0000 
      8 O3B       266.9220  237.9480  373.7080 O.3       1 ATP401      0.0000 
      9 PA        267.0480  233.7180  373.5300 P.3       1 ATP401      0.0000 
     10 O1A       266.3510  233.3870  372.2640 O.co2     1 ATP401      0.0000 
     11 O2A       266.2780  233.5010  374.7860 O.co2     1 ATP401      0.0000 
     12 O3A       267.4730  235.3720  373.4020 O.3       1 ATP401      0.0000 
     13 O5'       268.4160  232.8900  373.5790 O.3       1 ATP401      0.0000 
     14 C5'       268.4100  231.6190  374.1330 C.3       1 ATP401      0.0000 
     15 C4'       267.5510  230.6180  373.3850 C.3       1 ATP401      0.0000 
     16 O4'       267.9500  230.5290  371.9460 O.3       1 ATP401      0.0000 
     17 C3'       267.7090  229.1890  373.8940 C.3       1 ATP401      0.0000 
     18 O3'       266.5030  228.4250  373.8430 O.3       1 ATP401      0.0000 
     19 C2'       268.8940  228.5880  373.1130 C.3       1 ATP401      0.0000 
     20 O2'       268.7830  227.1880  372.9650 O.3       1 ATP401      0.0000 
     21 C1'       268.7990  229.3410  371.7880 C.3       1 ATP401      0.0000 
     22 N9        270.1140  229.7510  371.2000 N.pl3     1 ATP401      0.0000 
     23 C8        270.5100  231.0360  370.7250 C.2       1 ATP401      0.0000 
     24 N7        271.7020  231.1110  370.2540 N.2       1 ATP401      0.0000 
     25 C5        272.2340  229.9040  370.4260 C.ar      1 ATP401      0.0000 
     26 C6        273.5780  229.4640  370.3520 C.ar      1 ATP401      0.0000 
     27 N6        274.5620  230.2490  369.8280 N.pl3     1 ATP401      0.0000 
     28 N1        273.7790  228.1630  370.7850 N.ar      1 ATP401      0.0000 
     29 C2        272.7320  227.4500  371.2800 C.ar      1 ATP401      0.0000 
     30 N3        271.4950  227.7690  371.4130 N.ar      1 ATP401      0.0000 
     31 C4        271.2970  229.0490  371.0080 C.ar      1 ATP401      0.0000 
@<TRIPOS>BOND
     1    1    2 ar   
     2    1    3 ar   
     3    1    4 ar   
     4    1    8 1    
     5    5    6 ar   
     6    5    7 ar   
     7    5    8 1    
     8    5   12 1    
     9    9   10 ar   
    10    9   11 ar   
    11    9   12 1    
    12    9   13 1    
    13   13   14 1    
    14   14   15 1    
    15   15   16 1    
    16   15   17 1    
    17   16   21 1    
    18   17   18 1    
    19   17   19 1    
    20   19   20 1    
    21   19   21 1    
    22   21   22 1    
    23   22   23 1    
    24   22   31 1    
    25   23   24 2    
    26   24   25 1    
    27   25   26 ar   
    28   25   31 ar   
    29   26   27 1    
    30   26   28 ar   
    31   28   29 ar   
    32   29   30 ar   
    33   30   31 ar   
@<TRIPOS>SUBSTRUCTURE
     1 ATP401      1 GROUP   
@<TRIPOS>SET
ATOM$ORANGE STATIC     ATOMS   COLORGROUP SYSTEM 
20 14 14 15 15 17 17 19 19 21 21 23 23 25 25 26 26 29 \
29 31 31 

