#    Name: 6he4_3_ATP
#    Modification time : Fri May 22 19:30:09 2020

@<TRIPOS>MOLECULE
6he4_3_ATP
   31    33     1     0     1
SMALL
NO_CHARGES


@<TRIPOS>ATOM
      1 PG        225.7780  259.6310  366.7330 P.3       1 ATP401      0.0000 
      2 O1G       226.6900  259.0980  365.5710 O.co2     1 ATP401      0.0000 
      3 O2G       226.0550  258.8920  368.0520 O.co2     1 ATP401      0.0000 
      4 O3G       225.7850  261.2020  366.8520 O.co2     1 ATP401      0.0000 
      5 PB        222.7140  258.2160  366.3780 P.3       1 ATP401      0.0000 
      6 O1B       222.3640  257.7920  364.9400 O.co2     1 ATP401      0.0000 
      7 O2B       222.7940  257.1240  367.4300 O.co2     1 ATP401      0.0000 
      8 O3B       224.1920  259.2000  366.3640 O.3       1 ATP401      0.0000 
      9 PA        220.2930  259.9250  367.9940 P.3       1 ATP401      0.0000 
     10 O1A       219.1080  259.0320  367.9330 O.co2     1 ATP401      0.0000 
     11 O2A       220.8730  260.2170  369.3180 O.co2     1 ATP401      0.0000 
     12 O3A       221.4930  259.4010  366.9210 O.3       1 ATP401      0.0000 
     13 O5'       219.8790  261.2550  367.2640 O.3       1 ATP401      0.0000 
     14 C5'       219.5970  262.4850  367.9590 C.3       1 ATP401      0.0000 
     15 C4'       218.0690  262.8120  368.0100 C.3       1 ATP401      0.0000 
     16 O4'       217.3880  262.4030  366.7840 O.3       1 ATP401      0.0000 
     17 C3'       217.0900  262.3350  369.1400 C.3       1 ATP401      0.0000 
     18 O3'       216.3760  263.5100  369.5280 O.3       1 ATP401      0.0000 
     19 C2'       216.2520  261.3080  368.5240 C.3       1 ATP401      0.0000 
     20 O2'       214.9480  261.1580  369.0840 O.3       1 ATP401      0.0000 
     21 C1'       216.1000  261.8430  367.0910 C.3       1 ATP401      0.0000 
     22 N9        215.8560  260.7460  366.1250 N.pl3     1 ATP401      0.0000 
     23 C8        216.8040  259.8740  365.6080 C.2       1 ATP401      0.0000 
     24 N7        216.2820  258.9150  364.8980 N.2       1 ATP401      0.0000 
     25 C5        214.8840  259.1360  364.9920 C.ar      1 ATP401      0.0000 
     26 C6        213.8580  258.3850  364.4580 C.ar      1 ATP401      0.0000 
     27 N6        214.2030  257.4810  363.5120 N.pl3     1 ATP401      0.0000 
     28 N1        212.5980  258.8370  364.7380 N.ar      1 ATP401      0.0000 
     29 C2        212.4700  259.9300  365.4770 C.ar      1 ATP401      0.0000 
     30 N3        213.3810  260.7310  365.9200 N.ar      1 ATP401      0.0000 
     31 C4        214.6300  260.2460  365.7140 C.ar      1 ATP401      0.0000 
@<TRIPOS>BOND
     1   15   17 1    
     2   16   21 1    
     3   17   18 1    
     4   17   19 1    
     5   19   20 1    
     6   19   21 1    
     7   21   22 1    
     8   22   23 1    
     9   22   31 1    
    10   23   24 2    
    11   24   25 1    
    12   25   26 ar   
    13   25   31 ar   
    14   26   27 1    
    15   26   28 ar   
    16   28   29 ar   
    17   29   30 ar   
    18   30   31 ar   
    19    1    2 ar   
    20    1    3 ar   
    21    1    4 ar   
    22    1    8 1    
    23    5    6 ar   
    24    5    7 ar   
    25    5    8 1    
    26    5   12 1    
    27    9   10 ar   
    28    9   11 ar   
    29    9   12 1    
    30    9   13 1    
    31   13   14 1    
    32   14   15 1    
    33   15   16 1    
@<TRIPOS>SUBSTRUCTURE
     1 ATP401      1 GROUP   
@<TRIPOS>SET
ATOM$ORANGE STATIC     ATOMS   COLORGROUP SYSTEM 
20 14 14 15 15 17 17 19 19 21 21 23 23 25 25 26 26 29 \
29 31 31 

