#    Name: 6he4_5_ADP
#    Modification time : Fri May 22 19:30:26 2020

@<TRIPOS>MOLECULE
6he4_5_ADP
   27    29     1     0     1
SMALL
NO_CHARGES


@<TRIPOS>ATOM
      1 PB        264.6990  288.1600  364.7110 P.3       1 ADP401      0.0000 
      2 O1B       265.0370  286.9340  363.8470 O.co2     1 ADP401      0.0000 
      3 O2B       264.0980  289.3060  363.9350 O.co2     1 ADP401      0.0000 
      4 O3B       263.9350  287.9250  366.0070 O.co2     1 ADP401      0.0000 
      5 PA        267.1900  289.3400  366.5860 P.3       1 ADP401      0.0000 
      6 O1A       266.5690  290.6430  366.8680 O.co2     1 ADP401      0.0000 
      7 O2A       267.3730  288.4230  367.7460 O.co2     1 ADP401      0.0000 
      8 O3A       266.3120  288.5870  365.3780 O.3       1 ADP401      0.0000 
      9 O5'       268.5510  289.4330  365.8650 O.3       1 ADP401      0.0000 
     10 C5'       269.7970  288.8220  366.3340 C.3       1 ADP401      0.0000 
     11 C4'       270.8800  289.8670  366.7340 C.3       1 ADP401      0.0000 
     12 O4'       271.0560  290.9490  365.8060 O.3       1 ADP401      0.0000 
     13 C3'       270.7910  290.4980  368.1150 C.3       1 ADP401      0.0000 
     14 O3'       272.0640  290.6130  368.8150 O.3       1 ADP401      0.0000 
     15 C2'       270.0920  291.8190  367.8200 C.3       1 ADP401      0.0000 
     16 O2'       270.3480  292.8060  368.7600 O.3       1 ADP401      0.0000 
     17 C1'       270.7160  292.1470  366.4810 C.3       1 ADP401      0.0000 
     18 N9        269.8010  293.0060  365.6340 N.pl3     1 ADP401      0.0000 
     19 C8        268.8330  292.6900  364.7440 C.2       1 ADP401      0.0000 
     20 N7        268.2520  293.6870  364.1500 N.2       1 ADP401      0.0000 
     21 C5        268.8340  294.8080  364.6840 C.ar      1 ADP401      0.0000 
     22 C6        268.6740  296.1440  364.3790 C.ar      1 ADP401      0.0000 
     23 N6        267.6910  296.5140  363.5140 N.pl3     1 ADP401      0.0000 
     24 N1        269.3680  297.0150  365.2150 N.ar      1 ADP401      0.0000 
     25 C2        270.2450  296.5100  366.0800 C.ar      1 ADP401      0.0000 
     26 N3        270.4780  295.2300  366.4110 N.ar      1 ADP401      0.0000 
     27 C4        269.8190  294.3940  365.5970 C.ar      1 ADP401      0.0000 
@<TRIPOS>BOND
     1    1    2 ar   
     2    1    3 ar   
     3    1    4 ar   
     4    1    8 1    
     5    5    6 ar   
     6    5    7 ar   
     7    5    8 1    
     8    5    9 1    
     9    9   10 1    
    10   10   11 1    
    11   11   12 1    
    12   11   13 1    
    13   12   17 1    
    14   13   14 1    
    15   13   15 1    
    16   15   16 1    
    17   15   17 1    
    18   17   18 1    
    19   18   19 1    
    20   18   27 1    
    21   19   20 2    
    22   20   21 1    
    23   21   22 ar   
    24   21   27 ar   
    25   22   23 1    
    26   22   24 ar   
    27   24   25 ar   
    28   25   26 ar   
    29   26   27 ar   
@<TRIPOS>SUBSTRUCTURE
     1 ADP401      1 GROUP   
@<TRIPOS>SET
ATOM$ORANGE STATIC     ATOMS   COLORGROUP SYSTEM 
20 10 10 11 11 13 13 15 15 17 17 19 19 21 21 22 22 25 \
25 27 27 

