#    Name: 6he4_4_ATP
#    Modification time : Fri May 22 19:30:18 2020

@<TRIPOS>MOLECULE
6he4_4_ATP
   31    33     1     0     1
SMALL
NO_CHARGES


@<TRIPOS>ATOM
      1 PG        237.0840  284.2460  364.8810 P.3       1 ATP401      0.0000 
      2 O1G       236.4500  283.7650  363.6000 O.co2     1 ATP401      0.0000 
      3 O2G       236.9330  283.3350  366.0580 O.co2     1 ATP401      0.0000 
      4 O3G       238.5420  284.7770  364.7010 O.co2     1 ATP401      0.0000 
      5 PB        234.5950  286.2090  366.0410 P.3       1 ATP401      0.0000 
      6 O1B       233.5520  286.3200  364.9020 O.co2     1 ATP401      0.0000 
      7 O2B       234.2820  285.3100  367.2440 O.co2     1 ATP401      0.0000 
      8 O3B       236.0400  285.5540  365.3710 O.3       1 ATP401      0.0000 
      9 PA        235.4640  289.1300  367.5450 P.3       1 ATP401      0.0000 
     10 O1A       234.2430  289.6110  368.1780 O.co2     1 ATP401      0.0000 
     11 O2A       236.6310  288.7990  368.4430 O.co2     1 ATP401      0.0000 
     12 O3A       235.0760  287.8360  366.5250 O.3       1 ATP401      0.0000 
     13 O5'       235.9240  290.3030  366.6280 O.3       1 ATP401      0.0000 
     14 C5'       236.6460  291.4910  367.1430 C.3       1 ATP401      0.0000 
     15 C4'       235.8070  292.7810  367.3180 C.3       1 ATP401      0.0000 
     16 O4'       235.1900  293.2410  366.0430 O.3       1 ATP401      0.0000 
     17 C3'       234.6010  292.7700  368.2860 C.3       1 ATP401      0.0000 
     18 O3'       235.0980  292.7040  369.6190 O.3       1 ATP401      0.0000 
     19 C2'       233.8160  294.0570  367.8440 C.3       1 ATP401      0.0000 
     20 O2'       234.3810  295.1990  368.4510 O.3       1 ATP401      0.0000 
     21 C1'       234.0100  293.9580  366.3620 C.3       1 ATP401      0.0000 
     22 N9        232.8400  293.3760  365.6650 N.pl3     1 ATP401      0.0000 
     23 C8        232.7970  292.2060  364.9710 C.2       1 ATP401      0.0000 
     24 N7        231.6160  291.9470  364.5360 N.2       1 ATP401      0.0000 
     25 C5        230.7870  292.9580  364.9750 C.ar      1 ATP401      0.0000 
     26 C6        229.3730  293.0710  364.9160 C.ar      1 ATP401      0.0000 
     27 N6        228.5870  291.9880  364.5450 N.pl3     1 ATP401      0.0000 
     28 N1        228.9520  294.1890  365.5710 N.ar      1 ATP401      0.0000 
     29 C2        229.8090  295.0830  366.1010 C.ar      1 ATP401      0.0000 
     30 N3        231.1300  294.9300  366.2170 N.ar      1 ATP401      0.0000 
     31 C4        231.5580  293.8560  365.6860 C.ar      1 ATP401      0.0000 
@<TRIPOS>BOND
     1    1    2 ar   
     2    1    3 ar   
     3    1    4 ar   
     4    1    8 1    
     5    5    6 ar   
     6    5    7 ar   
     7    5    8 1    
     8    5   12 1    
     9    9   10 ar   
    10    9   11 ar   
    11    9   12 1    
    12    9   13 1    
    13   13   14 1    
    14   14   15 1    
    15   15   16 1    
    16   15   17 1    
    17   16   21 1    
    18   17   18 1    
    19   17   19 1    
    20   19   20 1    
    21   19   21 1    
    22   21   22 1    
    23   22   23 1    
    24   22   31 1    
    25   23   24 2    
    26   24   25 1    
    27   25   26 ar   
    28   25   31 ar   
    29   26   27 1    
    30   26   28 ar   
    31   28   29 ar   
    32   29   30 ar   
    33   30   31 ar   
@<TRIPOS>SUBSTRUCTURE
     1 ATP401      1 GROUP   
@<TRIPOS>SET
ATOM$ORANGE STATIC     ATOMS   COLORGROUP SYSTEM 
20 14 14 15 15 17 17 19 19 21 21 23 23 25 25 26 26 29 \
29 31 31 

