#    Name: 6c8q_6_NAD
#    Modification time : Fri May 22 19:43:40 2020

@<TRIPOS>MOLECULE
6c8q_6_NAD
   44    48     1     0     1
SMALL
NO_CHARGES


@<TRIPOS>ATOM
      1 PA        -31.0370  -17.6150   96.4830 P.3       1 NAD301      0.0000 
      2 O1A       -29.6790  -16.9830   96.4600 O.co2     1 NAD301      0.0000 
      3 O2A       -31.2190  -18.4590   95.2470 O.co2     1 NAD301      0.0000 
      4 O5B       -32.2000  -16.4400   96.5240 O.3       1 NAD301      0.0000 
      5 C5B       -31.9110  -15.2330   97.1830 C.3       1 NAD301      0.0000 
      6 C4B       -31.2700  -14.2130   96.1780 C.3       1 NAD301      0.0000 
      7 O4B       -32.0990  -13.9650   95.2200 O.3       1 NAD301      0.0000 
      8 C3B       -30.9990  -12.8790   96.8910 C.3       1 NAD301      0.0000 
      9 O3B       -29.6790  -12.7610   97.1770 O.3       1 NAD301      0.0000 
     10 C2B       -31.4290  -11.7840   95.8860 C.3       1 NAD301      0.0000 
     11 O2B       -30.2060  -11.2590   95.1320 O.3       1 NAD301      0.0000 
     12 C1B       -32.2360  -12.3450   95.0600 C.3       1 NAD301      0.0000 
     13 N9A       -33.6000  -11.9420   95.3240 N.pl3     1 NAD301      0.0000 
     14 C8A       -34.2930  -12.1210   96.4620 C.2       1 NAD301      0.0000 
     15 N7A       -35.5150  -11.6070   96.2830 N.2       1 NAD301      0.0000 
     16 C5A       -35.5810  -11.1130   95.0390 C.ar      1 NAD301      0.0000 
     17 C6A       -36.5860  -10.4880   94.3550 C.ar      1 NAD301      0.0000 
     18 N6A       -37.9450  -10.1450   94.7600 N.pl3     1 NAD301      0.0000 
     19 N1A       -36.3840  -10.0870   93.0980 N.ar      1 NAD301      0.0000 
     20 C2A       -35.1940  -10.2910   92.4900 C.ar      1 NAD301      0.0000 
     21 N3A       -34.1980  -10.9090   93.1620 N.ar      1 NAD301      0.0000 
     22 C4A       -34.3980  -11.3190   94.4430 C.ar      1 NAD301      0.0000 
     23 O3        -31.1640  -18.5770   97.8070 O.3       1 NAD301      0.0000 
     24 PN        -32.5060  -18.6740   98.8010 P.3       1 NAD301      0.0000 
     25 O1N       -33.7200  -18.0720   98.1170 O.co2     1 NAD301      0.0000 
     26 O2N       -32.2330  -17.9210  100.0650 O.co2     1 NAD301      0.0000 
     27 O5D       -32.7980  -20.2380   99.1260 O.3       1 NAD301      0.0000 
     28 C5D       -32.7740  -21.1350   98.0250 C.3       1 NAD301      0.0000 
     29 C4D       -32.6620  -22.6000   98.5020 C.3       1 NAD301      0.0000 
     30 O4D       -31.5280  -22.8150   99.1450 O.3       1 NAD301      0.0000 
     31 C3D       -33.7900  -22.9270   99.5130 C.3       1 NAD301      0.0000 
     32 O3D       -34.4760  -23.9950   99.0810 O.3       1 NAD301      0.0000 
     33 C2D       -33.0440  -23.2740  100.8300 C.3       1 NAD301      0.0000 
     34 O2D       -33.8380  -24.2870  101.6130 O.3       1 NAD301      0.0000 
     35 C1D       -31.9210  -23.7870  100.3870 C.3       1 NAD301      0.0000 
     36 N1N       -30.8990  -23.7690  101.3640 N.pl3     1 NAD301      0.0000 
     37 C2N       -30.9740  -24.5980  102.4730 C.ar      1 NAD301      0.0000 
     38 C3N       -29.9510  -24.5810  103.4400 C.ar      1 NAD301      0.0000 
     39 C7N       -30.0380  -25.4830  104.6500 C.2       1 NAD301      0.0000 
     40 O7N       -29.0600  -25.7380  105.2670 O.2       1 NAD301      0.0000 
     41 N7N       -31.3590  -26.0530  105.0700 N.am      1 NAD301      0.0000 
     42 C4N       -28.8770  -23.7470  103.2840 C.ar      1 NAD301      0.0000 
     43 C5N       -28.8010  -22.9220  102.1780 C.ar      1 NAD301      0.0000 
     44 C6N       -29.8330  -22.9440  101.2060 C.ar      1 NAD301      0.0000 
@<TRIPOS>BOND
     1    1    2 ar   
     2    1    3 ar   
     3    1    4 1    
     4    1   23 1    
     5    4    5 1    
     6    5    6 1    
     7    6    7 1    
     8    6    8 1    
     9    7   12 1    
    10    8    9 1    
    11    8   10 1    
    12   10   11 1    
    13   10   12 1    
    14   12   13 1    
    15   13   14 1    
    16   13   22 1    
    17   14   15 2    
    18   15   16 1    
    19   16   17 ar   
    20   16   22 ar   
    21   17   18 1    
    22   17   19 ar   
    23   19   20 ar   
    24   20   21 ar   
    25   21   22 ar   
    26   23   24 1    
    27   24   25 ar   
    28   24   26 ar   
    29   24   27 1    
    30   27   28 1    
    31   28   29 1    
    32   29   30 1    
    33   29   31 1    
    34   30   35 1    
    35   31   32 1    
    36   31   33 1    
    37   33   34 1    
    38   33   35 1    
    39   35   36 1    
    40   36   37 ar   
    41   36   44 ar   
    42   37   38 ar   
    43   38   39 1    
    44   38   42 ar   
    45   39   40 2    
    46   39   41 am   
    47   42   43 ar   
    48   43   44 ar   
@<TRIPOS>SUBSTRUCTURE
     1 NAD301      1 GROUP   
@<TRIPOS>SET
ATOM$ORANGE STATIC     ATOMS   COLORGROUP SYSTEM 
42 5 5 6 6 8 8 10 10 12 12 14 14 16 16 17 17 20 \
20 22 22 28 28 29 29 31 31 33 33 35 35 37 37 38 38 39 \
39 42 42 43 43 44 44 

