#    Name: 6c8q_2_NAD_CAVITY_N1_4
#    Modification time : Fri May 22 19:43:20 2020

@<TRIPOS>MOLECULE
6c8q_2_NAD_CAVITY_N1_4
  138     0     7     0     0
SMALL
NO_CHARGES


@<TRIPOS>ATOM
      1 OG         26.8900  -13.6100   -8.5300 O.3       1 SER1        0.0000 
      2 OG         26.0200  -12.4000   -8.3800 O.3       1 SER1        0.0000 
      3 OG         26.1000  -14.3200   -7.4700 O.3       1 SER1        0.0000 
      4 OG         26.0700  -10.6600   -7.1800 O.3       1 SER1        0.0000 
      5 OG         27.0000  -10.1200   -6.1300 O.3       1 SER1        0.0000 
      6 OG         28.8500   -9.0400   -4.0300 O.3       1 SER1        0.0000 
      7 OG         27.1800   -8.5400   -2.8200 O.3       1 SER1        0.0000 
      8 N          21.6400  -20.8400  -10.9100 N.am      2 ALA2        0.0000 
      9 N          23.3600  -19.6000  -10.9200 N.am      2 ALA2        0.0000 
     10 N          22.4800  -18.3900  -10.7700 N.am      2 ALA2        0.0000 
     11 N          22.5700  -20.3000   -9.8600 N.am      2 ALA2        0.0000 
     12 O          23.3300  -15.9300  -10.6300 O.2       2 ALA2        0.0000 
     13 O          21.5700  -13.5200  -10.3200 O.2       2 ALA2        0.0000 
     14 O          22.5300  -16.6400   -9.5700 O.2       2 ALA2        0.0000 
     15 O          21.6600  -15.4300   -9.4100 O.2       2 ALA2        0.0000 
     16 N          24.3700  -20.9700   -8.9600 N.am      2 ALA2        0.0000 
     17 N          23.4900  -19.7600   -8.8100 N.am      2 ALA2        0.0000 
     18 N          22.6200  -18.5600   -8.6600 N.am      2 ALA2        0.0000 
     19 N          21.7400  -17.3500   -8.5100 N.am      2 ALA2        0.0000 
     20 O          20.8700  -16.1400   -8.3500 O.2       2 ALA2        0.0000 
     21 N          21.5400   -9.8500  -10.0300 N.am      2 ALA2        0.0000 
     22 N          27.7500  -20.2300  -10.1800 N.am      2 ALA2        0.0000 
     23 N          22.4700   -9.3200   -8.9800 N.am      2 ALA2        0.0000 
     24 N          21.6800  -10.0200   -7.9200 N.am      2 ALA2        0.0000 
     25 N          20.8800  -10.7300   -6.8600 N.am      2 ALA2        0.0000 
     26 N          24.2700   -9.9900   -8.0800 N.am      2 ALA2        0.0000 
     27 N          23.4800  -10.6900   -7.0200 N.am      2 ALA2        0.0000 
     28 N          23.5300   -8.9500   -5.8200 N.am      2 ALA2        0.0000 
     29 N          29.5400  -11.8300   -7.4900 N.am      2 ALA2        0.0000 
     30 N          30.4600  -11.2900   -6.4400 N.am      2 ALA2        0.0000 
     31 N          26.3900   -9.2500   -1.7600 N.am      2 ALA2        0.0000 
     32 OD1        25.0800  -18.3500  -10.9300 O.co2     3 ASP3        0.0000 
     33 OD1        25.1600  -20.2700  -10.0200 O.co2     3 ASP3        0.0000 
     34 OD1        24.2800  -19.0600   -9.8700 O.co2     3 ASP3        0.0000 
     35 OD1        23.4100  -17.8500   -9.7200 O.co2     3 ASP3        0.0000 
     36 OD1        26.7900  -17.1100  -10.9400 O.co2     3 ASP3        0.0000 
     37 OD1        25.9200  -15.9000  -10.7900 O.co2     3 ASP3        0.0000 
     38 OD1        26.8800  -19.0200  -10.0300 O.co2     3 ASP3        0.0000 
     39 OD1        26.0000  -17.8100   -9.8800 O.co2     3 ASP3        0.0000 
     40 OD1        25.1300  -16.6000   -9.7300 O.co2     3 ASP3        0.0000 
     41 OD1        24.2500  -15.4000   -9.5700 O.co2     3 ASP3        0.0000 
     42 OD1        26.0900  -19.7300   -8.9700 O.co2     3 ASP3        0.0000 
     43 OD1        23.4600  -16.1000   -8.5100 O.co2     3 ASP3        0.0000 
     44 OD1        22.6700  -16.8100   -7.4600 O.co2     3 ASP3        0.0000 
     45 OD1        21.7900  -15.6000   -7.3000 O.co2     3 ASP3        0.0000 
     46 OD1        27.8000  -18.4800   -8.9800 O.co2     3 ASP3        0.0000 
     47 OD1        26.0500  -16.0700   -8.6800 O.co2     3 ASP3        0.0000 
     48 OD1        21.8400  -13.8500   -6.1000 O.co2     3 ASP3        0.0000 
     49 NZ         22.6800  -11.4000   -5.9600 N.4       4 LYS4        0.0000 
     50 NZ         21.8100  -10.1900   -5.8100 N.4       4 LYS4        0.0000 
     51 NZ         24.4000  -10.1600   -5.9700 N.4       4 LYS4        0.0000 
     52 NZ         23.6100  -10.8600   -4.9100 N.4       4 LYS4        0.0000 
     53 NZ         25.3300   -9.6200   -4.9200 N.4       4 LYS4        0.0000 
     54 NZ         24.4500   -8.4100   -4.7600 N.4       4 LYS4        0.0000 
     55 NZ         24.5400  -10.3200   -3.8600 N.4       4 LYS4        0.0000 
     56 NZ         25.4600   -9.7900   -2.8100 N.4       4 LYS4        0.0000 
     57 CZ         23.2600  -23.0900  -13.3300 C.ar      5 PHE5        0.0000 
     58 CZ         24.1800  -22.5500  -12.2700 C.ar      5 PHE5        0.0000 
     59 CZ         23.3900  -23.2600  -11.2100 C.ar      5 PHE5        0.0000 
     60 CZ         25.1100  -22.0100  -11.2200 C.ar      5 PHE5        0.0000 
     61 CZ         26.8300  -20.7700  -11.2300 C.ar      5 PHE5        0.0000 
     62 CZ         26.0300  -21.4800  -10.1700 C.ar      5 PHE5        0.0000 
     63 CZ         27.6700  -18.3100  -11.0900 C.ar      5 PHE5        0.0000 
     64 CZ         26.7300   -9.7800  -10.3500 C.ar      5 PHE5        0.0000 
     65 CZ         25.8500   -8.5700  -10.2000 C.ar      5 PHE5        0.0000 
     66 CZ         25.2300  -13.1100   -7.3200 C.ar      5 PHE5        0.0000 
     67 CZ         24.3500  -11.9000   -7.1700 C.ar      5 PHE5        0.0000 
     68 CZ         24.4400  -13.8200   -6.2600 C.ar      5 PHE5        0.0000 
     69 CZ         23.5600  -12.6100   -6.1100 C.ar      5 PHE5        0.0000 
     70 CZ         28.5300  -10.4500   -9.4500 C.ar      5 PHE5        0.0000 
     71 CZ         27.7400  -11.1600   -8.3900 C.ar      5 PHE5        0.0000 
     72 CZ         26.8600   -9.9500   -8.2400 C.ar      5 PHE5        0.0000 
     73 CZ         25.2800  -11.3600   -6.1200 C.ar      5 PHE5        0.0000 
     74 CZ         24.4900  -12.0700   -5.0600 C.ar      5 PHE5        0.0000 
     75 CZ         30.3300  -11.1200   -8.5500 C.ar      5 PHE5        0.0000 
     76 CZ         28.6600  -10.6200   -7.3400 C.ar      5 PHE5        0.0000 
     77 CZ         26.2000  -10.8300   -5.0700 C.ar      5 PHE5        0.0000 
     78 CZ         31.2500  -10.5800   -7.5000 C.ar      5 PHE5        0.0000 
     79 CZ         29.5900  -10.0800   -6.2900 C.ar      5 PHE5        0.0000 
     80 CZ         28.7100   -8.8700   -6.1400 C.ar      5 PHE5        0.0000 
     81 CZ         27.9200   -9.5800   -5.0800 C.ar      5 PHE5        0.0000 
     82 CZ         27.1300  -10.2900   -4.0200 C.ar      5 PHE5        0.0000 
     83 CZ         32.1800  -10.0500   -6.4500 C.ar      5 PHE5        0.0000 
     84 CZ         30.5100   -9.5400   -5.2400 C.ar      5 PHE5        0.0000 
     85 CZ         27.9700   -7.8300   -3.8800 C.ar      5 PHE5        0.0000 
     86 CZ         26.3000   -7.3300   -2.6600 C.ar      5 PHE5        0.0000 
     87 CA         24.3200  -22.7200  -10.1600 C.3       6 GLY6        0.0000 
     88 CA         23.4400  -21.5100  -10.0100 C.3       6 GLY6        0.0000 
     89 CA         21.4900  -11.6000  -11.2300 C.3       6 GLY6        0.0000 
     90 CA         22.4200  -11.0600  -10.1800 C.3       6 GLY6        0.0000 
     91 CA         21.6300  -11.7700   -9.1200 C.3       6 GLY6        0.0000 
     92 CA         20.7500  -10.5600   -8.9700 C.3       6 GLY6        0.0000 
     93 CA         23.2600   -8.6100  -10.0400 C.3       6 GLY6        0.0000 
     94 CA         27.7200  -16.5700   -9.8900 C.3       6 GLY6        0.0000 
     95 CA         26.8400  -15.3600   -9.7400 C.3       6 GLY6        0.0000 
     96 CA         25.1800  -14.8600   -8.5200 C.3       6 GLY6        0.0000 
     97 CA         24.3800  -15.5600   -7.4600 C.3       6 GLY6        0.0000 
     98 CA         23.5100  -14.3600   -7.3100 C.3       6 GLY6        0.0000 
     99 CA         23.5900  -16.2700   -6.4000 C.3       6 GLY6        0.0000 
    100 CA         22.7200  -15.0600   -6.2500 C.3       6 GLY6        0.0000 
    101 CA         27.6900  -12.9100   -9.5900 C.3       6 GLY6        0.0000 
    102 CA         25.0600   -9.2800   -9.1400 C.3       6 GLY6        0.0000 
    103 CA         24.1800   -8.0700   -8.9900 C.3       6 GLY6        0.0000 
    104 CA         27.7700  -14.8200   -8.6900 C.3       6 GLY6        0.0000 
    105 CA         27.8500  -16.7400   -7.7800 C.3       6 GLY6        0.0000 
    106 CA         26.9800  -15.5300   -7.6300 C.3       6 GLY6        0.0000 
    107 CA         23.6400  -14.5200   -5.2000 C.3       6 GLY6        0.0000 
    108 CA         22.7700  -13.3200   -5.0500 C.3       6 GLY6        0.0000 
    109 CA         25.1900   -9.4500   -7.0300 C.3       6 GLY6        0.0000 
    110 CA         26.1200   -8.9100   -5.9800 C.3       6 GLY6        0.0000 
    111 CA         27.0500   -8.3700   -4.9300 C.3       6 GLY6        0.0000 
    112 CA         25.3800   -7.8700   -3.7100 C.3       6 GLY6        0.0000 
    113 CA         28.0500   -9.7500   -2.9700 C.3       6 GLY6        0.0000 
    114 CA         25.5100   -8.0400   -1.6000 C.3       6 GLY6        0.0000 
    115 DU         23.3100  -21.3400  -12.1200 H         7 CUB7        0.0000 
    116 DU         22.5200  -22.0500  -11.0600 H         7 CUB7        0.0000 
    117 DU         24.2300  -20.8000  -11.0700 H         7 CUB7        0.0000 
    118 DU         25.8700  -17.6400  -11.9900 H         7 CUB7        0.0000 
    119 DU         25.9500  -19.5600  -11.0800 H         7 CUB7        0.0000 
    120 DU         24.2000  -17.1400  -10.7800 H         7 CUB7        0.0000 
    121 DU         25.0400  -14.6900  -10.6300 H         7 CUB7        0.0000 
    122 DU         23.3800  -14.1900   -9.4200 H         7 CUB7        0.0000 
    123 DU         22.5000  -12.9800   -9.2700 H         7 CUB7        0.0000 
    124 DU         22.5800  -14.8900   -8.3600 H         7 CUB7        0.0000 
    125 DU         21.7100  -13.6900   -8.2100 H         7 CUB7        0.0000 
    126 DU         24.1300   -9.8200  -10.1900 H         7 CUB7        0.0000 
    127 DU         25.9700  -14.1500   -9.5800 H         7 CUB7        0.0000 
    128 DU         25.0900  -12.9400   -9.4300 H         7 CUB7        0.0000 
    129 DU         23.3400  -10.5200   -9.1300 H         7 CUB7        0.0000 
    130 DU         24.3000  -13.6500   -8.3700 H         7 CUB7        0.0000 
    131 DU         23.4300  -12.4400   -8.2200 H         7 CUB7        0.0000 
    132 DU         22.5500  -11.2300   -8.0700 H         7 CUB7        0.0000 
    133 DU         22.6300  -13.1500   -7.1600 H         7 CUB7        0.0000 
    134 DU         21.7600  -11.9400   -7.0100 H         7 CUB7        0.0000 
    135 DU         26.8100  -11.7000   -9.4400 H         7 CUB7        0.0000 
    136 DU         25.9400  -10.4900   -9.2900 H         7 CUB7        0.0000 
    137 DU         25.1400  -11.2000   -8.2300 H         7 CUB7        0.0000 
    138 DU         26.2500   -9.0800   -3.8700 H         7 CUB7        0.0000 
@<TRIPOS>BOND
@<TRIPOS>SUBSTRUCTURE
     1 SER1        1 GROUP   
     2 ALA2        8 GROUP   
     3 ASP3       32 GROUP   
     4 LYS4       49 GROUP   
     5 PHE5       57 GROUP   
     6 GLY6       87 GROUP   
     7 CUB7      115 GROUP   
@<TRIPOS>SET

