#    Name: 6c8q_3_NAD_CAVITY_N1_12
#    Modification time : Fri May 22 19:43:30 2020

@<TRIPOS>MOLECULE
6c8q_3_NAD_CAVITY_N1_12
  125     0     7     0     0
SMALL
NO_CHARGES


@<TRIPOS>ATOM
      1 OG          0.8900  -13.5500   33.6400 O.3       1 SER1        0.0000 
      2 OG          8.1800  -18.1500   38.1400 O.3       1 SER1        0.0000 
      3 OG          8.2600  -20.0700   39.0500 O.3       1 SER1        0.0000 
      4 OG          7.4700  -20.7700   40.1100 O.3       1 SER1        0.0000 
      5 OG          6.5900  -19.5700   40.2600 O.3       1 SER1        0.0000 
      6 OG          6.6800  -21.4800   41.1700 O.3       1 SER1        0.0000 
      7 N          -0.1200  -12.1800   31.6800 N.am      2 ALA2        0.0000 
      8 N           0.8400  -15.3000   32.4300 N.am      2 ALA2        0.0000 
      9 N           2.4700  -12.1400   31.5200 N.am      2 ALA2        0.0000 
     10 N           2.5500  -14.0600   32.4200 N.am      2 ALA2        0.0000 
     11 N           1.6800  -12.8500   32.5800 N.am      2 ALA2        0.0000 
     12 O           4.2700  -12.8100   32.4100 O.2       2 ALA2        0.0000 
     13 N           3.4000  -11.6000   32.5700 N.am      2 ALA2        0.0000 
     14 N           3.4800  -13.5200   33.4700 N.am      2 ALA2        0.0000 
     15 N           2.6900  -14.2300   34.5300 N.am      2 ALA2        0.0000 
     16 O           5.2000  -12.2700   33.4700 O.2       2 ALA2        0.0000 
     17 O           5.2800  -14.1900   34.3700 O.2       2 ALA2        0.0000 
     18 O           3.6100  -13.6900   35.5900 O.2       2 ALA2        0.0000 
     19 O           2.8200  -14.3900   36.6500 O.2       2 ALA2        0.0000 
     20 N           9.0200  -15.7000   38.2800 N.am      2 ALA2        0.0000 
     21 N           9.1000  -17.6100   39.1900 N.am      2 ALA2        0.0000 
     22 N           8.2300  -16.4000   39.3400 N.am      2 ALA2        0.0000 
     23 N           8.2800  -14.6600   40.5400 N.am      2 ALA2        0.0000 
     24 OD1         3.4300  -15.2700   32.2700 O.co2     3 ASP3        0.0000 
     25 OD1         1.7600  -14.7600   33.4800 O.co2     3 ASP3        0.0000 
     26 OD1         4.4400  -16.6400   34.2300 O.co2     3 ASP3        0.0000 
     27 OD1         3.5600  -15.4300   34.3800 O.co2     3 ASP3        0.0000 
     28 OD1         1.9000  -14.9300   35.5900 O.co2     3 ASP3        0.0000 
     29 OD1         5.3600  -16.1000   35.2800 O.co2     3 ASP3        0.0000 
     30 OD1         4.4900  -14.9000   35.4300 O.co2     3 ASP3        0.0000 
     31 OD1         4.6200  -15.0600   37.5400 O.co2     3 ASP3        0.0000 
     32 OD1         3.7500  -13.8600   37.7000 O.co2     3 ASP3        0.0000 
     33 OD1         5.5500  -14.5300   38.5900 O.co2     3 ASP3        0.0000 
     34 NZ         -1.4000  -10.4600   25.5000 N.4       4 LYS4        0.0000 
     35 NZ         -2.1900  -11.1700   26.5600 N.4       4 LYS4        0.0000 
     36 NZ          5.7200  -18.3600   40.4100 N.4       4 LYS4        0.0000 
     37 NZ          8.3100  -18.3200   40.2500 N.4       4 LYS4        0.0000 
     38 NZ          7.4300  -17.1100   40.4000 N.4       4 LYS4        0.0000 
     39 NZ          8.3900  -20.2400   41.1600 N.4       4 LYS4        0.0000 
     40 NZ          7.5200  -19.0300   41.3100 N.4       4 LYS4        0.0000 
     41 CZ         -0.5200  -11.6700   25.3500 C.ar      5 PHE5        0.0000 
     42 CZ          0.4000  -11.1300   26.4000 C.ar      5 PHE5        0.0000 
     43 CZ         -0.3900  -11.8400   27.4600 C.ar      5 PHE5        0.0000 
     44 CZ          2.1200   -9.8900   26.3900 C.ar      5 PHE5        0.0000 
     45 CZ          2.2900  -13.7200   28.2000 C.ar      5 PHE5        0.0000 
     46 CZ          1.4100  -12.5100   28.3600 C.ar      5 PHE5        0.0000 
     47 CZ          0.5400  -11.3000   28.5100 C.ar      5 PHE5        0.0000 
     48 CZ          1.4900  -14.4300   29.2600 C.ar      5 PHE5        0.0000 
     49 CZ          0.6200  -13.2200   29.4200 C.ar      5 PHE5        0.0000 
     50 CZ         -0.2600  -12.0100   29.5700 C.ar      5 PHE5        0.0000 
     51 CZ          0.7000  -15.1300   30.3200 C.ar      5 PHE5        0.0000 
     52 CZ         -0.1700  -13.9200   30.4800 C.ar      5 PHE5        0.0000 
     53 CZ          3.9200  -10.5600   27.2900 C.ar      5 PHE5        0.0000 
     54 CZ          3.0400   -9.3500   27.4400 C.ar      5 PHE5        0.0000 
     55 CZ          3.1300  -11.2700   28.3500 C.ar      5 PHE5        0.0000 
     56 CZ          2.2500  -10.0600   28.5000 C.ar      5 PHE5        0.0000 
     57 CZ          5.7200  -11.2300   28.1800 C.ar      5 PHE5        0.0000 
     58 CZ          4.9300  -11.9400   29.2400 C.ar      5 PHE5        0.0000 
     59 CZ          4.0500  -10.7300   29.4000 C.ar      5 PHE5        0.0000 
     60 CZ          6.3700  -17.4800   37.2400 C.ar      5 PHE5        0.0000 
     61 CZ          4.7100  -16.9800   38.4500 C.ar      5 PHE5        0.0000 
     62 CZ          7.3800  -18.8600   39.2000 C.ar      5 PHE5        0.0000 
     63 CZ          6.5100  -17.6500   39.3500 C.ar      5 PHE5        0.0000 
     64 CZ          5.6300  -16.4400   39.5000 C.ar      5 PHE5        0.0000 
     65 CZ          4.7600  -15.2300   39.6500 C.ar      5 PHE5        0.0000 
     66 CZ          8.3400  -21.9800   39.9500 C.ar      5 PHE5        0.0000 
     67 CZ          6.4700  -13.9900   39.6400 C.ar      5 PHE5        0.0000 
     68 CZ          6.5600  -15.9000   40.5500 C.ar      5 PHE5        0.0000 
     69 CZ          8.4800  -22.1500   42.0600 C.ar      5 PHE5        0.0000 
     70 CA         -0.6100   -9.7600   24.4400 C.3       6 GLY6        0.0000 
     71 CA          0.2300   -7.3000   24.5800 C.3       6 GLY6        0.0000 
     72 CA          1.1900  -10.4300   25.3400 C.3       6 GLY6        0.0000 
     73 CA          0.3200   -9.2200   25.4900 C.3       6 GLY6        0.0000 
     74 CA          2.0400   -7.9700   25.4800 C.3       6 GLY6        0.0000 
     75 CA          2.9900  -11.1000   26.2400 C.3       6 GLY6        0.0000 
     76 CA          1.2400   -8.6800   26.5400 C.3       6 GLY6        0.0000 
     77 CA          0.3700   -7.4700   26.6900 C.3       6 GLY6        0.0000 
     78 CA          2.2000  -11.8000   27.3000 C.3       6 GLY6        0.0000 
     79 CA          4.8000  -11.7700   27.1300 C.3       6 GLY6        0.0000 
     80 CA         -0.0400  -14.0900   32.5900 C.3       6 GLY6        0.0000 
     81 CA          4.1900  -10.9000   31.5100 C.3       6 GLY6        0.0000 
     82 CA          6.1100  -17.1400   33.0200 C.3       6 GLY6        0.0000 
     83 CA          4.5700  -16.8100   36.3400 C.3       6 GLY6        0.0000 
     84 CA          3.7000  -15.6000   36.4900 C.3       6 GLY6        0.0000 
     85 CA          2.9100  -16.3100   37.5500 C.3       6 GLY6        0.0000 
     86 CA          3.8300  -15.7700   38.6000 C.3       6 GLY6        0.0000 
     87 CA          9.0500  -19.3600   37.9900 C.3       6 GLY6        0.0000 
     88 CA          9.1300  -21.2800   38.8900 C.3       6 GLY6        0.0000 
     89 CA          8.1400  -14.4900   38.4300 C.3       6 GLY6        0.0000 
     90 CA          7.2700  -13.2800   38.5800 C.3       6 GLY6        0.0000 
     91 CA         10.0600  -20.7400   39.9400 C.3       6 GLY6        0.0000 
     92 CA          9.1800  -19.5300   40.1000 C.3       6 GLY6        0.0000 
     93 CA          9.2700  -21.4400   41.0000 C.3       6 GLY6        0.0000 
     94 CA          7.6000  -20.9400   42.2200 C.3       6 GLY6        0.0000 
     95 DU         -0.4700   -9.9200   26.5500 H         7 CUB7        0.0000 
     96 DU          1.3300  -10.6000   27.4500 H         7 CUB7        0.0000 
     97 DU          0.4500   -9.3900   27.6000 H         7 CUB7        0.0000 
     98 DU         -0.3400  -10.0900   28.6600 H         7 CUB7        0.0000 
     99 DU         -1.1300  -10.8000   29.7200 H         7 CUB7        0.0000 
    100 DU          4.0000  -12.4700   28.1900 H         7 CUB7        0.0000 
    101 DU          4.0900  -14.3900   29.1000 H         7 CUB7        0.0000 
    102 DU          3.2100  -13.1800   29.2500 H         7 CUB7        0.0000 
    103 DU          2.3400  -11.9700   29.4100 H         7 CUB7        0.0000 
    104 DU          1.4600  -10.7600   29.5600 H         7 CUB7        0.0000 
    105 DU          2.4200  -13.8900   30.3100 H         7 CUB7        0.0000 
    106 DU          1.5400  -12.6800   30.4700 H         7 CUB7        0.0000 
    107 DU          0.6700  -11.4700   30.6200 H         7 CUB7        0.0000 
    108 DU          1.6300  -14.5900   31.3700 H         7 CUB7        0.0000 
    109 DU          0.7500  -13.3900   31.5300 H         7 CUB7        0.0000 
    110 DU          5.8000  -13.1400   29.0900 H         7 CUB7        0.0000 
    111 DU          4.1400  -12.6400   30.3000 H         7 CUB7        0.0000 
    112 DU          3.2600  -11.4300   30.4600 H         7 CUB7        0.0000 
    113 DU          3.3500  -13.3500   31.3600 H         7 CUB7        0.0000 
    114 DU          5.0600  -12.1000   31.3500 H         7 CUB7        0.0000 
    115 DU          5.1500  -14.0200   32.2600 H         7 CUB7        0.0000 
    116 DU          5.2300  -15.9400   33.1700 H         7 CUB7        0.0000 
    117 DU          4.3600  -14.7300   33.3200 H         7 CUB7        0.0000 
    118 DU          6.0700  -13.4800   33.3100 H         7 CUB7        0.0000 
    119 DU          6.1600  -15.4000   34.2200 H         7 CUB7        0.0000 
    120 DU          5.4200  -14.3600   36.4800 H         7 CUB7        0.0000 
    121 DU          5.5000  -16.2700   37.3900 H         7 CUB7        0.0000 
    122 DU          7.2200  -15.0300   37.3800 H         7 CUB7        0.0000 
    123 DU          7.3000  -16.9400   38.2900 H         7 CUB7        0.0000 
    124 DU          6.4200  -15.7300   38.4400 H         7 CUB7        0.0000 
    125 DU          7.3500  -15.2000   39.4900 H         7 CUB7        0.0000 
@<TRIPOS>BOND
@<TRIPOS>SUBSTRUCTURE
     1 SER1        1 GROUP   
     2 ALA2        7 GROUP   
     3 ASP3       24 GROUP   
     4 LYS4       34 GROUP   
     5 PHE5       41 GROUP   
     6 GLY6       70 GROUP   
     7 CUB7       95 GROUP   
@<TRIPOS>SET

