#    Name: 6c8q_1_NAD_CAVITY_N1_ALL
#    Modification time : Fri May 22 19:43:14 2020

@<TRIPOS>MOLECULE
6c8q_1_NAD_CAVITY_N1_ALL
   99     0     6     0     0
SMALL
NO_CHARGES


@<TRIPOS>ATOM
      1 OG          8.0700  -12.8000    9.7900 O.3       1 SER1        0.0000 
      2 OG          9.8700  -13.4700   10.6800 O.3       1 SER1        0.0000 
      3 OG          9.0800  -14.1800   11.7400 O.3       1 SER1        0.0000 
      4 N           6.1300  -11.9600    6.7800 N.am      2 ALA2        0.0000 
      5 N           5.3400  -12.6700    7.8400 N.am      2 ALA2        0.0000 
      6 N           7.1400  -13.3400    8.7300 N.am      2 ALA2        0.0000 
      7 N           6.2700  -12.1300    8.8900 N.am      2 ALA2        0.0000 
      8 N           8.1500  -14.7100   10.6900 N.am      2 ALA2        0.0000 
      9 N           7.2700  -13.5100   10.8500 N.am      2 ALA2        0.0000 
     10 O           7.4400  -17.3400   12.6600 O.2       2 ALA2        0.0000 
     11 O           7.5300  -19.2500   13.5700 O.2       2 ALA2        0.0000 
     12 O           6.6500  -18.0400   13.7200 O.2       2 ALA2        0.0000 
     13 N           9.9500  -15.3900   11.5900 N.am      2 ALA2        0.0000 
     14 N          10.0300  -17.3000   12.5000 N.am      2 ALA2        0.0000 
     15 N           9.1600  -16.0900   12.6500 N.am      2 ALA2        0.0000 
     16 N           8.2800  -14.8800   12.8000 N.am      2 ALA2        0.0000 
     17 N           8.3700  -16.8000   13.7100 N.am      2 ALA2        0.0000 
     18 N           5.9900  -18.9200   16.8900 N.am      2 ALA2        0.0000 
     19 N          10.8800  -14.8500   12.6400 N.am      2 ALA2        0.0000 
     20 O          10.0000  -13.6400   12.7900 O.2       2 ALA2        0.0000 
     21 O          11.8000  -14.3100   13.6900 O.2       2 ALA2        0.0000 
     22 N          11.0100  -15.0200   14.7500 N.am      2 ALA2        0.0000 
     23 OD1        10.9600  -16.7600   13.5500 O.co2     3 ASP3        0.0000 
     24 OD1        11.0400  -18.6800   14.4600 O.co2     3 ASP3        0.0000 
     25 OD1        10.1700  -17.4700   14.6100 O.co2     3 ASP3        0.0000 
     26 OD1        11.8900  -16.2200   14.6000 O.co2     3 ASP3        0.0000 
     27 OD1        12.8500  -19.3500   15.3600 O.co2     3 ASP3        0.0000 
     28 OD1        11.9700  -18.1400   15.5100 O.co2     3 ASP3        0.0000 
     29 OD1        11.0900  -16.9300   15.6600 O.co2     3 ASP3        0.0000 
     30 OD1        11.1800  -18.8500   16.5700 O.co2     3 ASP3        0.0000 
     31 OD1        10.3900  -19.5500   17.6300 O.co2     3 ASP3        0.0000 
     32 OD1         9.5100  -18.3400   17.7800 O.co2     3 ASP3        0.0000 
     33 OD1        13.7700  -18.8100   16.4100 O.co2     3 ASP3        0.0000 
     34 OD1        12.9000  -17.6000   16.5600 O.co2     3 ASP3        0.0000 
     35 OD1        12.1000  -18.3100   17.6200 O.co2     3 ASP3        0.0000 
     36 CZ          4.9000  -15.6300   14.0300 C.ar      4 PHE5        0.0000 
     37 CZ          4.9800  -17.5400   14.9300 C.ar      4 PHE5        0.0000 
     38 CZ          5.8300  -15.0900   15.0800 C.ar      4 PHE5        0.0000 
     39 CZ          5.9100  -17.0000   15.9800 C.ar      4 PHE5        0.0000 
     40 CZ          5.0300  -15.8000   16.1400 C.ar      4 PHE5        0.0000 
     41 CZ          4.1600  -14.5900   16.2900 C.ar      4 PHE5        0.0000 
     42 CZ          4.2400  -16.5000   17.2000 C.ar      4 PHE5        0.0000 
     43 CZ          8.3300  -13.1400   14.0100 C.ar      4 PHE5        0.0000 
     44 CZ          7.4600  -11.9300   14.1600 C.ar      4 PHE5        0.0000 
     45 CZ          7.5400  -13.8400   15.0700 C.ar      4 PHE5        0.0000 
     46 CZ         10.1400  -13.8100   14.9000 C.ar      4 PHE5        0.0000 
     47 CZ          9.2600  -12.6000   15.0600 C.ar      4 PHE5        0.0000 
     48 CZ          9.3400  -14.5100   15.9600 C.ar      4 PHE5        0.0000 
     49 CZ          8.4700  -13.3100   16.1200 C.ar      4 PHE5        0.0000 
     50 CZ         11.2300  -17.1000   17.7700 C.ar      4 PHE5        0.0000 
     51 CZ         10.3500  -15.8900   17.9200 C.ar      4 PHE5        0.0000 
     52 CZ          9.4800  -14.6800   18.0700 C.ar      4 PHE5        0.0000 
     53 CZ          8.6000  -13.4700   18.2300 C.ar      4 PHE5        0.0000 
     54 CZ         10.4400  -17.8100   18.8300 C.ar      4 PHE5        0.0000 
     55 CZ          9.5600  -16.6000   18.9800 C.ar      4 PHE5        0.0000 
     56 CZ          8.6900  -15.3900   19.1300 C.ar      4 PHE5        0.0000 
     57 CZ          9.6500  -18.5100   19.8900 C.ar      4 PHE5        0.0000 
     58 CZ          8.7700  -17.3000   20.0400 C.ar      4 PHE5        0.0000 
     59 CA          4.5500  -13.3700    8.9000 C.3       5 GLY6        0.0000 
     60 CA          3.7600  -14.0800    9.9600 C.3       5 GLY6        0.0000 
     61 CA          2.8800  -12.8700   10.1100 C.3       5 GLY6        0.0000 
     62 CA          2.9600  -14.7900   11.0200 C.3       5 GLY6        0.0000 
     63 CA          7.9300  -12.6300    7.6700 C.3       5 GLY6        0.0000 
     64 CA          7.0600  -11.4200    7.8300 C.3       5 GLY6        0.0000 
     65 CA          6.3500  -14.0400    9.7900 C.3       5 GLY6        0.0000 
     66 CA          5.4700  -12.8400    9.9500 C.3       5 GLY6        0.0000 
     67 CA          8.8600  -12.0900    8.7300 C.3       5 GLY6        0.0000 
     68 CA          5.8600  -18.7500   14.7800 C.3       5 GLY6        0.0000 
     69 CA          5.1200  -17.7100   17.0400 C.3       5 GLY6        0.0000 
     70 CA          5.8800  -13.3400   16.2800 C.3       5 GLY6        0.0000 
     71 CA          5.9600  -15.2600   17.1900 C.3       5 GLY6        0.0000 
     72 CA         10.9300  -13.1000   13.8400 C.3       5 GLY6        0.0000 
     73 CA          7.6800  -14.0100   17.1800 C.3       5 GLY6        0.0000 
     74 CA          6.8900  -14.7200   18.2400 C.3       5 GLY6        0.0000 
     75 DU          7.9800  -10.8800    8.8800 H         6 CUB7        0.0000 
     76 DU          7.1900  -11.5900    9.9400 H         6 CUB7        0.0000 
     77 DU          8.2000  -12.9700   11.9000 H         6 CUB7        0.0000 
     78 DU          6.4500  -10.5500   12.2000 H         6 CUB7        0.0000 
     79 DU          7.4100  -13.6700   12.9600 H         6 CUB7        0.0000 
     80 DU          6.5300  -12.4700   13.1100 H         6 CUB7        0.0000 
     81 DU          7.4900  -15.5900   13.8600 H         6 CUB7        0.0000 
     82 DU          8.4500  -18.7100   14.6200 H         6 CUB7        0.0000 
     83 DU          7.5800  -17.5100   14.7700 H         6 CUB7        0.0000 
     84 DU          6.7000  -16.3000   14.9200 H         6 CUB7        0.0000 
     85 DU          6.7800  -18.2100   15.8300 H         6 CUB7        0.0000 
     86 DU         10.0900  -15.5500   13.7000 H         6 CUB7        0.0000 
     87 DU          9.2100  -14.3500   13.8500 H         6 CUB7        0.0000 
     88 DU          9.2900  -16.2600   14.7600 H         6 CUB7        0.0000 
     89 DU          8.4200  -15.0500   14.9100 H         6 CUB7        0.0000 
     90 DU         10.2500  -19.3800   15.5200 H         6 CUB7        0.0000 
     91 DU          6.7500  -14.5500   16.1300 H         6 CUB7        0.0000 
     92 DU          8.5900  -18.8800   16.7300 H         6 CUB7        0.0000 
     93 DU          6.8300  -16.4700   17.0300 H         6 CUB7        0.0000 
     94 DU         10.2200  -15.7200   15.8100 H         6 CUB7        0.0000 
     95 DU         10.3000  -17.6400   16.7200 H         6 CUB7        0.0000 
     96 DU          9.4300  -16.4300   16.8700 H         6 CUB7        0.0000 
     97 DU          8.5500  -15.2200   17.0200 H         6 CUB7        0.0000 
     98 DU          8.6400  -17.1400   17.9300 H         6 CUB7        0.0000 
     99 DU          7.7600  -15.9300   18.0800 H         6 CUB7        0.0000 
@<TRIPOS>BOND
@<TRIPOS>SUBSTRUCTURE
     1 SER1        1 GROUP   
     2 ALA2        4 GROUP   
     3 ASP3       23 GROUP   
     4 PHE5       36 GROUP   
     5 GLY6       59 GROUP   
     6 CUB7       75 GROUP   
@<TRIPOS>SET

