#    Name: 6c8q_5_NAD_CAVITY_N1_12
#    Modification time : Fri May 22 19:43:36 2020

@<TRIPOS>MOLECULE
6c8q_5_NAD_CAVITY_N1_12
   93     0     7     0     0
SMALL
NO_CHARGES


@<TRIPOS>ATOM
      1 OG         40.8600  -59.5200   51.9500 O.3       1 SER1        0.0000 
      2 OG         42.6600  -60.1900   52.8500 O.3       1 SER1        0.0000 
      3 OG         41.7800  -58.9800   53.0000 O.3       1 SER1        0.0000 
      4 OG         44.3800  -58.9400   52.8400 O.3       1 SER1        0.0000 
      5 OG         43.5000  -57.7300   52.9900 O.3       1 SER1        0.0000 
      6 OG         42.7100  -58.4400   54.0500 O.3       1 SER1        0.0000 
      7 OG         46.8900  -56.9900   51.7700 O.3       1 SER1        0.0000 
      8 OG         45.2200  -56.4900   52.9800 O.3       1 SER1        0.0000 
      9 O          39.0400  -64.2600   49.5500 O.2       2 ALA2        0.0000 
     10 O          38.1600  -63.0500   49.7000 O.2       2 ALA2        0.0000 
     11 O          36.5000  -62.5500   50.9200 O.2       2 ALA2        0.0000 
     12 O          39.9700  -63.7200   50.6000 O.2       2 ALA2        0.0000 
     13 O          40.0500  -65.6300   51.5100 O.2       2 ALA2        0.0000 
     14 O          39.1700  -64.4200   51.6600 O.2       2 ALA2        0.0000 
     15 O          38.3000  -63.2200   51.8100 O.2       2 ALA2        0.0000 
     16 N          40.1800  -65.8000   53.6200 N.am      2 ALA2        0.0000 
     17 N          43.4800  -63.1400   51.4900 N.am      2 ALA2        0.0000 
     18 N          41.1100  -65.2600   54.6700 N.am      2 ALA2        0.0000 
     19 N          45.2000  -61.9000   51.4800 N.am      2 ALA2        0.0000 
     20 N          46.1300  -61.3600   52.5300 N.am      2 ALA2        0.0000 
     21 OD1        39.8300  -63.5500   48.4900 O.co2     3 ASP3        0.0000 
     22 OD1        38.9600  -62.3400   48.6400 O.co2     3 ASP3        0.0000 
     23 OD1        37.2900  -61.8400   49.8600 O.co2     3 ASP3        0.0000 
     24 OD1        41.5500  -62.3000   48.4800 O.co2     3 ASP3        0.0000 
     25 OD1        40.7600  -63.0100   49.5400 O.co2     3 ASP3        0.0000 
     26 OD1        38.2200  -61.3000   50.9100 O.co2     3 ASP3        0.0000 
     27 OD1        36.5500  -60.8000   52.1200 O.co2     3 ASP3        0.0000 
     28 OD1        39.1400  -60.7600   51.9600 O.co2     3 ASP3        0.0000 
     29 OD1        37.4700  -60.2600   53.1700 O.co2     3 ASP3        0.0000 
     30 NZ         44.1900  -60.5200   49.5200 N.4       4 LYS4        0.0000 
     31 NZ         44.2800  -62.4400   50.4300 N.4       4 LYS4        0.0000 
     32 NZ         45.1200  -59.9800   50.5700 N.4       4 LYS4        0.0000 
     33 NZ         46.0400  -59.4400   51.6200 N.4       4 LYS4        0.0000 
     34 CZ         39.2600  -66.3400   52.5700 C.ar      5 PHE5        0.0000 
     35 CZ         38.3800  -65.1300   52.7200 C.ar      5 PHE5        0.0000 
     36 CZ         37.5100  -63.9200   52.8700 C.ar      5 PHE5        0.0000 
     37 CZ         36.6300  -62.7100   53.0300 C.ar      5 PHE5        0.0000 
     38 CZ         35.7600  -61.5100   53.1800 C.ar      5 PHE5        0.0000 
     39 CZ         43.2700  -61.0600   48.4700 C.ar      5 PHE5        0.0000 
     40 CZ         43.3500  -62.9700   49.3800 C.ar      5 PHE5        0.0000 
     41 CZ         42.4800  -61.7700   49.5300 C.ar      5 PHE5        0.0000 
     42 CZ         41.6000  -60.5600   49.6800 C.ar      5 PHE5        0.0000 
     43 CZ         42.5600  -63.6800   50.4400 C.ar      5 PHE5        0.0000 
     44 CZ         40.8100  -61.2600   50.7400 C.ar      5 PHE5        0.0000 
     45 CZ         39.3100  -64.5900   53.7700 C.ar      5 PHE5        0.0000 
     46 CZ         38.4300  -63.3800   53.9200 C.ar      5 PHE5        0.0000 
     47 CZ         38.5200  -65.3000   54.8300 C.ar      5 PHE5        0.0000 
     48 CZ         43.4000  -61.2300   50.5800 C.ar      5 PHE5        0.0000 
     49 CZ         42.5300  -60.0200   50.7400 C.ar      5 PHE5        0.0000 
     50 CZ         41.7300  -60.7300   51.8000 C.ar      5 PHE5        0.0000 
     51 CZ         44.2400  -58.7700   50.7300 C.ar      5 PHE5        0.0000 
     52 CZ         43.4500  -59.4800   51.7900 C.ar      5 PHE5        0.0000 
     53 CZ         45.9600  -57.5300   50.7200 C.ar      5 PHE5        0.0000 
     54 CZ         45.1700  -58.2400   51.7800 C.ar      5 PHE5        0.0000 
     55 CZ         44.4300  -57.2000   54.0400 C.ar      5 PHE5        0.0000 
     56 CZ         44.5600  -57.3600   56.1500 C.ar      5 PHE5        0.0000 
     57 CA         40.6700  -61.0900   48.6300 C.3       6 GLY6        0.0000 
     58 CA         39.8800  -61.8000   49.6900 C.3       6 GLY6        0.0000 
     59 CA         39.0100  -60.5900   49.8500 C.3       6 GLY6        0.0000 
     60 CA         39.9300  -60.0500   50.9000 C.3       6 GLY6        0.0000 
     61 CA         40.9800  -65.0900   52.5600 C.3       6 GLY6        0.0000 
     62 CA         46.8400  -58.7400   50.5600 C.3       6 GLY6        0.0000 
     63 CA         46.9200  -60.6500   51.4700 C.3       6 GLY6        0.0000 
     64 CA         45.2500  -60.1500   52.6800 C.3       6 GLY6        0.0000 
     65 CA         44.4600  -60.8600   53.7400 C.3       6 GLY6        0.0000 
     66 CA         43.5900  -59.6500   53.9000 C.3       6 GLY6        0.0000 
     67 CA         41.0400  -57.9400   55.2600 C.3       6 GLY6        0.0000 
     68 CA         47.7600  -58.2000   51.6100 C.3       6 GLY6        0.0000 
     69 CA         46.9700  -58.9100   52.6700 C.3       6 GLY6        0.0000 
     70 CA         46.0900  -57.7000   52.8300 C.3       6 GLY6        0.0000 
     71 CA         45.3000  -58.4000   53.8900 C.3       6 GLY6        0.0000 
     72 CA         44.5100  -59.1100   54.9500 C.3       6 GLY6        0.0000 
     73 CA         43.7200  -59.8200   56.0100 C.3       6 GLY6        0.0000 
     74 CA         41.1800  -58.1100   57.3700 C.3       6 GLY6        0.0000 
     75 CA         43.7700  -58.0700   57.2100 C.3       6 GLY6        0.0000 
     76 DU         39.0900  -62.5100   50.7500 H         7 CUB7        0.0000 
     77 DU         37.4200  -62.0100   51.9700 H         7 CUB7        0.0000 
     78 DU         41.6800  -62.4700   50.5900 H         7 CUB7        0.0000 
     79 DU         41.7700  -64.3900   51.5000 H         7 CUB7        0.0000 
     80 DU         40.1000  -63.8900   52.7100 H         7 CUB7        0.0000 
     81 DU         39.2200  -62.6800   52.8600 H         7 CUB7        0.0000 
     82 DU         38.3500  -61.4700   53.0200 H         7 CUB7        0.0000 
     83 DU         42.6100  -61.9300   51.6400 H         7 CUB7        0.0000 
     84 DU         40.9400  -61.4300   52.8600 H         7 CUB7        0.0000 
     85 DU         40.0700  -60.2200   53.0100 H         7 CUB7        0.0000 
     86 DU         44.3300  -60.6900   51.6300 H         7 CUB7        0.0000 
     87 DU         43.5300  -61.4000   52.6900 H         7 CUB7        0.0000 
     88 DU         41.8700  -60.8900   53.9100 H         7 CUB7        0.0000 
     89 DU         40.9900  -59.6900   54.0600 H         7 CUB7        0.0000 
     90 DU         42.7900  -60.3600   54.9600 H         7 CUB7        0.0000 
     91 DU         41.9200  -59.1500   55.1100 H         7 CUB7        0.0000 
     92 DU         43.6400  -57.9000   55.1000 H         7 CUB7        0.0000 
     93 DU         42.8400  -58.6100   56.1600 H         7 CUB7        0.0000 
@<TRIPOS>BOND
@<TRIPOS>SUBSTRUCTURE
     1 SER1        1 GROUP   
     2 ALA2        9 GROUP   
     3 ASP3       21 GROUP   
     4 LYS4       30 GROUP   
     5 PHE5       34 GROUP   
     6 GLY6       57 GROUP   
     7 CUB7       76 GROUP   
@<TRIPOS>SET

