#    Name: 6c8q_7_NAD_CAVITY_N1_12
#    Modification time : Fri May 22 19:43:47 2020

@<TRIPOS>MOLECULE
6c8q_7_NAD_CAVITY_N1_12
  102     0     7     0     0
SMALL
NO_CHARGES


@<TRIPOS>ATOM
      1 OG        -15.2300  -18.2800   52.4100 O.3       1 SER1        0.0000 
      2 OG        -15.1500  -20.2000   53.3200 O.3       1 SER1        0.0000 
      3 OG        -14.3100  -17.7400   53.4600 O.3       1 SER1        0.0000 
      4 OG        -14.2200  -19.6600   54.3700 O.3       1 SER1        0.0000 
      5 OG        -15.1000  -18.4500   54.5200 O.3       1 SER1        0.0000 
      6 OG        -12.5000  -18.4200   54.3600 O.3       1 SER1        0.0000 
      7 OG        -13.3800  -17.2100   54.5100 O.3       1 SER1        0.0000 
      8 OG        -13.3000  -19.1200   55.4200 O.3       1 SER1        0.0000 
      9 N         -15.4500  -16.2000   49.3900 N.am      2 ALA2        0.0000 
     10 N         -14.6100  -13.7500   49.5300 N.am      2 ALA2        0.0000 
     11 N         -14.5200  -15.6600   50.4400 N.am      2 ALA2        0.0000 
     12 N         -15.3100  -16.3700   51.5000 N.am      2 ALA2        0.0000 
     13 N         -14.4700  -13.9100   51.6400 N.am      2 ALA2        0.0000 
     14 O         -12.6200  -12.8400   53.7400 O.2       2 ALA2        0.0000 
     15 O          -8.2800  -15.2200   53.2800 O.2       2 ALA2        0.0000 
     16 O         -10.0300  -12.8000   53.5800 O.2       2 ALA2        0.0000 
     17 O         -10.8200  -13.5100   54.6400 O.2       2 ALA2        0.0000 
     18 O         -11.7000  -12.3000   54.7900 O.2       2 ALA2        0.0000 
     19 O         -12.5700  -11.0900   54.9500 O.2       2 ALA2        0.0000 
     20 N         -13.4500   -9.8800   55.1000 N.am      2 ALA2        0.0000 
     21 O         -11.6100  -14.2100   55.7000 O.2       2 ALA2        0.0000 
     22 N          -9.0200  -14.1800   55.5400 N.am      2 ALA2        0.0000 
     23 O         -10.6900  -13.6800   56.7500 O.2       2 ALA2        0.0000 
     24 N          -7.2200  -14.8500   56.4400 N.am      2 ALA2        0.0000 
     25 N          -8.8800  -14.3500   57.6500 N.am      2 ALA2        0.0000 
     26 OD1       -11.0000  -15.0900   51.3300 O.co2     3 ASP3        0.0000 
     27 OD1       -15.0500  -16.7000   55.7200 O.co2     3 ASP3        0.0000 
     28 OD1       -10.0800  -14.5500   52.3800 O.co2     3 ASP3        0.0000 
     29 OD1       -11.6600  -15.9600   54.5000 O.co2     3 ASP3        0.0000 
     30 OD1       -11.5800  -17.8800   55.4100 O.co2     3 ASP3        0.0000 
     31 OD1        -9.1500  -14.0100   53.4300 O.co2     3 ASP3        0.0000 
     32 OD1        -9.0700  -15.9200   54.3400 O.co2     3 ASP3        0.0000 
     33 OD1        -9.9400  -14.7200   54.4900 O.co2     3 ASP3        0.0000 
     34 OD1       -10.7400  -15.4200   55.5500 O.co2     3 ASP3        0.0000 
     35 OD1       -11.5300  -16.1300   56.6100 O.co2     3 ASP3        0.0000 
     36 OD1        -8.1400  -15.3900   55.3900 O.co2     3 ASP3        0.0000 
     37 OD1        -9.8100  -14.8800   56.6000 O.co2     3 ASP3        0.0000 
     38 NZ        -13.7000  -18.6200   49.0900 N.4       4 LYS4        0.0000 
     39 NZ        -14.5700  -17.4100   49.2400 N.4       4 LYS4        0.0000 
     40 NZ        -12.8600  -16.1600   49.2300 N.4       4 LYS4        0.0000 
     41 NZ        -13.7300  -14.9500   49.3800 N.4       4 LYS4        0.0000 
     42 NZ        -13.6500  -16.8700   50.2900 N.4       4 LYS4        0.0000 
     43 CZ        -14.4900  -19.3200   50.1500 C.ar      5 PHE5        0.0000 
     44 CZ        -15.2800  -20.0300   51.2100 C.ar      5 PHE5        0.0000 
     45 CZ        -16.0700  -20.7400   52.2700 C.ar      5 PHE5        0.0000 
     46 CZ        -16.9500  -19.5300   52.4200 C.ar      5 PHE5        0.0000 
     47 CZ        -12.7700  -18.0800   50.1400 C.ar      5 PHE5        0.0000 
     48 CZ        -14.4400  -17.5800   51.3500 C.ar      5 PHE5        0.0000 
     49 CZ        -16.0200  -18.9900   53.4700 C.ar      5 PHE5        0.0000 
     50 CZ        -16.9000  -17.7800   53.6200 C.ar      5 PHE5        0.0000 
     51 CZ        -17.7700  -16.5700   53.7700 C.ar      5 PHE5        0.0000 
     52 CZ        -15.9400  -20.9100   54.3800 C.ar      5 PHE5        0.0000 
     53 CZ        -16.8100  -19.7000   54.5300 C.ar      5 PHE5        0.0000 
     54 CZ        -11.9300  -15.6200   50.2800 C.ar      5 PHE5        0.0000 
     55 CZ        -12.8100  -14.4200   50.4300 C.ar      5 PHE5        0.0000 
     56 CZ        -11.8500  -17.5400   51.1900 C.ar      5 PHE5        0.0000 
     57 CZ        -12.7200  -16.3300   51.3400 C.ar      5 PHE5        0.0000 
     58 CZ        -13.5100  -17.0400   52.4000 C.ar      5 PHE5        0.0000 
     59 CZ        -10.9200  -17.0000   52.2400 C.ar      5 PHE5        0.0000 
     60 CZ        -11.7100  -17.7100   53.3000 C.ar      5 PHE5        0.0000 
     61 CZ        -12.5900  -16.5000   53.4500 C.ar      5 PHE5        0.0000 
     62 CZ        -12.4900  -13.0100   55.8500 C.ar      5 PHE5        0.0000 
     63 CZ        -13.3600  -11.8000   56.0100 C.ar      5 PHE5        0.0000 
     64 CZ        -14.2400  -10.5900   56.1600 C.ar      5 PHE5        0.0000 
     65 CZ        -11.4800  -14.3800   57.8100 C.ar      5 PHE5        0.0000 
     66 CA        -15.4200  -19.8600   49.0900 C.3       6 GLY6        0.0000 
     67 CA        -16.2900  -18.6500   49.2500 C.3       6 GLY6        0.0000 
     68 CA        -16.2100  -20.5700   50.1500 C.3       6 GLY6        0.0000 
     69 CA        -15.3700  -18.1100   50.3000 C.3       6 GLY6        0.0000 
     70 CA        -16.2400  -16.9100   50.4500 C.3       6 GLY6        0.0000 
     71 CA        -16.1600  -18.8200   51.3600 C.3       6 GLY6        0.0000 
     72 CA        -16.1100  -17.0700   52.5600 C.3       6 GLY6        0.0000 
     73 CA        -11.0500  -16.8300   50.1300 C.3       6 GLY6        0.0000 
     74 CA        -13.6800  -13.2100   50.5800 C.3       6 GLY6        0.0000 
     75 CA        -15.0100  -20.3700   55.4300 C.3       6 GLY6        0.0000 
     76 CA        -15.8900  -19.1600   55.5800 C.3       6 GLY6        0.0000 
     77 CA        -10.1300  -16.2900   51.1800 C.3       6 GLY6        0.0000 
     78 CA        -14.4200  -12.1700   52.8400 C.3       6 GLY6        0.0000 
     79 CA        -14.1700  -17.9100   55.5700 C.3       6 GLY6        0.0000 
     80 CA         -9.2000  -15.7600   52.2300 C.3       6 GLY6        0.0000 
     81 CA         -9.9900  -16.4600   53.2900 C.3       6 GLY6        0.0000 
     82 CA        -13.5000  -11.6300   53.9000 C.3       6 GLY6        0.0000 
     83 CA        -10.7900  -17.1700   54.3500 C.3       6 GLY6        0.0000 
     84 CA        -12.3700  -18.5800   56.4700 C.3       6 GLY6        0.0000 
     85 CA        -13.2500  -17.3800   56.6200 C.3       6 GLY6        0.0000 
     86 DU        -13.6000  -15.1200   51.4900 H         7 CUB7        0.0000 
     87 DU        -14.3900  -15.8300   52.5500 H         7 CUB7        0.0000 
     88 DU        -15.1800  -16.5400   53.6100 H         7 CUB7        0.0000 
     89 DU        -15.9700  -17.2400   54.6700 H         7 CUB7        0.0000 
     90 DU        -16.8500  -16.0300   54.8200 H         7 CUB7        0.0000 
     91 DU        -11.8000  -15.7900   52.3900 H         7 CUB7        0.0000 
     92 DU        -12.6700  -14.5800   52.5400 H         7 CUB7        0.0000 
     93 DU        -13.5500  -13.3800   52.6900 H         7 CUB7        0.0000 
     94 DU        -14.3400  -14.0800   53.7500 H         7 CUB7        0.0000 
     95 DU        -10.8700  -15.2500   53.4400 H         7 CUB7        0.0000 
     96 DU        -11.7500  -14.0500   53.5900 H         7 CUB7        0.0000 
     97 DU        -12.5400  -14.7500   54.6500 H         7 CUB7        0.0000 
     98 DU        -13.4100  -13.5400   54.8000 H         7 CUB7        0.0000 
     99 DU        -14.2900  -12.3400   54.9600 H         7 CUB7        0.0000 
    100 DU        -12.4500  -16.6700   55.5600 H         7 CUB7        0.0000 
    101 DU        -14.2000  -14.2500   55.8600 H         7 CUB7        0.0000 
    102 DU        -12.4000  -14.9200   56.7600 H         7 CUB7        0.0000 
@<TRIPOS>BOND
@<TRIPOS>SUBSTRUCTURE
     1 SER1        1 GROUP   
     2 ALA2        9 GROUP   
     3 ASP3       26 GROUP   
     4 LYS4       38 GROUP   
     5 PHE5       43 GROUP   
     6 GLY6       66 GROUP   
     7 CUB7       86 GROUP   
@<TRIPOS>SET

