#    Name: 6c8q_1_NAD
#    Modification time : Fri May 22 19:43:13 2020

@<TRIPOS>MOLECULE
6c8q_1_NAD
   44    48     1     0     1
SMALL
NO_CHARGES


@<TRIPOS>ATOM
      1 PA         12.0350  -19.6060   10.8340 P.3       1 NAD301      0.0000 
      2 O1A        11.7570  -20.2860    9.5290 O.co2     1 NAD301      0.0000 
      3 O2A        12.6820  -18.2710   10.5660 O.co2     1 NAD301      0.0000 
      4 O5B        13.0560  -20.5300   11.7460 O.3       1 NAD301      0.0000 
      5 C5B        12.7070  -21.8730   11.9670 C.3       1 NAD301      0.0000 
      6 C4B        13.3880  -22.7760   10.8840 C.3       1 NAD301      0.0000 
      7 O4B        14.6690  -22.7570   11.0510 O.3       1 NAD301      0.0000 
      8 C3B        12.9340  -24.2330   11.0620 C.3       1 NAD301      0.0000 
      9 O3B        11.9900  -24.5560   10.1430 O.3       1 NAD301      0.0000 
     10 C2B        14.2190  -25.0660   10.8450 C.3       1 NAD301      0.0000 
     11 O2B        14.3510  -25.4250    9.3640 O.3       1 NAD301      0.0000 
     12 C1B        15.1880  -24.3000   11.1930 C.3       1 NAD301      0.0000 
     13 N9A        15.6340  -24.5600   12.5490 N.pl3     1 NAD301      0.0000 
     14 C8A        14.9220  -24.4780   13.6890 C.2       1 NAD301      0.0000 
     15 N7A        15.7290  -24.7980   14.7080 N.2       1 NAD301      0.0000 
     16 C5A        16.9410  -25.0740   14.2060 C.ar      1 NAD301      0.0000 
     17 C6A        18.1170  -25.4500   14.7950 C.ar      1 NAD301      0.0000 
     18 N6A        18.4520  -25.6800   16.1960 N.pl3     1 NAD301      0.0000 
     19 N1A        19.1990  -25.6670   14.0420 N.ar      1 NAD301      0.0000 
     20 C2A        19.1480  -25.5190   12.7000 C.ar      1 NAD301      0.0000 
     21 N3A        17.9890  -25.1480   12.1130 N.ar      1 NAD301      0.0000 
     22 C4A        16.8840  -24.9260   12.8740 C.ar      1 NAD301      0.0000 
     23 O3         10.6270  -19.4120   11.6610 O.3       1 NAD301      0.0000 
     24 PN         10.5150  -18.9380   13.2620 P.3       1 NAD301      0.0000 
     25 O1N        11.8100  -19.2450   13.9920 O.co2     1 NAD301      0.0000 
     26 O2N         9.3900  -19.6710   13.9280 O.co2     1 NAD301      0.0000 
     27 O5D        10.2310  -17.3430   13.3350 O.3       1 NAD301      0.0000 
     28 C5D        10.9780  -16.4920   12.4800 C.3       1 NAD301      0.0000 
     29 C4D        10.2470  -15.1470   12.3030 C.3       1 NAD301      0.0000 
     30 O4D         8.9390  -15.3310   12.3460 O.3       1 NAD301      0.0000 
     31 C3D        10.6030  -14.2220   13.4900 C.3       1 NAD301      0.0000 
     32 O3D        10.6540  -12.9410   13.0950 O.3       1 NAD301      0.0000 
     33 C2D         9.4200  -14.4360   14.4650 C.3       1 NAD301      0.0000 
     34 O2D         9.2340  -13.2270   15.3340 O.3       1 NAD301      0.0000 
     35 C1D         8.3820  -14.5850   13.6790 C.3       1 NAD301      0.0000 
     36 N1N         7.4230  -15.3780   14.3420 N.pl3     1 NAD301      0.0000 
     37 C2N         6.6390  -14.8010   15.3250 C.ar      1 NAD301      0.0000 
     38 C3N         5.6830  -15.5720   16.0070 C.ar      1 NAD301      0.0000 
     39 C7N         4.8350  -14.9240   17.0760 C.2       1 NAD301      0.0000 
     40 O7N         4.6970  -13.7490   17.0850 O.2       1 NAD301      0.0000 
     41 N7N         4.1710  -15.7650   18.1210 N.am      1 NAD301      0.0000 
     42 C4N         5.5290  -16.8970   15.7010 C.ar      1 NAD301      0.0000 
     43 C5N         6.3100  -17.4750   14.7170 C.ar      1 NAD301      0.0000 
     44 C6N         7.2740  -16.6930   14.0330 C.ar      1 NAD301      0.0000 
@<TRIPOS>BOND
     1    1    2 ar   
     2    1    3 ar   
     3    1    4 1    
     4    1   23 1    
     5    4    5 1    
     6    5    6 1    
     7    6    7 1    
     8    6    8 1    
     9    7   12 1    
    10    8    9 1    
    11    8   10 1    
    12   10   11 1    
    13   10   12 1    
    14   12   13 1    
    15   13   14 1    
    16   13   22 1    
    17   14   15 2    
    18   15   16 1    
    19   16   17 ar   
    20   16   22 ar   
    21   17   18 1    
    22   17   19 ar   
    23   19   20 ar   
    24   20   21 ar   
    25   21   22 ar   
    26   23   24 1    
    27   24   25 ar   
    28   24   26 ar   
    29   24   27 1    
    30   27   28 1    
    31   28   29 1    
    32   29   30 1    
    33   29   31 1    
    34   30   35 1    
    35   31   32 1    
    36   31   33 1    
    37   33   34 1    
    38   33   35 1    
    39   35   36 1    
    40   36   37 ar   
    41   36   44 ar   
    42   37   38 ar   
    43   38   39 1    
    44   38   42 ar   
    45   39   40 2    
    46   39   41 am   
    47   42   43 ar   
    48   43   44 ar   
@<TRIPOS>SUBSTRUCTURE
     1 NAD301      1 GROUP   
@<TRIPOS>SET
ATOM$ORANGE STATIC     ATOMS   COLORGROUP SYSTEM 
42 5 5 6 6 8 8 10 10 12 12 14 14 16 16 17 17 20 \
20 22 22 28 28 29 29 31 31 33 33 35 35 37 37 38 38 39 \
39 42 42 43 43 44 44 

