#    Name: 6c8q_2_NAD
#    Modification time : Fri May 22 19:43:19 2020

@<TRIPOS>MOLECULE
6c8q_2_NAD
   44    48     1     0     1
SMALL
NO_CHARGES


@<TRIPOS>ATOM
      1 PA         22.3030  -16.0430   -7.4870 P.3       1 NAD301      0.0000 
      2 O1A        20.9750  -15.5870   -6.9640 O.co2     1 NAD301      0.0000 
      3 O2A        22.8090  -17.1750   -6.6300 O.co2     1 NAD301      0.0000 
      4 O5B        23.3790  -14.7890   -7.4460 O.3       1 NAD301      0.0000 
      5 C5B        22.9750  -13.5560   -7.9840 C.3       1 NAD301      0.0000 
      6 C4B        22.4250  -12.6420   -6.8360 C.3       1 NAD301      0.0000 
      7 O4B        23.2760  -12.6080   -5.8660 O.3       1 NAD301      0.0000 
      8 C3B        22.2800  -11.1990   -7.3410 C.3       1 NAD301      0.0000 
      9 O3B        20.9990  -10.9490   -7.7070 O.3       1 NAD301      0.0000 
     10 C2B        22.6770  -10.3380   -6.1200 C.3       1 NAD301      0.0000 
     11 O2B        21.4380  -10.0950   -5.2570 O.3       1 NAD301      0.0000 
     12 C1B        23.5280  -11.0430   -5.4660 C.3       1 NAD301      0.0000 
     13 N9A        24.8990  -10.6710   -5.7650 N.pl3     1 NAD301      0.0000 
     14 C8A        25.5490  -10.8180   -6.9340 C.2       1 NAD301      0.0000 
     15 N7A        26.7960  -10.3560   -6.7800 N.2       1 NAD301      0.0000 
     16 C5A        26.9260   -9.9270   -5.5180 C.ar      1 NAD301      0.0000 
     17 C6A        27.9810   -9.3710   -4.8470 C.ar      1 NAD301      0.0000 
     18 N6A        29.3350   -9.0580   -5.2920 N.pl3     1 NAD301      0.0000 
     19 N1A        27.8480   -9.0230   -3.5640 N.ar      1 NAD301      0.0000 
     20 C2A        26.6730   -9.2170   -2.9230 C.ar      1 NAD301      0.0000 
     21 N3A        25.6270   -9.7660   -3.5820 N.ar      1 NAD301      0.0000 
     22 C4A        25.7580  -10.1220   -4.8880 C.ar      1 NAD301      0.0000 
     23 O3         22.1440  -16.5370   -9.0450 O.3       1 NAD301      0.0000 
     24 PN         23.4320  -16.8780  -10.0590 P.3       1 NAD301      0.0000 
     25 O1N        24.5750  -15.9140   -9.7980 O.co2     1 NAD301      0.0000 
     26 O2N        22.9950  -16.7470  -11.4850 O.co2     1 NAD301      0.0000 
     27 O5D        23.9280  -18.3950   -9.7840 O.3       1 NAD301      0.0000 
     28 C5D        23.0210  -19.2550   -9.1140 C.3       1 NAD301      0.0000 
     29 C4D        23.0030  -20.6240   -9.8180 C.3       1 NAD301      0.0000 
     30 O4D        22.1530  -20.6280  -10.8280 O.3       1 NAD301      0.0000 
     31 C3D        24.3620  -20.9040  -10.4930 C.3       1 NAD301      0.0000 
     32 O3D        25.2580  -21.3540   -9.6040 O.3       1 NAD301      0.0000 
     33 C2D        23.9570  -22.0110  -11.4990 C.3       1 NAD301      0.0000 
     34 O2D        23.7690  -23.3150  -10.7690 O.3       1 NAD301      0.0000 
     35 C1D        22.8010  -21.5920  -11.9720 C.3       1 NAD301      0.0000 
     36 N1N        23.0040  -20.8800  -13.1780 N.pl3     1 NAD301      0.0000 
     37 C2N        23.4090  -21.5690  -14.3100 C.ar      1 NAD301      0.0000 
     38 C3N        23.6210  -20.8820  -15.5200 C.ar      1 NAD301      0.0000 
     39 C7N        24.0600  -21.6480  -16.7470 C.2       1 NAD301      0.0000 
     40 O7N        24.1090  -22.8300  -16.7150 O.2       1 NAD301      0.0000 
     41 N7N        24.4290  -20.9160  -18.0010 N.am      1 NAD301      0.0000 
     42 C4N        23.4270  -19.5280  -15.5810 C.ar      1 NAD301      0.0000 
     43 C5N        23.0210  -18.8380  -14.4540 C.ar      1 NAD301      0.0000 
     44 C6N        22.8090  -19.5350  -13.2370 C.ar      1 NAD301      0.0000 
@<TRIPOS>BOND
     1    1    2 ar   
     2    1    3 ar   
     3    1    4 1    
     4    1   23 1    
     5    4    5 1    
     6    5    6 1    
     7    6    7 1    
     8    6    8 1    
     9    7   12 1    
    10    8    9 1    
    11    8   10 1    
    12   10   11 1    
    13   10   12 1    
    14   12   13 1    
    15   13   14 1    
    16   13   22 1    
    17   14   15 2    
    18   15   16 1    
    19   16   17 ar   
    20   16   22 ar   
    21   17   18 1    
    22   17   19 ar   
    23   19   20 ar   
    24   20   21 ar   
    25   21   22 ar   
    26   23   24 1    
    27   24   25 ar   
    28   24   26 ar   
    29   24   27 1    
    30   27   28 1    
    31   28   29 1    
    32   29   30 1    
    33   29   31 1    
    34   30   35 1    
    35   31   32 1    
    36   31   33 1    
    37   33   34 1    
    38   33   35 1    
    39   35   36 1    
    40   36   37 ar   
    41   36   44 ar   
    42   37   38 ar   
    43   38   39 1    
    44   38   42 ar   
    45   39   40 2    
    46   39   41 am   
    47   42   43 ar   
    48   43   44 ar   
@<TRIPOS>SUBSTRUCTURE
     1 NAD301      1 GROUP   
@<TRIPOS>SET
ATOM$ORANGE STATIC     ATOMS   COLORGROUP SYSTEM 
42 5 5 6 6 8 8 10 10 12 12 14 14 16 16 17 17 20 \
20 22 22 28 28 29 29 31 31 33 33 35 35 37 37 38 38 39 \
39 42 42 43 43 44 44 

