#    Name: 6c8q_8_NAD_CAVITY_N1_12
#    Modification time : Fri May 22 19:43:53 2020

@<TRIPOS>MOLECULE
6c8q_8_NAD_CAVITY_N1_12
  109     0     7     0     0
SMALL
NO_CHARGES


@<TRIPOS>ATOM
      1 OG         43.5100  -57.9600   25.2500 O.3       1 SER1        0.0000 
      2 OG         42.6300  -56.7500   25.4000 O.3       1 SER1        0.0000 
      3 OG         44.3500  -55.5100   25.3900 O.3       1 SER1        0.0000 
      4 OG         42.6000  -53.0900   25.7000 O.3       1 SER1        0.0000 
      5 OG         45.3100  -58.6300   26.1500 O.3       1 SER1        0.0000 
      6 OG         41.8100  -53.7900   26.7600 O.3       1 SER1        0.0000 
      7 OG         41.8900  -55.7100   27.6600 O.3       1 SER1        0.0000 
      8 OG         41.0200  -54.5000   27.8200 O.3       1 SER1        0.0000 
      9 N          43.4900  -63.3700   23.7500 N.am      2 ALA2        0.0000 
     10 N          41.7900  -59.2000   25.2600 N.am      2 ALA2        0.0000 
     11 N          41.0000  -59.9100   26.3200 N.am      2 ALA2        0.0000 
     12 N          40.1300  -58.7000   26.4700 N.am      2 ALA2        0.0000 
     13 N          40.2100  -60.6200   27.3800 N.am      2 ALA2        0.0000 
     14 O          46.2200  -63.5000   25.7000 O.2       2 ALA2        0.0000 
     15 O          45.4300  -64.2100   26.7600 O.2       2 ALA2        0.0000 
     16 O          48.0200  -64.1700   26.6000 O.2       2 ALA2        0.0000 
     17 O          47.1500  -62.9600   26.7500 O.2       2 ALA2        0.0000 
     18 O          46.3500  -63.6700   27.8100 O.2       2 ALA2        0.0000 
     19 O          45.5600  -64.3800   28.8700 O.2       2 ALA2        0.0000 
     20 N          49.8200  -64.8400   27.5000 N.am      2 ALA2        0.0000 
     21 N          48.9500  -63.6300   27.6500 N.am      2 ALA2        0.0000 
     22 N          47.2800  -63.1300   28.8600 N.am      2 ALA2        0.0000 
     23 N          51.6200  -65.5100   28.4000 N.am      2 ALA2        0.0000 
     24 N          50.7500  -64.3000   28.5500 N.am      2 ALA2        0.0000 
     25 N          49.8700  -63.0900   28.7000 N.am      2 ALA2        0.0000 
     26 N          48.2000  -62.5900   29.9100 N.am      2 ALA2        0.0000 
     27 OD1        47.0600  -61.0500   25.8400 O.co2     3 ASP3        0.0000 
     28 OD1        44.6900  -63.1700   29.0200 O.co2     3 ASP3        0.0000 
     29 OD1        43.8100  -61.9600   29.1800 O.co2     3 ASP3        0.0000 
     30 OD1        48.8600  -61.7200   26.7400 O.co2     3 ASP3        0.0000 
     31 OD1        48.0700  -62.4200   27.8000 O.co2     3 ASP3        0.0000 
     32 OD1        47.2000  -61.2100   27.9500 O.co2     3 ASP3        0.0000 
     33 OD1        46.4000  -61.9200   29.0100 O.co2     3 ASP3        0.0000 
     34 OD1        45.6100  -62.6300   30.0700 O.co2     3 ASP3        0.0000 
     35 OD1        50.6600  -62.3900   27.6400 O.co2     3 ASP3        0.0000 
     36 OD1        47.3300  -61.3800   30.0600 O.co2     3 ASP3        0.0000 
     37 NZ         39.2500  -57.4900   26.6200 N.4       4 LYS4        0.0000 
     38 NZ         41.0500  -58.1600   27.5200 N.4       4 LYS4        0.0000 
     39 NZ         40.1800  -56.9600   27.6700 N.4       4 LYS4        0.0000 
     40 NZ         41.1300  -60.0800   28.4300 N.4       4 LYS4        0.0000 
     41 NZ         41.1000  -56.4200   28.7200 N.4       4 LYS4        0.0000 
     42 NZ         42.0600  -59.5400   29.4800 N.4       4 LYS4        0.0000 
     43 CZ         43.3300  -59.5400   21.9400 C.ar      5 PHE5        0.0000 
     44 CZ         43.3800  -57.7900   23.1400 C.ar      5 PHE5        0.0000 
     45 CZ         45.2900  -64.0400   24.6500 C.ar      5 PHE5        0.0000 
     46 CZ         41.0800  -61.8300   27.2300 C.ar      5 PHE5        0.0000 
     47 CZ         45.0900  -56.5400   23.1300 C.ar      5 PHE5        0.0000 
     48 CZ         44.3000  -57.2500   24.1900 C.ar      5 PHE5        0.0000 
     49 CZ         43.4300  -56.0400   24.3400 C.ar      5 PHE5        0.0000 
     50 CZ         42.5500  -54.8300   24.4900 C.ar      5 PHE5        0.0000 
     51 CZ         41.6800  -53.6300   24.6500 C.ar      5 PHE5        0.0000 
     52 CZ         42.7200  -58.6700   26.3100 C.ar      5 PHE5        0.0000 
     53 CZ         41.8400  -57.4600   26.4600 C.ar      5 PHE5        0.0000 
     54 CZ         42.0100  -61.2900   28.2800 C.ar      5 PHE5        0.0000 
     55 CZ         43.3900  -52.3800   24.6400 C.ar      5 PHE5        0.0000 
     56 CZ         43.4800  -54.3000   25.5400 C.ar      5 PHE5        0.0000 
     57 CZ         48.8100  -63.4600   25.5400 C.ar      5 PHE5        0.0000 
     58 CZ         42.6900  -55.0000   26.6000 C.ar      5 PHE5        0.0000 
     59 CZ         44.5200  -59.3400   27.2100 C.ar      5 PHE5        0.0000 
     60 CZ         43.7300  -60.0400   28.2700 C.ar      5 PHE5        0.0000 
     61 CZ         42.8500  -58.8300   28.4200 C.ar      5 PHE5        0.0000 
     62 CZ         41.9800  -57.6300   28.5700 C.ar      5 PHE5        0.0000 
     63 CZ         42.9400  -60.7500   29.3300 C.ar      5 PHE5        0.0000 
     64 CZ         51.4000  -63.4300   25.3800 C.ar      5 PHE5        0.0000 
     65 CZ         50.6100  -64.1300   26.4400 C.ar      5 PHE5        0.0000 
     66 CZ         49.7400  -62.9300   26.5900 C.ar      5 PHE5        0.0000 
     67 CZ         44.6500  -59.5000   29.3200 C.ar      5 PHE5        0.0000 
     68 CZ         52.3300  -62.8900   26.4300 C.ar      5 PHE5        0.0000 
     69 CA         42.7000  -64.0700   24.8100 C.3       6 GLY6        0.0000 
     70 CA         41.8300  -62.8700   24.9600 C.3       6 GLY6        0.0000 
     71 CA         42.5800  -58.5000   24.2000 C.3       6 GLY6        0.0000 
     72 CA         41.7100  -57.2900   24.3500 C.3       6 GLY6        0.0000 
     73 CA         40.8300  -56.0800   24.5000 C.3       6 GLY6        0.0000 
     74 CA         40.9200  -58.0000   25.4100 C.3       6 GLY6        0.0000 
     75 CA         40.0400  -56.7900   25.5600 C.3       6 GLY6        0.0000 
     76 CA         45.9700  -57.7500   22.9800 C.3       6 GLY6        0.0000 
     77 CA         41.7600  -55.5400   25.5500 C.3       6 GLY6        0.0000 
     78 CA         40.8800  -54.3300   25.7100 C.3       6 GLY6        0.0000 
     79 CA         40.0900  -55.0400   26.7700 C.3       6 GLY6        0.0000 
     80 CA         39.3000  -55.7500   27.8300 C.3       6 GLY6        0.0000 
     81 CA         45.3900  -60.5400   27.0600 C.3       6 GLY6        0.0000 
     82 CA         43.5300  -52.5500   26.7500 C.3       6 GLY6        0.0000 
     83 CA         45.5300  -60.7100   29.1700 C.3       6 GLY6        0.0000 
     84 CA         46.4900  -63.8400   29.9200 C.3       6 GLY6        0.0000 
     85 CA         44.7400  -61.4200   30.2300 C.3       6 GLY6        0.0000 
     86 CA         49.0800  -63.8000   29.7600 C.3       6 GLY6        0.0000 
     87 CA         51.6700  -63.7600   29.6000 C.3       6 GLY6        0.0000 
     88 DU         44.4200  -62.8300   24.8000 H         7 CUB7        0.0000 
     89 DU         42.6700  -60.4100   25.1100 H         7 CUB7        0.0000 
     90 DU         43.6300  -63.5400   25.8600 H         7 CUB7        0.0000 
     91 DU         42.7500  -62.3300   26.0100 H         7 CUB7        0.0000 
     92 DU         41.8800  -61.1200   26.1700 H         7 CUB7        0.0000 
     93 DU         44.3900  -59.1700   25.1000 H         7 CUB7        0.0000 
     94 DU         45.3400  -62.2900   25.8500 H         7 CUB7        0.0000 
     95 DU         43.5900  -59.8700   26.1600 H         7 CUB7        0.0000 
     96 DU         40.9700  -56.2500   26.6100 H         7 CUB7        0.0000 
     97 DU         44.5500  -63.0000   26.9100 H         7 CUB7        0.0000 
     98 DU         43.6800  -61.7900   27.0600 H         7 CUB7        0.0000 
     99 DU         42.8000  -60.5800   27.2200 H         7 CUB7        0.0000 
    100 DU         41.9300  -59.3700   27.3700 H         7 CUB7        0.0000 
    101 DU         47.9400  -62.2500   25.6900 H         7 CUB7        0.0000 
    102 DU         46.1900  -59.8400   26.0000 H         7 CUB7        0.0000 
    103 DU         46.2700  -61.7500   26.9000 H         7 CUB7        0.0000 
    104 DU         45.4800  -62.4600   27.9600 H         7 CUB7        0.0000 
    105 DU         44.6000  -61.2500   28.1200 H         7 CUB7        0.0000 
    106 DU         52.4100  -64.8000   27.3400 H         7 CUB7        0.0000 
    107 DU         51.5400  -63.6000   27.4900 H         7 CUB7        0.0000 
    108 DU         53.4200  -66.1800   29.2900 H         7 CUB7        0.0000 
    109 DU         52.5500  -64.9700   29.4500 H         7 CUB7        0.0000 
@<TRIPOS>BOND
@<TRIPOS>SUBSTRUCTURE
     1 SER1        1 GROUP   
     2 ALA2        9 GROUP   
     3 ASP3       27 GROUP   
     4 LYS4       37 GROUP   
     5 PHE5       43 GROUP   
     6 GLY6       69 GROUP   
     7 CUB7       88 GROUP   
@<TRIPOS>SET

