#    Name: 6c8q_7_NAD
#    Modification time : Fri May 22 19:43:46 2020

@<TRIPOS>MOLECULE
6c8q_7_NAD
   44    48     1     0     1
SMALL
NO_CHARGES


@<TRIPOS>ATOM
      1 PA         -9.5880  -14.8260   53.5290 P.3       1 NAD301      0.0000 
      2 O1A        -9.4590  -13.9320   52.3320 O.co2     1 NAD301      0.0000 
      3 O2A        -8.3040  -15.5970   53.7110 O.co2     1 NAD301      0.0000 
      4 O5B       -10.8530  -15.8670   53.3200 O.3       1 NAD301      0.0000 
      5 C5B       -12.1220  -15.3040   53.1050 C.3       1 NAD301      0.0000 
      6 C4B       -12.3970  -15.2500   51.5640 C.3       1 NAD301      0.0000 
      7 O4B       -12.2850  -16.4410   51.0790 O.3       1 NAD301      0.0000 
      8 C3B       -13.8400  -14.7970   51.2900 C.3       1 NAD301      0.0000 
      9 O3B       -13.8800  -13.4810   50.9630 O.3       1 NAD301      0.0000 
     10 C2B       -14.2950  -15.6670   50.0940 C.3       1 NAD301      0.0000 
     11 O2B       -13.9890  -14.9500   48.7760 O.3       1 NAD301      0.0000 
     12 C1B       -13.6130  -16.7540   50.1780 C.3       1 NAD301      0.0000 
     13 N9A       -14.3950  -17.8210   50.7730 N.pl3     1 NAD301      0.0000 
     14 C8A       -15.0270  -17.8160   51.9610 C.2       1 NAD301      0.0000 
     15 N7A       -15.6280  -19.0010   52.1190 N.2       1 NAD301      0.0000 
     16 C5A       -15.3720  -19.7450   51.0350 C.ar      1 NAD301      0.0000 
     17 C6A       -15.7380  -21.0170   50.6840 C.ar      1 NAD301      0.0000 
     18 N6A       -16.5460  -22.0080   51.3880 N.pl3     1 NAD301      0.0000 
     19 N1A       -15.3370  -21.5290   49.5180 N.ar      1 NAD301      0.0000 
     20 C2A       -14.5710  -20.8000   48.6770 C.ar      1 NAD301      0.0000 
     21 N3A       -14.2060  -19.5440   49.0180 N.ar      1 NAD301      0.0000 
     22 C4A       -14.6100  -19.0180   50.2030 C.ar      1 NAD301      0.0000 
     23 O3         -9.9310  -13.9330   54.8630 O.3       1 NAD301      0.0000 
     24 PN        -10.4080  -14.5990   56.3240 P.3       1 NAD301      0.0000 
     25 O1N       -10.6050  -16.0980   56.1850 O.co2     1 NAD301      0.0000 
     26 O2N       -11.6940  -13.9770   56.7790 O.co2     1 NAD301      0.0000 
     27 O5D        -9.2580  -14.3070   57.4240 O.3       1 NAD301      0.0000 
     28 C5D        -8.0120  -14.9670   57.2790 C.3       1 NAD301      0.0000 
     29 C4D        -7.5460  -15.3710   58.6880 C.3       1 NAD301      0.0000 
     30 O4D        -6.2300  -15.4940   58.7180 O.3       1 NAD301      0.0000 
     31 C3D        -7.8960  -14.2170   59.6600 C.3       1 NAD301      0.0000 
     32 O3D        -8.2380  -14.7000   60.8650 O.3       1 NAD301      0.0000 
     33 C2D        -6.5580  -13.4450   59.7520 C.3       1 NAD301      0.0000 
     34 O2D        -6.5170  -12.5830   60.9860 O.3       1 NAD301      0.0000 
     35 C1D        -5.7160  -14.4430   59.8460 C.3       1 NAD301      0.0000 
     36 N1N        -4.3920  -14.0210   59.6100 N.pl3     1 NAD301      0.0000 
     37 C2N        -3.4760  -14.1180   60.6410 C.ar      1 NAD301      0.0000 
     38 C3N        -2.1470  -13.7090   60.4480 C.ar      1 NAD301      0.0000 
     39 C7N        -1.1650  -13.8230   61.5900 C.2       1 NAD301      0.0000 
     40 O7N        -1.0600  -12.9320   62.3620 O.2       1 NAD301      0.0000 
     41 N7N        -0.3320  -15.0580   61.7480 N.am      1 NAD301      0.0000 
     42 C4N        -1.7550  -13.2070   59.2370 C.ar      1 NAD301      0.0000 
     43 C5N        -2.6720  -13.1070   58.2050 C.ar      1 NAD301      0.0000 
     44 C6N        -4.0140  -13.5240   58.4030 C.ar      1 NAD301      0.0000 
@<TRIPOS>BOND
     1    1    2 ar   
     2    1    3 ar   
     3    1    4 1    
     4    1   23 1    
     5    4    5 1    
     6    5    6 1    
     7    6    7 1    
     8    6    8 1    
     9    7   12 1    
    10    8    9 1    
    11    8   10 1    
    12   10   11 1    
    13   10   12 1    
    14   12   13 1    
    15   13   14 1    
    16   13   22 1    
    17   14   15 2    
    18   15   16 1    
    19   16   17 ar   
    20   16   22 ar   
    21   17   18 1    
    22   17   19 ar   
    23   19   20 ar   
    24   20   21 ar   
    25   21   22 ar   
    26   23   24 1    
    27   24   25 ar   
    28   24   26 ar   
    29   24   27 1    
    30   27   28 1    
    31   28   29 1    
    32   29   30 1    
    33   29   31 1    
    34   30   35 1    
    35   31   32 1    
    36   31   33 1    
    37   33   34 1    
    38   33   35 1    
    39   35   36 1    
    40   36   37 ar   
    41   36   44 ar   
    42   37   38 ar   
    43   38   39 1    
    44   38   42 ar   
    45   39   40 2    
    46   39   41 am   
    47   42   43 ar   
    48   43   44 ar   
@<TRIPOS>SUBSTRUCTURE
     1 NAD301      1 GROUP   
@<TRIPOS>SET
ATOM$ORANGE STATIC     ATOMS   COLORGROUP SYSTEM 
42 5 5 6 6 8 8 10 10 12 12 14 14 16 16 17 17 20 \
20 22 22 28 28 29 29 31 31 33 33 35 35 37 37 38 38 39 \
39 42 42 43 43 44 44 

