#    Name: 6c8q_8_NAD
#    Modification time : Fri May 22 19:43:51 2020

@<TRIPOS>MOLECULE
6c8q_8_NAD
   44    48     1     0     1
SMALL
NO_CHARGES


@<TRIPOS>ATOM
      1 PA         45.9680  -62.2780   28.9570 P.3       1 NAD301      0.0000 
      2 O1A        44.7710  -62.9830   29.5190 O.co2     1 NAD301      0.0000 
      3 O2A        46.8240  -61.7770   30.0930 O.co2     1 NAD301      0.0000 
      4 O5B        45.4750  -60.9990   28.0300 O.3       1 NAD301      0.0000 
      5 C5B        44.4820  -61.2140   27.0570 C.3       1 NAD301      0.0000 
      6 C4B        43.0610  -60.9470   27.6650 C.3       1 NAD301      0.0000 
      7 O4B        43.0250  -59.7670   28.1910 O.3       1 NAD301      0.0000 
      8 C3B        42.0010  -60.9540   26.5530 C.3       1 NAD301      0.0000 
      9 O3B        41.4130  -62.1700   26.4460 O.3       1 NAD301      0.0000 
     10 C2B        40.9840  -59.8840   27.0150 C.3       1 NAD301      0.0000 
     11 O2B        39.9740  -60.5190   27.9710 O.3       1 NAD301      0.0000 
     12 C1B        41.6820  -59.0100   27.6460 C.3       1 NAD301      0.0000 
     13 N9A        42.0490  -57.8910   26.7980 N.pl3     1 NAD301      0.0000 
     14 C8A        42.8090  -57.9160   25.6870 C.2       1 NAD301      0.0000 
     15 N7A        42.9040  -56.6690   25.2150 N.2       1 NAD301      0.0000 
     16 C5A        42.2110  -55.8660   26.0310 C.ar      1 NAD301      0.0000 
     17 C6A        41.9860  -54.5180   26.0090 C.ar      1 NAD301      0.0000 
     18 N6A        42.4360  -53.4920   25.0730 N.pl3     1 NAD301      0.0000 
     19 N1A        41.2420  -53.9530   26.9630 N.ar      1 NAD301      0.0000 
     20 C2A        40.7070  -54.7020   27.9520 C.ar      1 NAD301      0.0000 
     21 N3A        40.9260  -56.0350   27.9780 N.ar      1 NAD301      0.0000 
     22 C4A        41.6830  -56.6160   27.0100 C.ar      1 NAD301      0.0000 
     23 O3         46.8210  -63.3270   28.0230 O.3       1 NAD301      0.0000 
     24 PN         47.9090  -62.8840   26.8290 P.3       1 NAD301      0.0000 
     25 O1N        47.8770  -61.3800   26.6270 O.co2     1 NAD301      0.0000 
     26 O2N        47.5330  -63.5600   25.5460 O.co2     1 NAD301      0.0000 
     27 O5D        49.4110  -63.3310   27.2520 O.3       1 NAD301      0.0000 
     28 C5D        49.8870  -62.9160   28.5230 C.3       1 NAD301      0.0000 
     29 C4D        51.1870  -63.6640   28.8860 C.3       1 NAD301      0.0000 
     30 O4D        50.9930  -64.9710   28.9010 O.3       1 NAD301      0.0000 
     31 C3D        52.2720  -63.4060   27.8110 C.3       1 NAD301      0.0000 
     32 O3D        53.4380  -63.1220   28.4100 O.3       1 NAD301      0.0000 
     33 C2D        52.3810  -64.7580   27.0580 C.3       1 NAD301      0.0000 
     34 O2D        53.7490  -64.8870   26.4420 O.3       1 NAD301      0.0000 
     35 C1D        52.2090  -65.6150   28.0360 C.3       1 NAD301      0.0000 
     36 N1N        51.8520  -66.9030   27.5750 N.pl3     1 NAD301      0.0000 
     37 C2N        52.7990  -67.7190   26.9770 C.ar      1 NAD301      0.0000 
     38 C3N        52.4410  -69.0030   26.5270 C.ar      1 NAD301      0.0000 
     39 C7N        53.4760  -69.8870   25.8700 C.2       1 NAD301      0.0000 
     40 O7N        53.3310  -71.0620   25.8650 O.2       1 NAD301      0.0000 
     41 N7N        54.6820  -69.2760   25.2260 N.am      1 NAD301      0.0000 
     42 C4N        51.1570  -69.4530   26.6840 C.ar      1 NAD301      0.0000 
     43 C5N        50.2140  -68.6420   27.2820 C.ar      1 NAD301      0.0000 
     44 C6N        50.5800  -67.3490   27.7340 C.ar      1 NAD301      0.0000 
@<TRIPOS>BOND
     1    1    2 ar   
     2    1    3 ar   
     3    1    4 1    
     4    1   23 1    
     5    4    5 1    
     6    5    6 1    
     7    6    7 1    
     8    6    8 1    
     9    7   12 1    
    10    8    9 1    
    11    8   10 1    
    12   10   11 1    
    13   10   12 1    
    14   12   13 1    
    15   13   14 1    
    16   13   22 1    
    17   14   15 2    
    18   15   16 1    
    19   16   17 ar   
    20   16   22 ar   
    21   17   18 1    
    22   17   19 ar   
    23   19   20 ar   
    24   20   21 ar   
    25   21   22 ar   
    26   23   24 1    
    27   24   25 ar   
    28   24   26 ar   
    29   24   27 1    
    30   27   28 1    
    31   28   29 1    
    32   29   30 1    
    33   29   31 1    
    34   30   35 1    
    35   31   32 1    
    36   31   33 1    
    37   33   34 1    
    38   33   35 1    
    39   35   36 1    
    40   36   37 ar   
    41   36   44 ar   
    42   37   38 ar   
    43   38   39 1    
    44   38   42 ar   
    45   39   40 2    
    46   39   41 am   
    47   42   43 ar   
    48   43   44 ar   
@<TRIPOS>SUBSTRUCTURE
     1 NAD301      1 GROUP   
@<TRIPOS>SET
ATOM$ORANGE STATIC     ATOMS   COLORGROUP SYSTEM 
42 5 5 6 6 8 8 10 10 12 12 14 14 16 16 17 17 20 \
20 22 22 28 28 29 29 31 31 33 33 35 35 37 37 38 38 39 \
39 42 42 43 43 44 44 

