#    Name: 6c8q_3_NAD
#    Modification time : Fri May 22 19:43:28 2020

@<TRIPOS>MOLECULE
6c8q_3_NAD
   44    48     1     0     1
SMALL
NO_CHARGES


@<TRIPOS>ATOM
      1 PA          3.6120  -14.7530   36.8210 P.3       1 NAD301      0.0000 
      2 O1A         3.6780  -13.9030   38.0530 O.co2     1 NAD301      0.0000 
      3 O2A         2.2060  -15.2670   36.6440 O.co2     1 NAD301      0.0000 
      4 O5B         4.6490  -16.0310   36.9700 O.3       1 NAD301      0.0000 
      5 C5B         5.9780  -15.7650   37.3390 C.3       1 NAD301      0.0000 
      6 C4B         6.1390  -15.9360   38.8890 C.3       1 NAD301      0.0000 
      7 O4B         5.8060  -17.1360   39.2320 O.3       1 NAD301      0.0000 
      8 C3B         7.6140  -15.7600   39.2770 C.3       1 NAD301      0.0000 
      9 O3B         7.8460  -14.5050   39.7330 O.3       1 NAD301      0.0000 
     10 C2B         7.8320  -16.8040   40.3980 C.3       1 NAD301      0.0000 
     11 O2B         7.5300  -16.1730   41.7580 O.3       1 NAD301      0.0000 
     12 C1B         6.9990  -17.7530   40.1630 C.3       1 NAD301      0.0000 
     13 N9A         7.6410  -18.8570   39.4770 N.pl3     1 NAD301      0.0000 
     14 C8A         8.2220  -18.8200   38.2650 C.2       1 NAD301      0.0000 
     15 N7A         8.6910  -20.0400   37.9890 N.2       1 NAD301      0.0000 
     16 C5A         8.4020  -20.8390   39.0230 C.ar      1 NAD301      0.0000 
     17 C6A         8.6530  -22.1650   39.2470 C.ar      1 NAD301      0.0000 
     18 N6A         9.3300  -23.1570   38.4180 N.pl3     1 NAD301      0.0000 
     19 N1A         8.2490  -22.7340   40.3860 N.ar      1 NAD301      0.0000 
     20 C2A         7.5930  -22.0110   41.3220 C.ar      1 NAD301      0.0000 
     21 N3A         7.3420  -20.7000   41.1030 N.ar      1 NAD301      0.0000 
     22 C4A         7.7500  -20.1130   39.9460 C.ar      1 NAD301      0.0000 
     23 O3          4.0670  -13.8630   35.5170 O.3       1 NAD301      0.0000 
     24 PN          4.3160  -14.5040   33.9920 P.3       1 NAD301      0.0000 
     25 O1N         4.5650  -15.9970   34.0890 O.co2     1 NAD301      0.0000 
     26 O2N         5.4990  -13.8440   33.3520 O.co2     1 NAD301      0.0000 
     27 O5D         3.0140  -14.2510   33.0670 O.3       1 NAD301      0.0000 
     28 C5D         1.7300  -14.5000   33.6080 C.3       1 NAD301      0.0000 
     29 C4D         0.7050  -13.9150   32.6240 C.3       1 NAD301      0.0000 
     30 O4D         0.9780  -12.6430   32.4010 O.3       1 NAD301      0.0000 
     31 C3D         0.8830  -14.5930   31.2490 C.3       1 NAD301      0.0000 
     32 O3D         0.1440  -15.7070   31.1640 O.3       1 NAD301      0.0000 
     33 C2D         0.3680  -13.4990   30.2800 C.3       1 NAD301      0.0000 
     34 O2D        -1.1370  -13.4860   30.2640 O.3       1 NAD301      0.0000 
     35 C1D         0.8310  -12.3830   30.7990 C.3       1 NAD301      0.0000 
     36 N1N         2.0780  -12.0850   30.2030 N.pl3     1 NAD301      0.0000 
     37 C2N         2.1140  -11.7960   28.8500 C.ar      1 NAD301      0.0000 
     38 C3N         3.3360  -11.5010   28.2220 C.ar      1 NAD301      0.0000 
     39 C7N         3.3520  -11.1860   26.7440 C.2       1 NAD301      0.0000 
     40 O7N         2.3390  -10.9360   26.1850 O.2       1 NAD301      0.0000 
     41 N7N         4.6440  -11.1910   25.9860 N.am      1 NAD301      0.0000 
     42 C4N         4.4980  -11.5000   28.9460 C.ar      1 NAD301      0.0000 
     43 C5N         4.4660  -11.7860   30.2980 C.ar      1 NAD301      0.0000 
     44 C6N         3.2300  -12.0820   30.9260 C.ar      1 NAD301      0.0000 
@<TRIPOS>BOND
     1    1    2 ar   
     2    1    3 ar   
     3    1    4 1    
     4    1   23 1    
     5    4    5 1    
     6    5    6 1    
     7    6    7 1    
     8    6    8 1    
     9    7   12 1    
    10    8    9 1    
    11    8   10 1    
    12   10   11 1    
    13   10   12 1    
    14   12   13 1    
    15   13   14 1    
    16   13   22 1    
    17   14   15 2    
    18   15   16 1    
    19   16   17 ar   
    20   16   22 ar   
    21   17   18 1    
    22   17   19 ar   
    23   19   20 ar   
    24   20   21 ar   
    25   21   22 ar   
    26   23   24 1    
    27   24   25 ar   
    28   24   26 ar   
    29   24   27 1    
    30   27   28 1    
    31   28   29 1    
    32   29   30 1    
    33   29   31 1    
    34   30   35 1    
    35   31   32 1    
    36   31   33 1    
    37   33   34 1    
    38   33   35 1    
    39   35   36 1    
    40   36   37 ar   
    41   36   44 ar   
    42   37   38 ar   
    43   38   39 1    
    44   38   42 ar   
    45   39   40 2    
    46   39   41 am   
    47   42   43 ar   
    48   43   44 ar   
@<TRIPOS>SUBSTRUCTURE
     1 NAD301      1 GROUP   
@<TRIPOS>SET
ATOM$ORANGE STATIC     ATOMS   COLORGROUP SYSTEM 
42 5 5 6 6 8 8 10 10 12 12 14 14 16 16 17 17 20 \
20 22 22 28 28 29 29 31 31 33 33 35 35 37 37 38 38 39 \
39 42 42 43 43 44 44 

