#    Name: 6c8q_5_NAD
#    Modification time : Fri May 22 19:43:35 2020

@<TRIPOS>MOLECULE
6c8q_5_NAD
   36    39     1     0     1
SMALL
NO_CHARGES


@<TRIPOS>ATOM
      1 PA         38.6240  -62.2750   48.6960 P.3       1 NAD301      0.0000 
      2 O1A        39.2240  -63.2730   47.7540 O.co2     1 NAD301      0.0000 
      3 O2A        37.8570  -61.2400   47.9150 O.co2     1 NAD301      0.0000 
      4 O5B        39.8260  -61.5500   49.5660 O.3       1 NAD301      0.0000 
      5 C5B        40.6080  -62.3810   50.3830 C.3       1 NAD301      0.0000 
      6 C4B        42.1120  -62.2690   49.9620 C.3       1 NAD301      0.0000 
      7 O4B        42.4650  -61.0310   49.9610 O.3       1 NAD301      0.0000 
      8 C3B        42.9920  -62.9540   51.0150 C.3       1 NAD301      0.0000 
      9 O3B        43.3100  -64.2090   50.6120 O.3       1 NAD301      0.0000 
     10 C2B        44.2670  -62.0820   51.1050 C.3       1 NAD301      0.0000 
     11 O2B        45.4030  -62.7470   50.3270 O.3       1 NAD301      0.0000 
     12 C1B        43.9800  -60.9540   50.5660 C.3       1 NAD301      0.0000 
     13 N9A        44.0390  -59.8960   51.5460 N.pl3     1 NAD301      0.0000 
     14 C8A        43.3470  -59.8150   52.6960 C.2       1 NAD301      0.0000 
     15 N7A        43.6950  -58.6720   53.3010 N.2       1 NAD301      0.0000 
     16 C5A        44.5950  -58.0490   52.5280 C.ar      1 NAD301      0.0000 
     17 C6A        45.2670  -56.8670   52.6700 C.ar      1 NAD301      0.0000 
     18 N6A        45.2250  -55.8690   53.7340 N.pl3     1 NAD301      0.0000 
     19 N1A        46.1270  -56.4740   51.7270 N.ar      1 NAD301      0.0000 
     20 C2A        46.3460  -57.2310   50.6300 C.ar      1 NAD301      0.0000 
     21 N3A        45.6850  -58.4000   50.4840 N.ar      1 NAD301      0.0000 
     22 C4A        44.8080  -58.8030   51.4410 C.ar      1 NAD301      0.0000 
     23 O3         37.6340  -63.0510   49.7510 O.3       1 NAD301      0.0000 
     24 PN         36.8580  -62.3170   51.0390 P.3       1 NAD301      0.0000 
     25 O1N        37.3660  -60.8970   51.2100 O.co2     1 NAD301      0.0000 
     26 O2N        37.1310  -63.1000   52.2870 O.co2     1 NAD301      0.0000 
     27 O5D        35.2640  -62.2870   50.7480 O.3       1 NAD301      0.0000 
     28 C5D        34.8560  -61.7930   49.4830 C.3       1 NAD301      0.0000 
     29 C4D        33.5200  -62.4350   49.0640 C.3       1 NAD301      0.0000 
     30 O4D        33.0380  -63.1920   50.0370 O.3       1 NAD301      0.0000 
     31 C3D        32.4880  -61.3040   48.8630 C.3       1 NAD301      0.0000 
     32 O3D        31.5380  -61.6790   47.9920 O.3       1 NAD301      0.0000 
     33 C2D        31.8930  -61.1830   50.2850 C.3       1 NAD301      0.0000 
     34 O2D        30.5850  -60.4520   50.2290 O.3       1 NAD301      0.0000 
     35 C1D        31.7070  -62.4410   50.5990 C.3       1 NAD301      0.0000 
     36 N1N        31.5890  -62.5970   51.9970 N.pl3     1 NAD301      0.0000 
@<TRIPOS>BOND
     1    1    2 ar   
     2    1    3 ar   
     3    1    4 1    
     4    1   23 1    
     5    4    5 1    
     6    5    6 1    
     7    6    7 1    
     8    6    8 1    
     9    7   12 1    
    10    8    9 1    
    11    8   10 1    
    12   10   11 1    
    13   10   12 1    
    14   12   13 1    
    15   13   14 1    
    16   13   22 1    
    17   14   15 2    
    18   15   16 1    
    19   16   17 ar   
    20   16   22 ar   
    21   17   18 1    
    22   17   19 ar   
    23   19   20 ar   
    24   20   21 ar   
    25   21   22 ar   
    26   23   24 1    
    27   24   25 ar   
    28   24   26 ar   
    29   24   27 1    
    30   27   28 1    
    31   28   29 1    
    32   29   30 1    
    33   29   31 1    
    34   30   35 1    
    35   31   32 1    
    36   31   33 1    
    37   33   34 1    
    38   33   35 1    
    39   35   36 1    
@<TRIPOS>SUBSTRUCTURE
     1 NAD301      1 GROUP   
@<TRIPOS>SET
ATOM$ORANGE STATIC     ATOMS   COLORGROUP SYSTEM 
30 5 5 6 6 8 8 10 10 12 12 14 14 16 16 17 17 20 \
20 22 22 28 28 29 29 31 31 33 33 35 35 

