#    Name: 6ig2_1_CTP
#    Modification time : Fri May 22 19:25:58 2020

@<TRIPOS>MOLECULE
6ig2_1_CTP
   29    30     1     0     1
SMALL
NO_CHARGES


@<TRIPOS>ATOM
      1 N1          8.6740   57.9910   15.2750 N.am      1 CTP401      0.0000 
      2 C2          8.7570   58.8190   14.1720 C.2       1 CTP401      0.0000 
      3 N3          9.7630   59.7680   14.0980 N.2       1 CTP401      0.0000 
      4 C4         10.4810   60.1050   15.2280 C.2       1 CTP401      0.0000 
      5 C5         10.2020   59.4440   16.4150 C.2       1 CTP401      0.0000 
      6 C6          9.4580   58.2720   16.3600 C.2       1 CTP401      0.0000 
      7 O2          7.9370   58.7120   13.2590 O.2       1 CTP401      0.0000 
      8 N4         11.4260   61.0420   15.1870 N.pl3     1 CTP401      0.0000 
      9 C1'         7.4940   57.1120   15.4420 C.3       1 CTP401      0.0000 
     10 C2'         7.8410   55.6530   15.1790 C.3       1 CTP401      0.0000 
     11 O2'         7.2550   55.2180   13.9740 O.3       1 CTP401      0.0000 
     12 C3'         7.2590   54.8800   16.3460 C.3       1 CTP401      0.0000 
     13 C4'         6.8580   55.9280   17.3710 C.3       1 CTP401      0.0000 
     14 O4'         7.0140   57.2010   16.7720 O.3       1 CTP401      0.0000 
     15 O3'         6.1230   54.1530   15.9380 O.3       1 CTP401      0.0000 
     16 C5'         7.7460   55.8580   18.6060 C.3       1 CTP401      0.0000 
     17 O5'         9.0790   55.9910   18.1670 O.3       1 CTP401      0.0000 
     18 PA         10.3250   55.3990   18.9910 P.3       1 CTP401      0.0000 
     19 O1A        11.4850   56.3620   18.8850 O.co2     1 CTP401      0.0000 
     20 O2A        10.7070   54.0220   18.4990 O.co2     1 CTP401      0.0000 
     21 O3A         9.7830   55.3490   20.5060 O.3       1 CTP401      0.0000 
     22 PB         10.5640   54.4690   21.6020 P.3       1 CTP401      0.0000 
     23 O1B         9.9780   53.0760   21.6160 O.co2     1 CTP401      0.0000 
     24 O2B        10.4790   55.1190   22.9630 O.co2     1 CTP401      0.0000 
     25 O3B        12.0800   54.4290   21.0540 O.3       1 CTP401      0.0000 
     26 PG         13.1330   53.3200   21.5650 P.3       1 CTP401      0.0000 
     27 O1G        13.7540   53.7940   22.8580 O.co2     1 CTP401      0.0000 
     28 O2G        14.2140   53.1300   20.5260 O.co2     1 CTP401      0.0000 
     29 O3G        12.4150   52.0090   21.7900 O.co2     1 CTP401      0.0000 
@<TRIPOS>BOND
     1    1    2 am   
     2    1    6 1    
     3    1    9 1    
     4    2    3 1    
     5    2    7 2    
     6    3    4 2    
     7    4    5 1    
     8    4    8 1    
     9    5    6 2    
    10    9   10 1    
    11    9   14 1    
    12   10   11 1    
    13   10   12 1    
    14   12   13 1    
    15   12   15 1    
    16   13   14 1    
    17   13   16 1    
    18   16   17 1    
    19   17   18 1    
    20   18   19 ar   
    21   18   20 ar   
    22   18   21 1    
    23   21   22 1    
    24   22   23 ar   
    25   22   24 ar   
    26   22   25 1    
    27   25   26 1    
    28   26   27 ar   
    29   26   28 ar   
    30   26   29 ar   
@<TRIPOS>SUBSTRUCTURE
     1 CTP401      1 GROUP   
@<TRIPOS>SET
ATOM$ORANGE STATIC     ATOMS   COLORGROUP SYSTEM 
18 2 2 4 4 5 5 6 6 9 9 10 10 12 12 13 13 16 \
16 

