#    Name: 5xip_5_ANP
#    Modification time : Fri May 22 19:17:29 2020

@<TRIPOS>MOLECULE
5xip_5_ANP
   31    33     1     0     1
SMALL
NO_CHARGES


@<TRIPOS>ATOM
      1 PG        -77.7530  165.5470  -32.6990 P.3       1 ANP1001     0.0000 
      2 O1G       -77.5940  166.5520  -33.8690 O.co2     1 ANP1001     0.0000 
      3 O2G       -76.9150  166.1090  -31.5300 O.co2     1 ANP1001     0.0000 
      4 O3G       -77.3450  164.2070  -33.0500 O.co2     1 ANP1001     0.0000 
      5 PB        -80.6250  166.4420  -33.0180 P.3       1 ANP1001     0.0000 
      6 O1B       -80.1380  167.1790  -34.2610 O.co2     1 ANP1001     0.0000 
      7 O2B       -81.3300  167.2940  -32.1440 O.co2     1 ANP1001     0.0000 
      8 N3B       -79.4200  165.5050  -32.2740 N.3       1 ANP1001     0.0000 
      9 PA        -83.2460  165.3470  -33.8540 P.3       1 ANP1001     0.0000 
     10 O1A       -83.5810  166.6730  -34.3770 O.co2     1 ANP1001     0.0000 
     11 O2A       -84.0000  164.7680  -32.7400 O.co2     1 ANP1001     0.0000 
     12 O3A       -81.6860  165.3270  -33.4950 O.3       1 ANP1001     0.0000 
     13 O5'       -83.2810  164.3410  -35.0830 O.3       1 ANP1001     0.0000 
     14 C5'       -84.1000  163.1860  -35.0670 C.3       1 ANP1001     0.0000 
     15 C4'       -83.2280  161.9390  -35.2420 C.3       1 ANP1001     0.0000 
     16 O4'       -82.6000  161.9520  -36.5100 O.3       1 ANP1001     0.0000 
     17 C3'       -82.1340  161.9390  -34.1870 C.3       1 ANP1001     0.0000 
     18 O3'       -82.5600  161.2090  -33.0310 O.3       1 ANP1001     0.0000 
     19 C2'       -80.9960  161.2530  -34.8780 C.3       1 ANP1001     0.0000 
     20 O2'       -81.0190  159.8430  -34.7150 O.3       1 ANP1001     0.0000 
     21 C1'       -81.2400  161.5520  -36.3440 C.3       1 ANP1001     0.0000 
     22 N9        -80.4370  162.6460  -36.8770 N.pl3     1 ANP1001     0.0000 
     23 C8        -80.1110  163.8250  -36.2860 C.2       1 ANP1001     0.0000 
     24 N7        -79.3950  164.6460  -37.0530 N.2       1 ANP1001     0.0000 
     25 C5        -79.2660  163.9770  -38.2560 C.ar      1 ANP1001     0.0000 
     26 C6        -78.6420  164.1910  -39.5220 C.ar      1 ANP1001     0.0000 
     27 N6        -77.9860  165.2970  -39.8170 N.pl3     1 ANP1001     0.0000 
     28 N1        -78.6910  163.2730  -40.5170 N.ar      1 ANP1001     0.0000 
     29 C2        -79.3470  162.1570  -40.2430 C.ar      1 ANP1001     0.0000 
     30 N3        -79.9660  161.8250  -39.1150 N.ar      1 ANP1001     0.0000 
     31 C4        -79.9030  162.7400  -38.1360 C.ar      1 ANP1001     0.0000 
@<TRIPOS>BOND
     1    1    2 ar   
     2    1    3 ar   
     3    1    4 ar   
     4    1    8 1    
     5    5    6 ar   
     6    5    7 ar   
     7    5    8 1    
     8    5   12 1    
     9    9   10 ar   
    10    9   11 ar   
    11    9   12 1    
    12    9   13 1    
    13   13   14 1    
    14   14   15 1    
    15   15   16 1    
    16   15   17 1    
    17   16   21 1    
    18   17   18 1    
    19   17   19 1    
    20   19   20 1    
    21   19   21 1    
    22   21   22 1    
    23   22   23 1    
    24   22   31 1    
    25   23   24 2    
    26   24   25 1    
    27   25   26 ar   
    28   25   31 ar   
    29   26   27 1    
    30   26   28 ar   
    31   28   29 ar   
    32   29   30 ar   
    33   30   31 ar   
@<TRIPOS>SUBSTRUCTURE
     1 ANP1001     1 GROUP   
@<TRIPOS>SET
ATOM$ORANGE STATIC     ATOMS   COLORGROUP SYSTEM 
20 14 14 15 15 17 17 19 19 21 21 23 23 25 25 26 26 29 \
29 31 31 

