#    Name: 5xip_5_ANP_CAVITY_N1_8
#    Modification time : Fri May 22 19:17:31 2020

@<TRIPOS>MOLECULE
5xip_5_ANP_CAVITY_N1_8
  126     0     7     0     0
SMALL
NO_CHARGES


@<TRIPOS>ATOM
      1 OG        -79.3500  161.7500  -39.2900 O.3       1 SER1        0.0000 
      2 OG        -82.6700  160.4800  -35.8000 O.3       1 SER1        0.0000 
      3 OG        -81.4300  161.9700  -36.6600 O.3       1 SER1        0.0000 
      4 OG        -80.0700  161.9800  -37.3000 O.3       1 SER1        0.0000 
      5 OG        -86.9600  163.4000  -34.2900 O.3       1 SER1        0.0000 
      6 OG        -89.9000  166.3400  -33.4300 O.3       1 SER1        0.0000 
      7 OG        -87.3000  167.8400  -34.9300 O.3       1 SER1        0.0000 
      8 OG        -83.5000  162.1900  -34.0300 O.3       1 SER1        0.0000 
      9 OG        -84.9700  163.6600  -33.6000 O.3       1 SER1        0.0000 
     10 OG        -83.6100  163.6700  -34.2400 O.3       1 SER1        0.0000 
     11 OG        -87.7900  165.1100  -32.5200 O.3       1 SER1        0.0000 
     12 OG        -86.4400  165.1200  -33.1700 O.3       1 SER1        0.0000 
     13 OG        -85.0800  165.1400  -33.8100 O.3       1 SER1        0.0000 
     14 OG        -87.9100  166.5900  -32.7300 O.3       1 SER1        0.0000 
     15 OG        -86.5500  166.6000  -33.3800 O.3       1 SER1        0.0000 
     16 OG        -86.6700  168.0800  -33.5900 O.3       1 SER1        0.0000 
     17 OG        -86.7800  169.5600  -33.8100 O.3       1 SER1        0.0000 
     18 OG        -84.3300  163.9000  -32.2600 O.3       1 SER1        0.0000 
     19 OG        -85.8000  165.3700  -31.8300 O.3       1 SER1        0.0000 
     20 OG        -84.4500  165.3800  -32.4800 O.3       1 SER1        0.0000 
     21 OG        -85.9200  166.8500  -32.0400 O.3       1 SER1        0.0000 
     22 OG        -83.7000  164.1400  -30.9200 O.3       1 SER1        0.0000 
     23 OG        -85.1700  165.6100  -30.4900 O.3       1 SER1        0.0000 
     24 O         -84.7700  161.7000  -36.7000 O.2       2 ALA2        0.0000 
     25 N         -89.0600  164.6300  -35.1900 N.am      2 ALA2        0.0000 
     26 N         -85.4900  161.9300  -34.7200 N.am      2 ALA2        0.0000 
     27 N         -84.1300  161.9400  -35.3700 N.am      2 ALA2        0.0000 
     28 N         -82.0300  160.7200  -34.4600 N.am      2 ALA2        0.0000 
     29 N         -82.1500  162.2000  -34.6800 N.am      2 ALA2        0.0000 
     30 N         -82.8600  162.4300  -32.6900 N.am      2 ALA2        0.0000 
     31 N         -81.5100  162.4400  -33.3400 N.am      2 ALA2        0.0000 
     32 N         -80.1600  162.4500  -33.9800 N.am      2 ALA2        0.0000 
     33 N         -82.9800  163.9100  -32.9100 N.am      2 ALA2        0.0000 
     34 N         -81.6200  163.9200  -33.5500 N.am      2 ALA2        0.0000 
     35 N         -79.5200  162.7000  -32.6500 N.am      2 ALA2        0.0000 
     36 N         -82.3400  164.1500  -31.5700 N.am      2 ALA2        0.0000 
     37 N         -80.9900  164.1600  -32.2200 N.am      2 ALA2        0.0000 
     38 N         -79.6400  164.1800  -32.8600 N.am      2 ALA2        0.0000 
     39 O         -83.0600  164.3800  -29.5900 O.2       2 ALA2        0.0000 
     40 N         -81.7100  164.3900  -30.2300 N.am      2 ALA2        0.0000 
     41 N         -80.3500  164.4100  -30.8800 N.am      2 ALA2        0.0000 
     42 N         -79.0000  164.4200  -31.5200 N.am      2 ALA2        0.0000 
     43 O         -82.4300  164.6300  -28.2500 O.2       2 ALA2        0.0000 
     44 O         -83.9000  166.0900  -27.8200 O.2       2 ALA2        0.0000 
     45 N         -82.5400  166.1100  -28.4600 N.am      2 ALA2        0.0000 
     46 N         -81.1900  166.1200  -29.1100 N.am      2 ALA2        0.0000 
     47 OD1       -78.7200  161.9900  -37.9500 O.co2     3 ASP3        0.0000 
     48 OD1       -78.8300  163.4700  -38.1600 O.co2     3 ASP3        0.0000 
     49 OD1       -83.0100  164.9200  -36.4400 O.co2     3 ASP3        0.0000 
     50 OD1       -81.6600  164.9300  -37.0900 O.co2     3 ASP3        0.0000 
     51 OD1       -85.8300  166.3700  -35.3600 O.co2     3 ASP3        0.0000 
     52 OD1       -80.6800  160.7300  -35.1100 O.co2     3 ASP3        0.0000 
     53 OD1       -80.7900  162.2100  -35.3200 O.co2     3 ASP3        0.0000 
     54 OD1       -79.4400  162.2200  -35.9700 O.co2     3 ASP3        0.0000 
     55 OD1       -79.5500  163.7000  -36.1800 O.co2     3 ASP3        0.0000 
     56 OD1       -78.2000  163.7100  -36.8300 O.co2     3 ASP3        0.0000 
     57 OD1       -83.7300  165.1500  -34.4600 O.co2     3 ASP3        0.0000 
     58 OD1       -82.3800  165.1600  -35.1000 O.co2     3 ASP3        0.0000 
     59 OD1       -81.0200  165.1700  -35.7500 O.co2     3 ASP3        0.0000 
     60 OD1       -85.2000  166.6200  -34.0300 O.co2     3 ASP3        0.0000 
     61 OD1       -85.4300  169.5800  -34.4500 O.co2     3 ASP3        0.0000 
     62 OD1       -78.8000  162.4700  -34.6300 O.co2     3 ASP3        0.0000 
     63 OD1       -78.9200  163.9500  -34.8400 O.co2     3 ASP3        0.0000 
     64 OD1       -83.0900  165.3900  -33.1200 O.co2     3 ASP3        0.0000 
     65 OD1       -81.7400  165.4000  -33.7700 O.co2     3 ASP3        0.0000 
     66 OD1       -80.3900  165.4100  -34.4100 O.co2     3 ASP3        0.0000 
     67 OD1       -84.5600  166.8600  -32.6900 O.co2     3 ASP3        0.0000 
     68 OD1       -83.2100  166.8700  -33.3300 O.co2     3 ASP3        0.0000 
     69 OD1       -84.6800  168.3400  -32.9000 O.co2     3 ASP3        0.0000 
     70 OD1       -83.3200  168.3500  -33.5500 O.co2     3 ASP3        0.0000 
     71 OD1       -84.7900  169.8200  -33.1200 O.co2     3 ASP3        0.0000 
     72 OD1       -78.2800  164.1900  -33.5100 O.co2     3 ASP3        0.0000 
     73 OD1       -79.7500  165.6600  -33.0800 O.co2     3 ASP3        0.0000 
     74 OD1       -81.2200  167.1200  -32.6400 O.co2     3 ASP3        0.0000 
     75 OD1       -82.6900  168.5900  -32.2100 O.co2     3 ASP3        0.0000 
     76 OD1       -77.6500  164.4300  -32.1700 O.co2     3 ASP3        0.0000 
     77 NZ        -88.6600  167.8300  -34.2900 N.4       4 LYS4        0.0000 
     78 NZ        -88.0200  168.0700  -32.9500 N.4       4 LYS4        0.0000 
     79 CZ        -86.2400  163.1700  -36.2700 C.ar      5 PHE5        0.0000 
     80 CZ        -84.8900  163.1800  -36.9200 C.ar      5 PHE5        0.0000 
     81 CZ        -80.8200  163.2200  -38.8500 C.ar      5 PHE5        0.0000 
     82 CZ        -79.4700  163.2300  -39.5000 C.ar      5 PHE5        0.0000 
     83 CZ        -87.7100  164.6400  -35.8400 C.ar      5 PHE5        0.0000 
     84 CZ        -83.6500  164.6700  -37.7800 C.ar      5 PHE5        0.0000 
     85 CZ        -89.1800  166.1100  -35.4100 C.ar      5 PHE5        0.0000 
     86 CZ        -85.6000  163.4100  -34.9400 C.ar      5 PHE5        0.0000 
     87 CZ        -84.2500  163.4200  -35.5800 C.ar      5 PHE5        0.0000 
     88 CZ        -80.1900  163.4600  -37.5200 C.ar      5 PHE5        0.0000 
     89 CZ        -87.0700  164.8800  -34.5000 C.ar      5 PHE5        0.0000 
     90 CZ        -85.7200  164.8900  -35.1500 C.ar      5 PHE5        0.0000 
     91 CZ        -84.3600  164.9000  -35.7900 C.ar      5 PHE5        0.0000 
     92 CZ        -80.3000  164.9400  -37.7300 C.ar      5 PHE5        0.0000 
     93 CZ        -78.9500  164.9500  -38.3800 C.ar      5 PHE5        0.0000 
     94 CZ        -87.1900  166.3600  -34.7200 C.ar      5 PHE5        0.0000 
     95 CZ        -87.3900  168.3100  -31.6100 C.ar      5 PHE5        0.0000 
     96 CZ        -86.0300  168.3300  -32.2600 C.ar      5 PHE5        0.0000 
     97 CZ        -86.1500  169.8100  -32.4700 C.ar      5 PHE5        0.0000 
     98 CZ        -86.2600  171.2900  -32.6800 C.ar      5 PHE5        0.0000 
     99 CZ        -85.0500  164.1300  -30.2800 C.ar      5 PHE5        0.0000 
    100 CZ        -85.2800  167.0900  -30.7100 C.ar      5 PHE5        0.0000 
    101 CZ        -84.0400  168.5800  -31.5700 C.ar      5 PHE5        0.0000 
    102 CZ        -84.4200  164.3700  -28.9400 C.ar      5 PHE5        0.0000 
    103 CZ        -84.5300  165.8500  -29.1600 C.ar      5 PHE5        0.0000 
    104 CZ        -84.6500  167.3300  -29.3700 C.ar      5 PHE5        0.0000 
    105 CZ        -83.2900  167.3400  -30.0200 C.ar      5 PHE5        0.0000 
    106 CZ        -83.4100  168.8200  -30.2300 C.ar      5 PHE5        0.0000 
    107 CA        -82.7800  161.9600  -36.0100 C.3       6 GLY6        0.0000 
    108 CA        -82.9000  163.4400  -36.2300 C.3       6 GLY6        0.0000 
    109 CA        -81.5400  163.4500  -36.8700 C.3       6 GLY6        0.0000 
    110 CA        -88.4300  164.8700  -33.8600 C.3       6 GLY6        0.0000 
    111 CA        -83.3800  160.7100  -33.8200 C.3       6 GLY6        0.0000 
    112 CA        -82.6600  167.5900  -28.6800 C.3       6 GLY6        0.0000 
    113 DU        -88.5400  166.3500  -34.0700 H         7 CUB7        0.0000 
    114 DU        -82.2600  163.6800  -34.8900 H         7 CUB7        0.0000 
    115 DU        -80.9100  163.6900  -35.5400 H         7 CUB7        0.0000 
    116 DU        -80.2700  163.9300  -34.2000 H         7 CUB7        0.0000 
    117 DU        -84.9100  171.3000  -33.3300 H         7 CUB7        0.0000 
    118 DU        -83.8100  165.6200  -31.1400 H         7 CUB7        0.0000 
    119 DU        -82.4600  165.6300  -31.7800 H         7 CUB7        0.0000 
    120 DU        -81.1000  165.6400  -32.4300 H         7 CUB7        0.0000 
    121 DU        -83.9300  167.1000  -31.3500 H         7 CUB7        0.0000 
    122 DU        -82.5700  167.1100  -32.0000 H         7 CUB7        0.0000 
    123 DU        -83.1800  165.8600  -29.8000 H         7 CUB7        0.0000 
    124 DU        -81.8200  165.8700  -30.4500 H         7 CUB7        0.0000 
    125 DU        -80.4700  165.8900  -31.0900 H         7 CUB7        0.0000 
    126 DU        -81.9400  167.3600  -30.6600 H         7 CUB7        0.0000 
@<TRIPOS>BOND
@<TRIPOS>SUBSTRUCTURE
     1 SER1        1 GROUP   
     2 ALA2       24 GROUP   
     3 ASP3       47 GROUP   
     4 LYS4       77 GROUP   
     5 PHE5       79 GROUP   
     6 GLY6      107 GROUP   
     7 CUB7      113 GROUP   
@<TRIPOS>SET

