#    Name: 5xip_2_HFG
#    Modification time : Fri May 22 19:17:01 2020

@<TRIPOS>MOLECULE
5xip_2_HFG
   24    26     1     0     0
SMALL
NO_CHARGES


@<TRIPOS>ATOM
      1 O4'       -35.9890  163.2070    4.9350 O.2       1 HFG1003     0.0000 
      2 C21       -35.8710  163.4000    3.7260 C.2       1 HFG1003     0.0000 
      3 C3'       -36.8870  162.8640    2.7150 C.3       1 HFG1003     0.0000 
      4 C2'       -38.1160  162.3340    3.4580 C.3       1 HFG1003     0.0000 
      5 N1'       -37.7230  161.4300    4.5480 N.4       1 HFG1003     0.0000 
      6 C6'       -38.8950  160.9270    5.2800 C.3       1 HFG1003     0.0000 
      7 C5'       -39.7050  162.0730    5.8630 C.3       1 HFG1003     0.0000 
      8 C4'       -40.1500  163.0010    4.7450 C.3       1 HFG1003     0.0000 
      9 C39       -38.9310  163.5030    3.9870 C.3       1 HFG1003     0.0000 
     10 O7'       -39.3550  164.3260    2.8910 O.3       1 HFG1003     0.0000 
     11 C1'       -34.6990  164.1890    3.1400 C.3       1 HFG1003     0.0000 
     12 N3        -33.5870  164.2210    4.1160 N.am      1 HFG1003     0.0000 
     13 C4        -32.7450  163.1200    4.1830 C.2       1 HFG1003     0.0000 
     14 O11       -32.8970  162.1350    3.4630 O.2       1 HFG1003     0.0000 
     15 C10       -31.6700  163.2320    5.1760 C.ar      1 HFG1003     0.0000 
     16 C5        -30.7630  162.1910    5.3350 C.ar      1 HFG1003     0.0000 
     17 C2        -33.3940  165.2940    4.9250 C.2       1 HFG1003     0.0000 
     18 N1        -32.4600  165.4310    5.8110 N.2       1 HFG1003     0.0000 
     19 C9        -31.5580  164.3780    5.9580 C.ar      1 HFG1003     0.0000 
     20 C8        -30.5370  164.4770    6.8970 C.ar      1 HFG1003     0.0000 
     21 C7        -29.6290  163.4360    7.0560 C.ar      1 HFG1003     0.0000 
     22 BR1       -28.2590  163.5890    8.3270 Br        1 HFG1003     0.0000 
     23 C6        -29.7440  162.2930    6.2740 C.ar      1 HFG1003     0.0000 
     24 CL1       -28.6190  161.0000    6.4680 Cl        1 HFG1003     0.0000 
@<TRIPOS>BOND
     1    1    2 2    
     2    2    3 1    
     3    2   11 1    
     4    3    4 1    
     5    4    5 1    
     6    4    9 1    
     7    5    6 1    
     8    6    7 1    
     9    7    8 1    
    10    8    9 1    
    11    9   10 1    
    12   11   12 1    
    13   12   13 am   
    14   12   17 1    
    15   13   14 2    
    16   13   15 1    
    17   15   16 ar   
    18   15   19 ar   
    19   16   23 ar   
    20   17   18 2    
    21   18   19 1    
    22   19   20 ar   
    23   20   21 ar   
    24   21   22 1    
    25   21   23 ar   
    26   23   24 1    
@<TRIPOS>SUBSTRUCTURE
     1 HFG1003     1 GROUP   
@<TRIPOS>SET

