#    Name: 5xip_2_HFG_CAVITY_N1_4
#    Modification time : Fri May 22 19:17:03 2020

@<TRIPOS>MOLECULE
5xip_2_HFG_CAVITY_N1_4
   68     0     6     0     0
SMALL
NO_CHARGES


@<TRIPOS>ATOM
      1 N         -28.5300  158.3500    4.4900 N.am      1 ALA2        0.0000 
      2 N         -27.1800  158.3600    3.8500 N.am      1 ALA2        0.0000 
      3 N         -27.2900  159.8400    3.6300 N.am      1 ALA2        0.0000 
      4 N         -26.6600  160.0800    4.9700 N.am      1 ALA2        0.0000 
      5 N         -26.1400  161.8000    6.0900 N.am      1 ALA2        0.0000 
      6 N         -27.6100  163.2700    6.5200 N.am      1 ALA2        0.0000 
      7 OD1       -33.6900  163.9900    4.2400 O.co2     2 ASP3        0.0000 
      8 OD1       -33.0500  164.2300    5.5700 O.co2     2 ASP3        0.0000 
      9 OD1       -33.1700  165.7100    5.3600 O.co2     2 ASP3        0.0000 
     10 OD1       -32.4200  164.4700    6.9100 O.co2     2 ASP3        0.0000 
     11 NZ        -33.9800  159.3000    3.5400 N.4       3 LYS4        0.0000 
     12 NZ        -34.0900  160.7800    3.3300 N.4       3 LYS4        0.0000 
     13 CZ        -33.2600  159.0700    1.5600 C.ar      4 PHE5        0.0000 
     14 CZ        -33.3800  160.5500    1.3500 C.ar      4 PHE5        0.0000 
     15 CZ        -32.0200  160.5700    0.7000 C.ar      4 PHE5        0.0000 
     16 CZ        -32.1400  162.0500    0.4900 C.ar      4 PHE5        0.0000 
     17 CZ        -32.7400  160.8000    2.6800 C.ar      4 PHE5        0.0000 
     18 CZ        -30.0300  160.8200    1.3900 C.ar      4 PHE5        0.0000 
     19 CZ        -32.8500  162.2800    2.4700 C.ar      4 PHE5        0.0000 
     20 CZ        -30.1500  162.3000    1.1800 C.ar      4 PHE5        0.0000 
     21 CZ        -30.7500  161.0500    3.3700 C.ar      4 PHE5        0.0000 
     22 CZ        -29.4000  161.0600    2.7300 C.ar      4 PHE5        0.0000 
     23 CZ        -32.2200  162.5200    3.8100 C.ar      4 PHE5        0.0000 
     24 CZ        -32.3300  164.0000    3.5900 C.ar      4 PHE5        0.0000 
     25 CZ        -33.8000  165.4700    4.0200 C.ar      4 PHE5        0.0000 
     26 CZ        -30.1100  161.2900    4.7100 C.ar      4 PHE5        0.0000 
     27 CZ        -28.7600  161.3100    4.0600 C.ar      4 PHE5        0.0000 
     28 CZ        -27.4100  161.3200    3.4200 C.ar      4 PHE5        0.0000 
     29 CZ        -31.5800  162.7600    5.1400 C.ar      4 PHE5        0.0000 
     30 CZ        -30.2300  162.7700    4.5000 C.ar      4 PHE5        0.0000 
     31 CZ        -31.7000  164.2400    4.9300 C.ar      4 PHE5        0.0000 
     32 CZ        -28.1300  161.5500    5.4000 C.ar      4 PHE5        0.0000 
     33 CZ        -29.5900  163.0200    5.8300 C.ar      4 PHE5        0.0000 
     34 CZ        -28.2400  163.0300    5.1900 C.ar      4 PHE5        0.0000 
     35 CZ        -31.0600  164.4800    6.2700 C.ar      4 PHE5        0.0000 
     36 CZ        -29.7100  164.5000    5.6200 C.ar      4 PHE5        0.0000 
     37 CZ        -29.0700  164.7400    6.9600 C.ar      4 PHE5        0.0000 
     38 CA        -32.6200  159.3200    2.9000 C.3       5 GLY6        0.0000 
     39 CA        -31.9900  159.5600    4.2300 C.3       5 GLY6        0.0000 
     40 CA        -32.1000  161.0400    4.0200 C.3       5 GLY6        0.0000 
     41 CA        -33.5700  162.5100    4.4500 C.3       5 GLY6        0.0000 
     42 CA        -31.2400  158.3200    5.7800 C.3       5 GLY6        0.0000 
     43 CA        -29.8800  158.3300    5.1400 C.3       5 GLY6        0.0000 
     44 CA        -31.3500  159.8000    5.5700 C.3       5 GLY6        0.0000 
     45 CA        -31.4700  161.2800    5.3600 C.3       5 GLY6        0.0000 
     46 CA        -32.9400  162.7500    5.7900 C.3       5 GLY6        0.0000 
     47 CA        -29.3600  160.0600    6.2600 C.3       5 GLY6        0.0000 
     48 CA        -28.0100  160.0700    5.6200 C.3       5 GLY6        0.0000 
     49 CA        -29.4800  161.5400    6.0500 C.3       5 GLY6        0.0000 
     50 CA        -26.7700  161.5600    4.7600 C.3       5 GLY6        0.0000 
     51 CA        -32.3000  162.9900    7.1200 C.3       5 GLY6        0.0000 
     52 CA        -30.9500  163.0000    6.4800 C.3       5 GLY6        0.0000 
     53 CA        -25.9100  158.8400    6.5200 C.3       5 GLY6        0.0000 
     54 CA        -28.7300  160.3000    7.6000 C.3       5 GLY6        0.0000 
     55 CA        -27.3800  160.3100    6.9500 C.3       5 GLY6        0.0000 
     56 CA        -26.0200  160.3200    6.3100 C.3       5 GLY6        0.0000 
     57 CA        -28.8400  161.7800    7.3800 C.3       5 GLY6        0.0000 
     58 CA        -27.4900  161.7900    6.7400 C.3       5 GLY6        0.0000 
     59 CA        -28.9600  163.2600    7.1700 C.3       5 GLY6        0.0000 
     60 CA        -30.4300  164.7300    7.6000 C.3       5 GLY6        0.0000 
     61 CA        -28.2100  162.0200    8.7200 C.3       5 GLY6        0.0000 
     62 CA        -28.3200  163.5000    8.5100 C.3       5 GLY6        0.0000 
     63 DU        -31.2700  159.3300    2.2500 H         6 CUB7        0.0000 
     64 DU        -31.3900  160.8100    2.0400 H         6 CUB7        0.0000 
     65 DU        -30.6400  159.5700    3.5900 H         6 CUB7        0.0000 
     66 DU        -29.2800  159.5800    2.9400 H         6 CUB7        0.0000 
     67 DU        -30.0000  159.8100    4.9200 H         6 CUB7        0.0000 
     68 DU        -28.6500  159.8300    4.2800 H         6 CUB7        0.0000 
@<TRIPOS>BOND
@<TRIPOS>SUBSTRUCTURE
     1 ALA2        1 GROUP   
     2 ASP3        7 GROUP   
     3 LYS4       11 GROUP   
     4 PHE5       13 GROUP   
     5 GLY6       38 GROUP   
     6 CUB7       63 GROUP   
@<TRIPOS>SET

