#    Name: 5xip_4_HFG
#    Modification time : Fri May 22 19:17:16 2020

@<TRIPOS>MOLECULE
5xip_4_HFG
   24    26     1     0     0
SMALL
NO_CHARGES


@<TRIPOS>ATOM
      1 O4'       -88.4530  170.3220  -66.2220 O.2       1 HFG1003     0.0000 
      2 C21       -88.7910  170.4760  -67.3760 C.2       1 HFG1003     0.0000 
      3 C3'       -89.4820  169.3600  -68.1540 C.3       1 HFG1003     0.0000 
      4 C2'       -89.1300  167.9800  -67.5630 C.3       1 HFG1003     0.0000 
      5 N1'       -88.2540  168.0760  -66.3900 N.4       1 HFG1003     0.0000 
      6 C6'       -87.9350  166.7590  -65.8590 C.3       1 HFG1003     0.0000 
      7 C5'       -89.1930  166.0590  -65.4220 C.3       1 HFG1003     0.0000 
      8 C4'       -90.1100  165.8950  -66.6110 C.3       1 HFG1003     0.0000 
      9 C39       -90.4080  167.2390  -67.2310 C.3       1 HFG1003     0.0000 
     10 O7'       -91.1480  167.0390  -68.4320 O.3       1 HFG1003     0.0000 
     11 C1'       -88.4300  171.7290  -68.1690 C.3       1 HFG1003     0.0000 
     12 N3        -87.9690  172.7860  -67.2540 N.am      1 HFG1003     0.0000 
     13 C4        -86.6150  172.8960  -67.0120 C.2       1 HFG1003     0.0000 
     14 O11       -85.8060  172.1280  -67.4910 O.2       1 HFG1003     0.0000 
     15 C10       -86.2420  173.9780  -66.1050 C.ar      1 HFG1003     0.0000 
     16 C5        -84.9170  174.1810  -65.7840 C.ar      1 HFG1003     0.0000 
     17 C2        -88.8320  173.6620  -66.7210 C.2       1 HFG1003     0.0000 
     18 N1        -88.5430  174.6320  -65.9240 N.2       1 HFG1003     0.0000 
     19 C9        -87.2130  174.8070  -65.5850 C.ar      1 HFG1003     0.0000 
     20 C8        -86.8570  175.8390  -64.7340 C.ar      1 HFG1003     0.0000 
     21 C7        -85.5290  176.0420  -64.3970 C.ar      1 HFG1003     0.0000 
     22 BR1       -85.0790  177.4330  -63.2280 Br        1 HFG1003     0.0000 
     23 C6        -84.5590  175.2070  -64.9310 C.ar      1 HFG1003     0.0000 
     24 CL1       -82.9200  175.4310  -64.5530 Cl        1 HFG1003     0.0000 
@<TRIPOS>BOND
     1    1    2 2    
     2    2    3 1    
     3    2   11 1    
     4    3    4 1    
     5    4    5 1    
     6    4    9 1    
     7    5    6 1    
     8    6    7 1    
     9    7    8 1    
    10    8    9 1    
    11    9   10 1    
    12   11   12 1    
    13   12   13 am   
    14   12   17 1    
    15   13   14 2    
    16   13   15 1    
    17   15   16 ar   
    18   15   19 ar   
    19   16   23 ar   
    20   17   18 2    
    21   18   19 1    
    22   19   20 ar   
    23   20   21 ar   
    24   21   22 1    
    25   21   23 ar   
    26   23   24 1    
@<TRIPOS>SUBSTRUCTURE
     1 HFG1003     1 GROUP   
@<TRIPOS>SET

