#    Name: 5xip_3_HFG
#    Modification time : Fri May 22 19:17:09 2020

@<TRIPOS>MOLECULE
5xip_3_HFG
   24    26     1     0     0
SMALL
NO_CHARGES


@<TRIPOS>ATOM
      1 O4'       -85.9220  168.3340  -34.3520 O.2       1 HFG1003     0.0000 
      2 C21       -85.8060  168.3140  -33.1280 C.2       1 HFG1003     0.0000 
      3 C3'       -86.9370  167.8400  -32.2130 C.3       1 HFG1003     0.0000 
      4 C2'       -87.9340  167.0080  -33.0220 C.3       1 HFG1003     0.0000 
      5 N1'       -88.3530  167.7220  -34.2360 N.4       1 HFG1003     0.0000 
      6 C6'       -89.2990  166.9250  -35.0310 C.3       1 HFG1003     0.0000 
      7 C5'       -88.6850  165.5940  -35.4340 C.3       1 HFG1003     0.0000 
      8 C4'       -88.2770  164.8250  -34.1880 C.3       1 HFG1003     0.0000 
      9 C39       -87.3110  165.6650  -33.3670 C.3       1 HFG1003     0.0000 
     10 O7'       -86.9770  164.9670  -32.1590 O.3       1 HFG1003     0.0000 
     11 C1'       -84.5220  168.7600  -32.4260 C.3       1 HFG1003     0.0000 
     12 N3        -83.8200  169.7560  -33.2670 N.am      1 HFG1003     0.0000 
     13 C4        -84.4590  170.9600  -33.5230 C.2       1 HFG1003     0.0000 
     14 O11       -85.5770  171.2170  -33.0780 O.2       1 HFG1003     0.0000 
     15 C10       -83.6960  171.8910  -34.3640 C.ar      1 HFG1003     0.0000 
     16 C5        -84.2340  173.1300  -34.6890 C.ar      1 HFG1003     0.0000 
     17 C2        -82.5870  169.5030  -33.7730 C.2       1 HFG1003     0.0000 
     18 N1        -81.8820  170.2950  -34.5160 N.2       1 HFG1003     0.0000 
     19 C9        -82.4360  171.5340  -34.8340 C.ar      1 HFG1003     0.0000 
     20 C8        -81.7190  172.4210  -35.6290 C.ar      1 HFG1003     0.0000 
     21 C7        -82.2560  173.6610  -35.9550 C.ar      1 HFG1003     0.0000 
     22 BR1       -81.2730  174.8430  -37.0290 Br        1 HFG1003     0.0000 
     23 C6        -83.5150  174.0140  -35.4840 C.ar      1 HFG1003     0.0000 
     24 CL1       -84.1860  175.5520  -35.8860 Cl        1 HFG1003     0.0000 
@<TRIPOS>BOND
     1    1    2 2    
     2    2    3 1    
     3    2   11 1    
     4    3    4 1    
     5    4    5 1    
     6    4    9 1    
     7    5    6 1    
     8    6    7 1    
     9    7    8 1    
    10    8    9 1    
    11    9   10 1    
    12   11   12 1    
    13   12   13 am   
    14   12   17 1    
    15   13   14 2    
    16   13   15 1    
    17   15   16 ar   
    18   15   19 ar   
    19   16   23 ar   
    20   17   18 2    
    21   18   19 1    
    22   19   20 ar   
    23   20   21 ar   
    24   21   22 1    
    25   21   23 ar   
    26   23   24 1    
@<TRIPOS>SUBSTRUCTURE
     1 HFG1003     1 GROUP   
@<TRIPOS>SET

