#    Name: 5xip_1_HFG
#    Modification time : Fri May 22 19:16:54 2020

@<TRIPOS>MOLECULE
5xip_1_HFG
   24    26     1     0     0
SMALL
NO_CHARGES


@<TRIPOS>ATOM
      1 O4'       -36.6790  156.9850   36.3370 O.2       1 HFG1003     0.0000 
      2 C21       -36.5300  157.0740   37.5540 C.2       1 HFG1003     0.0000 
      3 C3'       -37.4990  157.8650   38.4360 C.3       1 HFG1003     0.0000 
      4 C2'       -38.7890  158.1370   37.6590 C.3       1 HFG1003     0.0000 
      5 N1'       -38.5320  158.9950   36.4940 N.4       1 HFG1003     0.0000 
      6 C6'       -39.7620  159.2500   35.7310 C.3       1 HFG1003     0.0000 
      7 C5'       -40.3850  157.9490   35.2510 C.3       1 HFG1003     0.0000 
      8 C4'       -40.6910  157.0620   36.4470 C.3       1 HFG1003     0.0000 
      9 C39       -39.4150  156.8170   37.2370 C.3       1 HFG1003     0.0000 
     10 O7'       -39.7150  156.0340   38.4010 O.3       1 HFG1003     0.0000 
     11 C1'       -35.3640  156.4010   38.2810 C.3       1 HFG1003     0.0000 
     12 N3        -34.1990  156.3150   37.3720 N.am      1 HFG1003     0.0000 
     13 C4        -33.3410  157.4020   37.3050 C.2       1 HFG1003     0.0000 
     14 O11       -33.5200  158.4200   37.9710 O.2       1 HFG1003     0.0000 
     15 C10       -32.2130  157.2350   36.3800 C.ar      1 HFG1003     0.0000 
     16 C5        -31.2850  158.2580   36.2280 C.ar      1 HFG1003     0.0000 
     17 C2        -33.9740  155.2050   36.6230 C.2       1 HFG1003     0.0000 
     18 N1        -32.9940  155.0190   35.7980 N.2       1 HFG1003     0.0000 
     19 C9        -32.0720  156.0540   35.6570 C.ar      1 HFG1003     0.0000 
     20 C8        -31.0010  155.9030   34.7840 C.ar      1 HFG1003     0.0000 
     21 C7        -30.0720  156.9260   34.6310 C.ar      1 HFG1003     0.0000 
     22 BR1       -28.6340  156.7020   33.4470 Br        1 HFG1003     0.0000 
     23 C6        -30.2150  158.1040   35.3540 C.ar      1 HFG1003     0.0000 
     24 CL1       -29.0650  159.3760   35.1680 Cl        1 HFG1003     0.0000 
@<TRIPOS>BOND
     1    1    2 2    
     2    2    3 1    
     3    2   11 1    
     4    3    4 1    
     5    4    5 1    
     6    4    9 1    
     7    5    6 1    
     8    6    7 1    
     9    7    8 1    
    10    8    9 1    
    11    9   10 1    
    12   11   12 1    
    13   12   13 am   
    14   12   17 1    
    15   13   14 2    
    16   13   15 1    
    17   15   16 ar   
    18   15   19 ar   
    19   16   23 ar   
    20   17   18 2    
    21   18   19 1    
    22   19   20 ar   
    23   20   21 ar   
    24   21   22 1    
    25   21   23 ar   
    26   23   24 1    
@<TRIPOS>SUBSTRUCTURE
     1 HFG1003     1 GROUP   
@<TRIPOS>SET

