#    Name: 5xip_1_HFG_CAVITY_N1_4
#    Modification time : Fri May 22 19:16:56 2020

@<TRIPOS>MOLECULE
5xip_1_HFG_CAVITY_N1_4
   86     0     7     0     0
SMALL
NO_CHARGES


@<TRIPOS>ATOM
      1 OG        -39.5700  156.1100   37.0700 O.3       1 SER1        0.0000 
      2 OG        -36.9700  157.6200   35.5600 O.3       1 SER1        0.0000 
      3 OG        -38.4400  159.0900   36.0000 O.3       1 SER1        0.0000 
      4 OG        -38.9300  156.3600   38.4100 O.3       1 SER1        0.0000 
      5 OG        -39.0400  157.8400   38.1900 O.3       1 SER1        0.0000 
      6 OG        -36.3400  157.8600   36.9000 O.3       1 SER1        0.0000 
      7 N         -27.8900  161.6100   37.2600 N.am      2 ALA2        0.0000 
      8 N         -26.5400  161.6200   36.6100 N.am      2 ALA2        0.0000 
      9 OD1       -32.8000  156.1700   33.8400 O.co2     3 ASP3        0.0000 
     10 OD1       -32.0500  154.9400   35.3900 O.co2     3 ASP3        0.0000 
     11 OD1       -36.2200  156.3800   37.1200 O.co2     3 ASP3        0.0000 
     12 OD1       -34.8700  156.3900   36.4700 O.co2     3 ASP3        0.0000 
     13 OD1       -33.5100  156.4000   35.8200 O.co2     3 ASP3        0.0000 
     14 OD1       -32.1600  156.4200   35.1800 O.co2     3 ASP3        0.0000 
     15 NZ        -37.6900  157.8500   37.5500 N.4       4 LYS4        0.0000 
     16 NZ        -33.9400  161.3200   38.5000 N.4       4 LYS4        0.0000 
     17 CZ        -40.3200  157.3500   35.5200 C.ar      5 PHE5        0.0000 
     18 CZ        -40.4300  158.8300   35.3100 C.ar      5 PHE5        0.0000 
     19 CZ        -38.2100  156.1300   36.4200 C.ar      5 PHE5        0.0000 
     20 CZ        -38.3300  157.6100   36.2100 C.ar      5 PHE5        0.0000 
     21 CZ        -36.8300  155.1300   39.3100 C.ar      5 PHE5        0.0000 
     22 CZ        -35.4700  155.1400   38.6700 C.ar      5 PHE5        0.0000 
     23 CZ        -32.7600  155.1700   37.3700 C.ar      5 PHE5        0.0000 
     24 CZ        -36.9400  156.6100   39.1000 C.ar      5 PHE5        0.0000 
     25 CZ        -35.5900  156.6200   38.4500 C.ar      5 PHE5        0.0000 
     26 CZ        -34.2300  156.6400   37.8100 C.ar      5 PHE5        0.0000 
     27 CZ        -32.8800  156.6500   37.1600 C.ar      5 PHE5        0.0000 
     28 CZ        -31.5200  156.6600   36.5200 C.ar      5 PHE5        0.0000 
     29 CZ        -30.1700  156.6700   35.8700 C.ar      5 PHE5        0.0000 
     30 CZ        -37.0600  158.0900   38.8800 C.ar      5 PHE5        0.0000 
     31 CZ        -35.7000  158.1000   38.2400 C.ar      5 PHE5        0.0000 
     32 CZ        -34.3500  158.1200   37.5900 C.ar      5 PHE5        0.0000 
     33 CZ        -30.2900  158.1500   35.6600 C.ar      5 PHE5        0.0000 
     34 CZ        -28.9300  158.1600   35.0100 C.ar      5 PHE5        0.0000 
     35 CZ        -34.8400  155.3900   40.0000 C.ar      5 PHE5        0.0000 
     36 CZ        -33.6000  156.8800   39.1400 C.ar      5 PHE5        0.0000 
     37 CZ        -32.2400  156.8900   38.5000 C.ar      5 PHE5        0.0000 
     38 CZ        -33.7100  158.3600   38.9300 C.ar      5 PHE5        0.0000 
     39 CZ        -32.3600  158.3700   38.2800 C.ar      5 PHE5        0.0000 
     40 CZ        -31.0000  158.3800   37.6400 C.ar      5 PHE5        0.0000 
     41 CZ        -28.3000  158.4100   36.3500 C.ar      5 PHE5        0.0000 
     42 CZ        -26.9400  158.4200   35.7000 C.ar      5 PHE5        0.0000 
     43 CZ        -33.8300  159.8400   38.7200 C.ar      5 PHE5        0.0000 
     44 CZ        -29.7700  159.8700   36.7800 C.ar      5 PHE5        0.0000 
     45 CZ        -28.4100  159.8900   36.1300 C.ar      5 PHE5        0.0000 
     46 CZ        -31.7200  158.6100   39.6200 C.ar      5 PHE5        0.0000 
     47 CZ        -30.3700  158.6200   38.9800 C.ar      5 PHE5        0.0000 
     48 CZ        -27.6600  158.6500   37.6800 C.ar      5 PHE5        0.0000 
     49 CZ        -26.3100  158.6600   37.0400 C.ar      5 PHE5        0.0000 
     50 CZ        -33.1900  160.0800   40.0500 C.ar      5 PHE5        0.0000 
     51 CZ        -30.4800  160.1000   38.7600 C.ar      5 PHE5        0.0000 
     52 CZ        -29.1300  160.1200   38.1200 C.ar      5 PHE5        0.0000 
     53 CZ        -27.7800  160.1300   37.4700 C.ar      5 PHE5        0.0000 
     54 CZ        -33.3100  161.5600   39.8400 C.ar      5 PHE5        0.0000 
     55 CZ        -32.4400  158.8400   41.6000 C.ar      5 PHE5        0.0000 
     56 CA        -30.8100  156.4300   34.5300 C.3       6 GLY6        0.0000 
     57 CA        -29.4500  156.4400   33.8900 C.3       6 GLY6        0.0000 
     58 CA        -34.9800  157.8700   36.2600 C.3       6 GLY6        0.0000 
     59 CA        -32.2800  157.9000   34.9600 C.3       6 GLY6        0.0000 
     60 CA        -30.9200  157.9100   34.3200 C.3       6 GLY6        0.0000 
     61 CA        -32.9900  158.1300   36.9500 C.3       6 GLY6        0.0000 
     62 CA        -31.6400  158.1400   36.3000 C.3       6 GLY6        0.0000 
     63 CA        -27.5800  158.1800   34.3600 C.3       6 GLY6        0.0000 
     64 CA        -31.7500  159.6200   36.0900 C.3       6 GLY6        0.0000 
     65 CA        -30.4000  159.6300   35.4400 C.3       6 GLY6        0.0000 
     66 CA        -29.0500  159.6400   34.8000 C.3       6 GLY6        0.0000 
     67 CA        -27.6900  159.6600   34.1500 C.3       6 GLY6        0.0000 
     68 CA        -31.8700  161.1000   35.8700 C.3       6 GLY6        0.0000 
     69 CA        -25.5900  158.4300   35.0600 C.3       6 GLY6        0.0000 
     70 CA        -32.4700  159.8500   38.0700 C.3       6 GLY6        0.0000 
     71 CA        -31.1200  159.8600   37.4200 C.3       6 GLY6        0.0000 
     72 CA        -27.0600  159.9000   35.4900 C.3       6 GLY6        0.0000 
     73 CA        -25.7000  159.9100   34.8400 C.3       6 GLY6        0.0000 
     74 CA        -32.5900  161.3300   37.8600 C.3       6 GLY6        0.0000 
     75 CA        -31.2300  161.3400   37.2100 C.3       6 GLY6        0.0000 
     76 CA        -29.8800  161.3500   36.5600 C.3       6 GLY6        0.0000 
     77 CA        -28.5300  161.3700   35.9200 C.3       6 GLY6        0.0000 
     78 CA        -25.8200  161.3900   34.6300 C.3       6 GLY6        0.0000 
     79 DU        -39.6800  157.5900   36.8600 H         7 CUB7        0.0000 
     80 DU        -37.5800  156.3700   37.7600 H         7 CUB7        0.0000 
     81 DU        -34.1200  155.1600   38.0200 H         7 CUB7        0.0000 
     82 DU        -31.8400  160.0900   39.4100 H         7 CUB7        0.0000 
     83 DU        -26.4200  160.1400   36.8200 H         7 CUB7        0.0000 
     84 DU        -31.9500  161.5700   39.1900 H         7 CUB7        0.0000 
     85 DU        -29.2500  161.6000   37.9000 H         7 CUB7        0.0000 
     86 DU        -31.0900  158.8600   40.9600 H         7 CUB7        0.0000 
@<TRIPOS>BOND
@<TRIPOS>SUBSTRUCTURE
     1 SER1        1 GROUP   
     2 ALA2        7 GROUP   
     3 ASP3        9 GROUP   
     4 LYS4       15 GROUP   
     5 PHE5       17 GROUP   
     6 GLY6       56 GROUP   
     7 CUB7       79 GROUP   
@<TRIPOS>SET

