#    Name: 6as7_1_DCP_CAVITY_N1_ALL
#    Modification time : Fri May 22 19:27:45 2020

@<TRIPOS>MOLECULE
6as7_1_DCP_CAVITY_N1_ALL
   84     0     6     0     0
SMALL
NO_CHARGES


@<TRIPOS>ATOM
      1 OG         27.8600  -22.2200   23.4000 O.3       1 SER1        0.0000 
      2 OG         26.4100  -20.7400   22.9500 O.3       1 SER1        0.0000 
      3 OG         25.7300  -19.4300   24.4700 O.3       1 SER1        0.0000 
      4 OG         26.5000  -19.6000   26.4400 O.3       1 SER1        0.0000 
      5 OG         25.0500  -18.1200   25.9900 O.3       1 SER1        0.0000 
      6 OG         24.9400  -17.0100   24.9800 O.3       1 SER1        0.0000 
      7 OG         28.5000  -19.0300   26.8400 O.3       1 SER1        0.0000 
      8 N          25.2000  -23.7300   22.0300 N.am      2 ALA2        0.0000 
      9 N          26.5400  -24.1100   21.4700 N.am      2 ALA2        0.0000 
     10 N          25.0900  -22.6300   21.0200 N.am      2 ALA2        0.0000 
     11 N          27.2000  -23.1700   22.4400 N.am      2 ALA2        0.0000 
     12 N          25.7500  -21.6900   21.9900 N.am      2 ALA2        0.0000 
     13 N          27.0900  -22.0600   21.4300 N.am      2 ALA2        0.0000 
     14 O          21.6100  -19.4600   22.6500 O.2       2 ALA2        0.0000 
     15 N          25.6200  -18.3200   23.4600 N.am      2 ALA2        0.0000 
     16 N          22.8200  -16.4700   23.5700 N.am      2 ALA2        0.0000 
     17 OD1        23.9700  -24.4700   23.5900 O.co2     3 ASP3        0.0000 
     18 OD1        25.3100  -24.8400   23.0400 O.co2     3 ASP3        0.0000 
     19 OD1        26.6500  -25.2100   22.4800 O.co2     3 ASP3        0.0000 
     20 OD1        21.9200  -20.5200   28.1500 O.co2     3 ASP3        0.0000 
     21 OD1        21.8100  -19.4200   27.1400 O.co2     3 ASP3        0.0000 
     22 OD1        23.1500  -19.7900   26.5900 O.co2     3 ASP3        0.0000 
     23 OD1        21.1300  -18.1000   28.6600 O.co2     3 ASP3        0.0000 
     24 OD1        22.4700  -18.4800   28.1100 O.co2     3 ASP3        0.0000 
     25 OD1        23.8200  -18.8500   27.5500 O.co2     3 ASP3        0.0000 
     26 OD1        25.1600  -19.2200   26.9900 O.co2     3 ASP3        0.0000 
     27 OD1        21.0200  -17.0000   27.6600 O.co2     3 ASP3        0.0000 
     28 OD1        22.3600  -17.3700   27.1000 O.co2     3 ASP3        0.0000 
     29 OD1        23.7100  -17.7400   26.5400 O.co2     3 ASP3        0.0000 
     30 OD1        22.2500  -16.2600   26.0900 O.co2     3 ASP3        0.0000 
     31 OD1        23.6000  -16.6400   25.5400 O.co2     3 ASP3        0.0000 
     32 OD1        22.1400  -15.1600   25.0900 O.co2     3 ASP3        0.0000 
     33 OD1        23.4900  -15.5300   24.5300 O.co2     3 ASP3        0.0000 
     34 OD1        27.1600  -18.6500   27.4000 O.co2     3 ASP3        0.0000 
     35 OD1        25.7100  -17.1700   26.9500 O.co2     3 ASP3        0.0000 
     36 NZ         22.5100  -22.9900   23.1400 N.4       4 LYS4        0.0000 
     37 NZ         23.8600  -23.3600   22.5900 N.4       4 LYS4        0.0000 
     38 NZ         19.7200  -21.1400   23.2500 N.4       4 LYS4        0.0000 
     39 NZ         22.4000  -21.8800   22.1400 N.4       4 LYS4        0.0000 
     40 NZ         23.7500  -22.2500   21.5800 N.4       4 LYS4        0.0000 
     41 NZ         23.0700  -20.9400   23.1000 N.4       4 LYS4        0.0000 
     42 CA         22.6200  -24.1000   24.1500 C.3       5 GLY6        0.0000 
     43 CA         23.2900  -23.1500   25.1100 C.3       5 GLY6        0.0000 
     44 CA         24.6300  -23.5300   24.5600 C.3       5 GLY6        0.0000 
     45 CA         25.9700  -23.9000   24.0000 C.3       5 GLY6        0.0000 
     46 CA         27.3100  -24.2700   23.4400 C.3       5 GLY6        0.0000 
     47 CA         25.8600  -22.7900   22.9900 C.3       5 GLY6        0.0000 
     48 CA         28.5400  -23.5400   21.8800 C.3       5 GLY6        0.0000 
     49 CA         23.9500  -22.2100   26.0800 C.3       5 GLY6        0.0000 
     50 CA         25.2900  -22.5800   25.5200 C.3       5 GLY6        0.0000 
     51 CA         25.1800  -21.4800   24.5100 C.3       5 GLY6        0.0000 
     52 CA         26.5200  -21.8500   23.9600 C.3       5 GLY6        0.0000 
     53 CA         23.7300  -20.0000   24.0600 C.3       5 GLY6        0.0000 
     54 CA         25.0700  -20.3700   23.5100 C.3       5 GLY6        0.0000 
     55 CA         22.2700  -18.5200   23.6100 C.3       5 GLY6        0.0000 
     56 CA         23.2600  -20.9000   27.5900 C.3       5 GLY6        0.0000 
     57 CA         24.6100  -21.2700   27.0400 C.3       5 GLY6        0.0000 
     58 CA         25.9500  -21.6400   26.4800 C.3       5 GLY6        0.0000 
     59 CA         20.4700  -19.0500   27.7000 C.3       5 GLY6        0.0000 
     60 CA         25.8400  -20.5400   25.4800 C.3       5 GLY6        0.0000 
     61 CA         27.1800  -20.9100   24.9200 C.3       5 GLY6        0.0000 
     62 CA         24.3900  -19.0600   25.0300 C.3       5 GLY6        0.0000 
     63 CA         22.9300  -17.5800   24.5700 C.3       5 GLY6        0.0000 
     64 CA         24.2800  -17.9500   24.0200 C.3       5 GLY6        0.0000 
     65 CA         25.2700  -20.3300   28.0000 C.3       5 GLY6        0.0000 
     66 CA         26.6100  -20.7000   27.4400 C.3       5 GLY6        0.0000 
     67 CA         27.8400  -19.9700   25.8800 C.3       5 GLY6        0.0000 
     68 CA         24.8300  -15.9000   23.9700 C.3       5 GLY6        0.0000 
     69 CA         27.2700  -19.7600   28.4100 C.3       5 GLY6        0.0000 
     70 CA         28.6100  -20.1300   27.8500 C.3       5 GLY6        0.0000 
     71 DU         21.9400  -22.7800   25.6700 H         6 CUB7        0.0000 
     72 DU         21.8300  -21.6700   24.6600 H         6 CUB7        0.0000 
     73 DU         23.1800  -22.0500   24.1100 H         6 CUB7        0.0000 
     74 DU         24.5200  -22.4200   23.5500 H         6 CUB7        0.0000 
     75 DU         21.7200  -20.5700   23.6600 H         6 CUB7        0.0000 
     76 DU         24.4100  -21.3100   22.5400 H         6 CUB7        0.0000 
     77 DU         21.2600  -21.4700   27.1900 H         6 CUB7        0.0000 
     78 DU         22.6000  -21.8400   26.6300 H         6 CUB7        0.0000 
     79 DU         21.1500  -20.3600   26.1800 H         6 CUB7        0.0000 
     80 DU         23.8400  -21.1100   25.0700 H         6 CUB7        0.0000 
     81 DU         22.3800  -19.6300   24.6200 H         6 CUB7        0.0000 
     82 DU         24.5000  -20.1600   26.0300 H         6 CUB7        0.0000 
     83 DU         21.7000  -18.3100   26.1400 H         6 CUB7        0.0000 
     84 DU         23.0400  -18.6800   25.5800 H         6 CUB7        0.0000 
@<TRIPOS>BOND
@<TRIPOS>SUBSTRUCTURE
     1 SER1        1 GROUP   
     2 ALA2        8 GROUP   
     3 ASP3       17 GROUP   
     4 LYS4       36 GROUP   
     5 GLY6       42 GROUP   
     6 CUB7       71 GROUP   
@<TRIPOS>SET

