#    Name: 6as7_1_DCP_CAVITY_N1_6
#    Modification time : Fri May 22 19:27:45 2020

@<TRIPOS>MOLECULE
6as7_1_DCP_CAVITY_N1_6
   17     0     5     0     0
SMALL
NO_CHARGES


@<TRIPOS>ATOM
      1 OG         25.7300  -19.4300   24.4700 O.3       1 SER1        0.0000 
      2 OG         25.0500  -18.1200   25.9900 O.3       1 SER1        0.0000 
      3 OG         24.9400  -17.0100   24.9800 O.3       1 SER1        0.0000 
      4 N          25.6200  -18.3200   23.4600 N.am      2 ALA2        0.0000 
      5 N          22.8200  -16.4700   23.5700 N.am      2 ALA2        0.0000 
      6 OD1        23.7100  -17.7400   26.5400 O.co2     3 ASP3        0.0000 
      7 OD1        22.2500  -16.2600   26.0900 O.co2     3 ASP3        0.0000 
      8 OD1        23.6000  -16.6400   25.5400 O.co2     3 ASP3        0.0000 
      9 OD1        22.1400  -15.1600   25.0900 O.co2     3 ASP3        0.0000 
     10 OD1        23.4900  -15.5300   24.5300 O.co2     3 ASP3        0.0000 
     11 OD1        25.7100  -17.1700   26.9500 O.co2     3 ASP3        0.0000 
     12 CA         22.2700  -18.5200   23.6100 C.3       4 GLY6        0.0000 
     13 CA         24.3900  -19.0600   25.0300 C.3       4 GLY6        0.0000 
     14 CA         22.9300  -17.5800   24.5700 C.3       4 GLY6        0.0000 
     15 CA         24.2800  -17.9500   24.0200 C.3       4 GLY6        0.0000 
     16 CA         24.8300  -15.9000   23.9700 C.3       4 GLY6        0.0000 
     17 DU         23.0400  -18.6800   25.5800 H         5 CUB7        0.0000 
@<TRIPOS>BOND
@<TRIPOS>SUBSTRUCTURE
     1 SER1        1 GROUP   
     2 ALA2        4 GROUP   
     3 ASP3        6 GROUP   
     4 GLY6       12 GROUP   
     5 CUB7       17 GROUP   
@<TRIPOS>SET

