#    Name: 6as7_1_DCP_CAVITY_N1_8
#    Modification time : Fri May 22 19:27:45 2020

@<TRIPOS>MOLECULE
6as7_1_DCP_CAVITY_N1_8
   44     0     6     0     0
SMALL
NO_CHARGES


@<TRIPOS>ATOM
      1 OG         26.4100  -20.7400   22.9500 O.3       1 SER1        0.0000 
      2 OG         25.7300  -19.4300   24.4700 O.3       1 SER1        0.0000 
      3 OG         26.5000  -19.6000   26.4400 O.3       1 SER1        0.0000 
      4 OG         25.0500  -18.1200   25.9900 O.3       1 SER1        0.0000 
      5 OG         24.9400  -17.0100   24.9800 O.3       1 SER1        0.0000 
      6 OG         28.5000  -19.0300   26.8400 O.3       1 SER1        0.0000 
      7 N          25.7500  -21.6900   21.9900 N.am      2 ALA2        0.0000 
      8 O          21.6100  -19.4600   22.6500 O.2       2 ALA2        0.0000 
      9 N          25.6200  -18.3200   23.4600 N.am      2 ALA2        0.0000 
     10 N          22.8200  -16.4700   23.5700 N.am      2 ALA2        0.0000 
     11 OD1        21.8100  -19.4200   27.1400 O.co2     3 ASP3        0.0000 
     12 OD1        23.1500  -19.7900   26.5900 O.co2     3 ASP3        0.0000 
     13 OD1        22.4700  -18.4800   28.1100 O.co2     3 ASP3        0.0000 
     14 OD1        23.8200  -18.8500   27.5500 O.co2     3 ASP3        0.0000 
     15 OD1        25.1600  -19.2200   26.9900 O.co2     3 ASP3        0.0000 
     16 OD1        21.0200  -17.0000   27.6600 O.co2     3 ASP3        0.0000 
     17 OD1        22.3600  -17.3700   27.1000 O.co2     3 ASP3        0.0000 
     18 OD1        23.7100  -17.7400   26.5400 O.co2     3 ASP3        0.0000 
     19 OD1        22.2500  -16.2600   26.0900 O.co2     3 ASP3        0.0000 
     20 OD1        23.6000  -16.6400   25.5400 O.co2     3 ASP3        0.0000 
     21 OD1        22.1400  -15.1600   25.0900 O.co2     3 ASP3        0.0000 
     22 OD1        23.4900  -15.5300   24.5300 O.co2     3 ASP3        0.0000 
     23 OD1        27.1600  -18.6500   27.4000 O.co2     3 ASP3        0.0000 
     24 OD1        25.7100  -17.1700   26.9500 O.co2     3 ASP3        0.0000 
     25 NZ         23.0700  -20.9400   23.1000 N.4       4 LYS4        0.0000 
     26 CA         25.1800  -21.4800   24.5100 C.3       5 GLY6        0.0000 
     27 CA         26.5200  -21.8500   23.9600 C.3       5 GLY6        0.0000 
     28 CA         23.7300  -20.0000   24.0600 C.3       5 GLY6        0.0000 
     29 CA         25.0700  -20.3700   23.5100 C.3       5 GLY6        0.0000 
     30 CA         22.2700  -18.5200   23.6100 C.3       5 GLY6        0.0000 
     31 CA         25.8400  -20.5400   25.4800 C.3       5 GLY6        0.0000 
     32 CA         27.1800  -20.9100   24.9200 C.3       5 GLY6        0.0000 
     33 CA         24.3900  -19.0600   25.0300 C.3       5 GLY6        0.0000 
     34 CA         22.9300  -17.5800   24.5700 C.3       5 GLY6        0.0000 
     35 CA         24.2800  -17.9500   24.0200 C.3       5 GLY6        0.0000 
     36 CA         27.8400  -19.9700   25.8800 C.3       5 GLY6        0.0000 
     37 CA         24.8300  -15.9000   23.9700 C.3       5 GLY6        0.0000 
     38 DU         21.7200  -20.5700   23.6600 H         6 CUB7        0.0000 
     39 DU         24.4100  -21.3100   22.5400 H         6 CUB7        0.0000 
     40 DU         23.8400  -21.1100   25.0700 H         6 CUB7        0.0000 
     41 DU         22.3800  -19.6300   24.6200 H         6 CUB7        0.0000 
     42 DU         24.5000  -20.1600   26.0300 H         6 CUB7        0.0000 
     43 DU         21.7000  -18.3100   26.1400 H         6 CUB7        0.0000 
     44 DU         23.0400  -18.6800   25.5800 H         6 CUB7        0.0000 
@<TRIPOS>BOND
@<TRIPOS>SUBSTRUCTURE
     1 SER1        1 GROUP   
     2 ALA2        7 GROUP   
     3 ASP3       11 GROUP   
     4 LYS4       25 GROUP   
     5 GLY6       26 GROUP   
     6 CUB7       38 GROUP   
@<TRIPOS>SET

