#    Name: 6as7_1_DCP
#    Modification time : Fri May 22 19:27:43 2020

@<TRIPOS>MOLECULE
6as7_1_DCP
   28    29     1     0     0
SMALL
NO_CHARGES


@<TRIPOS>ATOM
      1 N1         33.1500   -8.2810   22.8070 N.am      1 DCP1301     0.0000 
      2 C2         34.1750   -7.9740   23.6670 C.2       1 DCP1301     0.0000 
      3 N3         33.9600   -7.1420   24.7350 N.2       1 DCP1301     0.0000 
      4 C4         32.7270   -6.6210   24.9980 C.2       1 DCP1301     0.0000 
      5 C5         31.6330   -6.9230   24.1290 C.2       1 DCP1301     0.0000 
      6 C6         31.8690   -7.7580   23.0580 C.2       1 DCP1301     0.0000 
      7 O2         35.2990   -8.4190   23.4690 O.2       1 DCP1301     0.0000 
      8 N4         32.5330   -5.7870   26.0880 N.pl3     1 DCP1301     0.0000 
      9 C1'        33.3980   -9.1900   21.6320 C.3       1 DCP1301     0.0000 
     10 C2'        33.3630  -10.6580   22.0740 C.3       1 DCP1301     0.0000 
     11 C3'        31.9170  -11.0840   21.7680 C.3       1 DCP1301     0.0000 
     12 C4'        31.6510  -10.3120   20.4380 C.3       1 DCP1301     0.0000 
     13 O4'        32.3740   -9.0350   20.6100 O.3       1 DCP1301     0.0000 
     14 O3'        31.8810  -12.5100   21.5500 O.3       1 DCP1301     0.0000 
     15 C5'        30.1290  -10.0030   20.2010 C.3       1 DCP1301     0.0000 
     16 O5'        29.6310   -9.0010   21.1320 O.3       1 DCP1301     0.0000 
     17 PA         28.1780   -9.3480   21.8350 P.3       1 DCP1301     0.0000 
     18 O1A        27.2330   -9.8860   20.8270 O.co2     1 DCP1301     0.0000 
     19 O2A        27.5670   -7.9820   22.4430 O.co2     1 DCP1301     0.0000 
     20 O3A        28.4200  -10.4220   23.0690 O.3       1 DCP1301     0.0000 
     21 PB         28.0940  -12.0350   22.7950 P.3       1 DCP1301     0.0000 
     22 O1B        27.8570  -12.3550   21.2340 O.co2     1 DCP1301     0.0000 
     23 O2B        29.2730  -12.8190   23.2460 O.co2     1 DCP1301     0.0000 
     24 O3B        26.7810  -12.5170   23.6910 O.3       1 DCP1301     0.0000 
     25 PG         25.3380  -12.6090   22.9010 P.3       1 DCP1301     0.0000 
     26 O1G        25.3500  -11.8210   21.5060 O.co2     1 DCP1301     0.0000 
     27 O2G        24.9690  -14.1360   22.6410 O.co2     1 DCP1301     0.0000 
     28 O3G        24.2810  -12.0120   23.7530 O.co2     1 DCP1301     0.0000 
@<TRIPOS>BOND
     1    1    2 am   
     2    1    6 1    
     3    1    9 1    
     4    2    3 1    
     5    2    7 2    
     6    3    4 2    
     7    4    5 1    
     8    4    8 1    
     9    5    6 2    
    10    9   10 1    
    11    9   13 1    
    12   10   11 1    
    13   11   12 1    
    14   11   14 1    
    15   12   13 1    
    16   12   15 1    
    17   15   16 1    
    18   16   17 1    
    19   17   18 ar   
    20   17   19 ar   
    21   17   20 1    
    22   20   21 1    
    23   21   22 ar   
    24   21   23 ar   
    25   21   24 1    
    26   24   25 1    
    27   25   26 ar   
    28   25   27 ar   
    29   25   28 ar   
@<TRIPOS>SUBSTRUCTURE
     1 DCP1301     1 GROUP   
@<TRIPOS>SET

