#    Name: 6gne_2_ADP_CAVITY_N1_ALL
#    Modification time : Fri May 22 19:27:41 2020

@<TRIPOS>MOLECULE
6gne_2_ADP_CAVITY_N1_ALL
  108     0     7     0     0
SMALL
NO_CHARGES


@<TRIPOS>ATOM
      1 OG        -88.1900   22.7700  -18.8300 O.3       1 SER1        0.0000 
      2 OG        -88.2600   24.1200  -19.4800 O.3       1 SER1        0.0000 
      3 OG        -88.4300   23.4000  -17.4900 O.3       1 SER1        0.0000 
      4 OG        -90.2200   29.1500   -8.7700 O.3       1 SER1        0.0000 
      5 OG        -86.7100   22.9400  -18.6500 O.3       1 SER1        0.0000 
      6 O         -91.3000   25.1200  -20.5100 O.2       2 ALA2        0.0000 
      7 O         -91.1300   26.3700  -10.9900 O.2       2 ALA2        0.0000 
      8 O         -89.6600   26.5400  -10.8000 O.2       2 ALA2        0.0000 
      9 O         -89.9000   27.1700   -9.4600 O.2       2 ALA2        0.0000 
     10 O         -88.1000   25.3700   -9.9600 O.2       2 ALA2        0.0000 
     11 O         -88.1800   26.7200  -10.6100 O.2       2 ALA2        0.0000 
     12 N         -88.2600   28.0700  -11.2600 N.am      2 ALA2        0.0000 
     13 N         -88.5000   28.7000   -9.9200 N.am      2 ALA2        0.0000 
     14 N         -88.7500   29.3300   -8.5800 N.am      2 ALA2        0.0000 
     15 N         -88.9100   28.6000   -6.5900 N.am      2 ALA2        0.0000 
     16 N         -88.9900   29.9600   -7.2400 N.am      2 ALA2        0.0000 
     17 O         -86.5500   24.1900   -9.1200 O.2       2 ALA2        0.0000 
     18 O         -86.7800   28.2400  -11.0700 O.2       2 ALA2        0.0000 
     19 O         -86.7100   23.4700   -7.1400 O.2       2 ALA2        0.0000 
     20 O         -86.7900   24.8200   -7.7900 O.2       2 ALA2        0.0000 
     21 O         -86.8700   26.1700   -8.4300 O.2       2 ALA2        0.0000 
     22 O         -87.1100   26.8000   -7.0900 O.2       2 ALA2        0.0000 
     23 O         -87.1900   28.1500   -7.7400 O.2       2 ALA2        0.0000 
     24 O         -87.2700   29.5000   -8.3900 O.2       2 ALA2        0.0000 
     25 O         -87.4400   28.7800   -6.4000 O.2       2 ALA2        0.0000 
     26 O         -85.5600   25.6300   -6.2600 O.2       2 ALA2        0.0000 
     27 OD1       -88.3500   22.0500  -16.8500 O.co2     3 ASP3        0.0000 
     28 OD1       -88.6000   22.6700  -15.5100 O.co2     3 ASP3        0.0000 
     29 OD1       -88.6800   24.0200  -16.1600 O.co2     3 ASP3        0.0000 
     30 OD1       -88.8400   23.3000  -14.1700 O.co2     3 ASP3        0.0000 
     31 OD1       -88.9200   24.6500  -14.8200 O.co2     3 ASP3        0.0000 
     32 OD1       -89.0900   23.9300  -12.8300 O.co2     3 ASP3        0.0000 
     33 OD1       -89.1700   25.2800  -13.4800 O.co2     3 ASP3        0.0000 
     34 OD1       -86.6300   21.5900  -18.0000 O.co2     3 ASP3        0.0000 
     35 OD1       -87.8600   24.7400  -11.3000 O.co2     3 ASP3        0.0000 
     36 OD1       -87.9300   26.0900  -11.9500 O.co2     3 ASP3        0.0000 
     37 OD1       -86.3800   24.9100  -11.1100 O.co2     3 ASP3        0.0000 
     38 OD1       -86.4600   26.2600  -11.7600 O.co2     3 ASP3        0.0000 
     39 OD1       -86.6200   25.5400   -9.7700 O.co2     3 ASP3        0.0000 
     40 OD1       -86.7000   26.8900  -10.4200 O.co2     3 ASP3        0.0000 
     41 OD1       -85.2200   27.0700  -10.2300 O.co2     3 ASP3        0.0000 
     42 OD1       -85.3100   25.0000   -7.6000 O.co2     3 ASP3        0.0000 
     43 OD1       -85.3900   26.3500   -8.2500 O.co2     3 ASP3        0.0000 
     44 NZ        -92.0300   27.0000  -16.4900 N.4       4 LYS4        0.0000 
     45 NZ        -92.1200   24.9300  -13.8500 N.4       4 LYS4        0.0000 
     46 NZ        -92.2000   26.2800  -14.5000 N.4       4 LYS4        0.0000 
     47 NZ        -90.7200   26.4600  -14.3100 N.4       4 LYS4        0.0000 
     48 NZ        -90.8000   27.8100  -14.9600 N.4       4 LYS4        0.0000 
     49 NZ        -90.9700   27.0900  -12.9700 N.4       4 LYS4        0.0000 
     50 NZ        -91.0400   28.4400  -13.6200 N.4       4 LYS4        0.0000 
     51 NZ        -86.9500   27.5200   -9.0800 N.4       4 LYS4        0.0000 
     52 NZ        -87.0200   28.8700   -9.7300 N.4       4 LYS4        0.0000 
     53 CZ        -91.3900   23.0500  -17.8700 C.ar      5 PHE5        0.0000 
     54 CZ        -91.4600   24.4000  -18.5200 C.ar      5 PHE5        0.0000 
     55 CZ        -91.5400   25.7500  -19.1700 C.ar      5 PHE5        0.0000 
     56 CZ        -91.6300   23.6700  -16.5300 C.ar      5 PHE5        0.0000 
     57 CZ        -91.7100   25.0200  -17.1800 C.ar      5 PHE5        0.0000 
     58 CZ        -91.7900   26.3800  -17.8300 C.ar      5 PHE5        0.0000 
     59 CZ        -91.8800   24.3000  -15.1900 C.ar      5 PHE5        0.0000 
     60 CZ        -89.5900   21.2400  -18.3700 C.ar      5 PHE5        0.0000 
     61 CZ        -89.7400   23.9400  -19.6700 C.ar      5 PHE5        0.0000 
     62 CZ        -89.8200   25.2900  -20.3200 C.ar      5 PHE5        0.0000 
     63 CZ        -89.8300   21.8700  -17.0300 C.ar      5 PHE5        0.0000 
     64 CZ        -89.9100   23.2200  -17.6800 C.ar      5 PHE5        0.0000 
     65 CZ        -89.9900   24.5700  -18.3300 C.ar      5 PHE5        0.0000 
     66 CZ        -90.1500   23.8500  -16.3400 C.ar      5 PHE5        0.0000 
     67 CZ        -90.2300   25.2000  -16.9900 C.ar      5 PHE5        0.0000 
     68 CZ        -90.4800   25.8300  -15.6500 C.ar      5 PHE5        0.0000 
     69 CZ        -88.5100   24.7500  -18.1400 C.ar      5 PHE5        0.0000 
     70 CZ        -89.0000   26.0000  -15.4600 C.ar      5 PHE5        0.0000 
     71 CA        -90.8200   20.4400  -19.9000 C.3       6 GLY6        0.0000 
     72 CA        -90.9000   21.7900  -20.5500 C.3       6 GLY6        0.0000 
     73 CA        -91.1400   22.4200  -19.2100 C.3       6 GLY6        0.0000 
     74 CA        -92.4400   26.9100  -13.1600 C.3       6 GLY6        0.0000 
     75 CA        -89.7500   20.5200  -16.3900 C.3       6 GLY6        0.0000 
     76 CA        -90.0800   22.5000  -15.7000 C.3       6 GLY6        0.0000 
     77 CA        -90.3200   23.1300  -14.3600 C.3       6 GLY6        0.0000 
     78 CA        -91.2100   27.7200  -11.6300 C.3       6 GLY6        0.0000 
     79 CA        -89.3200   27.9800  -14.7700 C.3       6 GLY6        0.0000 
     80 CA        -89.5700   28.6100  -13.4300 C.3       6 GLY6        0.0000 
     81 CA        -89.7300   27.8900  -11.4500 C.3       6 GLY6        0.0000 
     82 CA        -89.9800   28.5200  -10.1100 C.3       6 GLY6        0.0000 
     83 CA        -90.1500   27.8000   -8.1200 C.3       6 GLY6        0.0000 
     84 CA        -87.7800   23.3900  -10.6500 C.3       6 GLY6        0.0000 
     85 CA        -88.3500   26.0000   -8.6200 C.3       6 GLY6        0.0000 
     86 CA        -88.4200   27.3500   -9.2700 C.3       6 GLY6        0.0000 
     87 CA        -88.5900   26.6300   -7.2800 C.3       6 GLY6        0.0000 
     88 CA        -88.6700   27.9800   -7.9300 C.3       6 GLY6        0.0000 
     89 CA        -84.9800   22.4900  -19.8000 C.3       6 GLY6        0.0000 
     90 CA        -85.1500   21.7700  -17.8100 C.3       6 GLY6        0.0000 
     91 CA        -85.2300   23.1200  -18.4600 C.3       6 GLY6        0.0000 
     92 CA        -86.9600   24.1000   -5.8000 C.3       6 GLY6        0.0000 
     93 CA        -87.0400   25.4500   -6.4500 C.3       6 GLY6        0.0000 
     94 CA        -85.2400   23.6500   -6.9500 C.3       6 GLY6        0.0000 
     95 CA        -85.4800   24.2700   -5.6100 C.3       6 GLY6        0.0000 
     96 CA        -85.6400   26.9800   -6.9100 C.3       6 GLY6        0.0000 
     97 DU        -90.9700   23.1400  -21.2000 H         7 CUB7        0.0000 
     98 DU        -91.2200   23.7700  -19.8600 H         7 CUB7        0.0000 
     99 DU        -91.9500   25.6500  -15.8400 H         7 CUB7        0.0000 
    100 DU        -89.4200   21.9600  -20.3600 H         7 CUB7        0.0000 
    101 DU        -89.5000   23.3100  -21.0100 H         7 CUB7        0.0000 
    102 DU        -89.6600   22.5900  -19.0200 H         7 CUB7        0.0000 
    103 DU        -90.4000   24.4800  -15.0000 H         7 CUB7        0.0000 
    104 DU        -90.6400   25.1100  -13.6600 H         7 CUB7        0.0000 
    105 DU        -88.1100   21.4200  -18.1900 H         7 CUB7        0.0000 
    106 DU        -89.2400   26.6300  -14.1300 H         7 CUB7        0.0000 
    107 DU        -89.4100   25.9100  -12.1400 H         7 CUB7        0.0000 
    108 DU        -89.4900   27.2600  -12.7900 H         7 CUB7        0.0000 
@<TRIPOS>BOND
@<TRIPOS>SUBSTRUCTURE
     1 SER1        1 GROUP   
     2 ALA2        6 GROUP   
     3 ASP3       27 GROUP   
     4 LYS4       44 GROUP   
     5 PHE5       53 GROUP   
     6 GLY6       71 GROUP   
     7 CUB7       97 GROUP   
@<TRIPOS>SET

