#    Name: 6gne_1_ADP
#    Modification time : Fri May 22 19:27:31 2020

@<TRIPOS>MOLECULE
6gne_1_ADP
   27    29     1     0     1
SMALL
NO_CHARGES


@<TRIPOS>ATOM
      1 PB        -32.9880   15.9330   -9.3540 P.3       1 ADP601      0.0000 
      2 O1B       -31.5050   15.8750   -9.5720 O.co2     1 ADP601      0.0000 
      3 O2B       -33.6400   14.6830   -8.8380 O.co2     1 ADP601      0.0000 
      4 O3B       -33.3650   17.1350   -8.5190 O.co2     1 ADP601      0.0000 
      5 PA        -33.0200   15.8090  -12.2360 P.3       1 ADP601      0.0000 
      6 O1A       -34.1090   16.0700  -13.2360 O.co2     1 ADP601      0.0000 
      7 O2A       -31.7340   16.5530  -12.4870 O.co2     1 ADP601      0.0000 
      8 O3A       -33.6580   16.1560  -10.7990 O.3       1 ADP601      0.0000 
      9 O5'       -32.6590   14.2460  -12.1580 O.3       1 ADP601      0.0000 
     10 C5'       -33.6390   13.2510  -11.8580 C.3       1 ADP601      0.0000 
     11 C4'       -33.2650   11.8340  -12.3300 C.3       1 ADP601      0.0000 
     12 O4'       -33.7590   10.8640  -11.3940 O.3       1 ADP601      0.0000 
     13 C3'       -33.9150   11.4460  -13.6420 C.3       1 ADP601      0.0000 
     14 O3'       -33.1130   10.4600  -14.2700 O.3       1 ADP601      0.0000 
     15 C2'       -35.2160   10.8140  -13.2210 C.3       1 ADP601      0.0000 
     16 O2'       -35.7380    9.9250  -14.1920 O.3       1 ADP601      0.0000 
     17 C1'       -34.7850   10.0720  -11.9910 C.3       1 ADP601      0.0000 
     18 N9        -35.8620    9.8860  -10.9940 N.pl3     1 ADP601      0.0000 
     19 C8        -36.3340   10.7940  -10.1310 C.2       1 ADP601      0.0000 
     20 N7        -37.2830   10.2460   -9.3390 N.2       1 ADP601      0.0000 
     21 C5        -37.4270    8.9590   -9.6920 C.ar      1 ADP601      0.0000 
     22 C6        -38.2700    7.7980   -9.2670 C.ar      1 ADP601      0.0000 
     23 N6        -39.1810    7.9430   -8.2720 N.pl3     1 ADP601      0.0000 
     24 N1        -38.0850    6.6160   -9.9210 N.ar      1 ADP601      0.0000 
     25 C2        -37.1820    6.5030  -10.9290 C.ar      1 ADP601      0.0000 
     26 N3        -36.4070    7.5140  -11.3540 N.ar      1 ADP601      0.0000 
     27 C4        -36.4860    8.7350  -10.7880 C.ar      1 ADP601      0.0000 
@<TRIPOS>BOND
     1    1    2 ar   
     2    1    3 ar   
     3    1    4 ar   
     4    1    8 1    
     5    5    6 ar   
     6    5    7 ar   
     7    5    8 1    
     8    5    9 1    
     9    9   10 1    
    10   10   11 1    
    11   11   12 1    
    12   11   13 1    
    13   12   17 1    
    14   13   14 1    
    15   13   15 1    
    16   15   16 1    
    17   15   17 1    
    18   17   18 1    
    19   18   19 1    
    20   18   27 1    
    21   19   20 2    
    22   20   21 1    
    23   21   22 ar   
    24   21   27 ar   
    25   22   23 1    
    26   22   24 ar   
    27   24   25 ar   
    28   25   26 ar   
    29   26   27 ar   
@<TRIPOS>SUBSTRUCTURE
     1 ADP601      1 GROUP   
@<TRIPOS>SET
ATOM$ORANGE STATIC     ATOMS   COLORGROUP SYSTEM 
20 10 10 11 11 13 13 15 15 17 17 19 19 21 21 22 22 25 \
25 27 27 

