#    Name: 6gne_1_ADP_CAVITY_N1_4
#    Modification time : Fri May 22 19:27:33 2020

@<TRIPOS>MOLECULE
6gne_1_ADP_CAVITY_N1_4
   40     0     5     0     0
SMALL
NO_CHARGES


@<TRIPOS>ATOM
      1 O         -33.3800   15.7500  -12.2300 O.2       1 ALA2        0.0000 
      2 O         -33.5500   15.0300  -10.2400 O.2       1 ALA2        0.0000 
      3 O         -32.0700   15.2100  -10.0500 O.2       1 ALA2        0.0000 
      4 O         -32.1500   16.5600  -10.7000 O.2       1 ALA2        0.0000 
      5 O         -32.7200   19.1600   -8.6700 O.2       1 ALA2        0.0000 
      6 O         -30.5800   18.8000  -13.1500 O.2       1 ALA2        0.0000 
      7 O         -30.8300   19.4300  -11.8100 O.2       1 ALA2        0.0000 
      8 O         -30.7600   14.6600   -7.8800 O.2       1 ALA2        0.0000 
      9 O         -30.8400   16.0100   -8.5300 O.2       1 ALA2        0.0000 
     10 O         -31.2400   19.3400   -8.4800 O.2       1 ALA2        0.0000 
     11 N         -29.0300   17.6300  -12.3100 N.am      1 ALA2        0.0000 
     12 N         -29.1100   18.9800  -12.9600 N.am      1 ALA2        0.0000 
     13 N         -29.2700   18.2600  -10.9700 N.am      1 ALA2        0.0000 
     14 N         -29.3500   19.6100  -11.6200 N.am      1 ALA2        0.0000 
     15 O         -29.3600   16.1800   -8.3400 O.2       1 ALA2        0.0000 
     16 N         -29.5200   18.8900   -9.6300 N.am      1 ALA2        0.0000 
     17 N         -29.6900   18.1600   -7.6500 N.am      1 ALA2        0.0000 
     18 OD1       -33.6300   16.3800  -10.8900 O.co2     2 ASP3        0.0000 
     19 OD1       -33.8000   15.6600   -8.9000 O.co2     2 ASP3        0.0000 
     20 OD1       -32.2400   14.4800   -8.0700 O.co2     2 ASP3        0.0000 
     21 OD1       -32.3200   15.8300   -8.7100 O.co2     2 ASP3        0.0000 
     22 OD1       -32.4000   17.1900   -9.3600 O.co2     2 ASP3        0.0000 
     23 OD1       -31.0100   15.2900   -6.5400 O.co2     2 ASP3        0.0000 
     24 OD1       -31.0900   16.6400   -7.1900 O.co2     2 ASP3        0.0000 
     25 NZ        -33.7100   17.7300  -11.5400 N.4       3 LYS4        0.0000 
     26 NZ        -32.2300   17.9100  -11.3500 N.4       3 LYS4        0.0000 
     27 NZ        -32.4700   18.5400  -10.0100 N.4       3 LYS4        0.0000 
     28 NZ        -31.0000   18.7100   -9.8200 N.4       3 LYS4        0.0000 
     29 CA        -33.4600   17.1000  -12.8800 C.3       4 GLY6        0.0000 
     30 CA        -31.9100   15.9300  -12.0400 C.3       4 GLY6        0.0000 
     31 CA        -31.9800   17.2800  -12.6900 C.3       4 GLY6        0.0000 
     32 CA        -30.5100   17.4500  -12.5000 C.3       4 GLY6        0.0000 
     33 CA        -30.6700   16.7300  -10.5100 C.3       4 GLY6        0.0000 
     34 CA        -29.2000   16.9100  -10.3300 C.3       4 GLY6        0.0000 
     35 CA        -27.8900   16.3600   -8.1500 C.3       4 GLY6        0.0000 
     36 DU        -30.7500   18.0800  -11.1600 H         5 CUB7        0.0000 
     37 DU        -30.9200   17.3600   -9.1700 H         5 CUB7        0.0000 
     38 DU        -29.4400   17.5400   -8.9900 H         5 CUB7        0.0000 
     39 DU        -29.5300   15.4600   -6.3500 H         5 CUB7        0.0000 
     40 DU        -29.6100   16.8100   -7.0000 H         5 CUB7        0.0000 
@<TRIPOS>BOND
@<TRIPOS>SUBSTRUCTURE
     1 ALA2        1 GROUP   
     2 ASP3       18 GROUP   
     3 LYS4       25 GROUP   
     4 GLY6       29 GROUP   
     5 CUB7       36 GROUP   
@<TRIPOS>SET

