#    Name: 6gne_1_ADP_CAVITY_N1_6
#    Modification time : Fri May 22 19:27:33 2020

@<TRIPOS>MOLECULE
6gne_1_ADP_CAVITY_N1_6
   63     0     7     0     0
SMALL
NO_CHARGES


@<TRIPOS>ATOM
      1 OG        -27.5500   17.8000  -12.1300 O.3       1 SER1        0.0000 
      2 O         -33.3800   15.7500  -12.2300 O.2       2 ALA2        0.0000 
      3 O         -33.5500   15.0300  -10.2400 O.2       2 ALA2        0.0000 
      4 O         -32.0700   15.2100  -10.0500 O.2       2 ALA2        0.0000 
      5 O         -32.1500   16.5600  -10.7000 O.2       2 ALA2        0.0000 
      6 O         -32.7200   19.1600   -8.6700 O.2       2 ALA2        0.0000 
      7 O         -30.5800   18.8000  -13.1500 O.2       2 ALA2        0.0000 
      8 O         -30.8300   19.4300  -11.8100 O.2       2 ALA2        0.0000 
      9 O         -30.7600   14.6600   -7.8800 O.2       2 ALA2        0.0000 
     10 O         -30.8400   16.0100   -8.5300 O.2       2 ALA2        0.0000 
     11 O         -31.2400   19.3400   -8.4800 O.2       2 ALA2        0.0000 
     12 N         -29.0300   17.6300  -12.3100 N.am      2 ALA2        0.0000 
     13 N         -29.1100   18.9800  -12.9600 N.am      2 ALA2        0.0000 
     14 N         -29.2700   18.2600  -10.9700 N.am      2 ALA2        0.0000 
     15 N         -29.3500   19.6100  -11.6200 N.am      2 ALA2        0.0000 
     16 O         -29.3600   16.1800   -8.3400 O.2       2 ALA2        0.0000 
     17 N         -29.5200   18.8900   -9.6300 N.am      2 ALA2        0.0000 
     18 N         -29.6000   20.2400  -10.2800 N.am      2 ALA2        0.0000 
     19 N         -29.6900   18.1600   -7.6500 N.am      2 ALA2        0.0000 
     20 N         -29.7600   19.5100   -8.3000 N.am      2 ALA2        0.0000 
     21 O         -27.7200   17.0800  -10.1400 O.2       2 ALA2        0.0000 
     22 OD1       -33.6300   16.3800  -10.8900 O.co2     3 ASP3        0.0000 
     23 OD1       -33.8000   15.6600   -8.9000 O.co2     3 ASP3        0.0000 
     24 OD1       -32.2400   14.4800   -8.0700 O.co2     3 ASP3        0.0000 
     25 OD1       -32.3200   15.8300   -8.7100 O.co2     3 ASP3        0.0000 
     26 OD1       -32.4000   17.1900   -9.3600 O.co2     3 ASP3        0.0000 
     27 OD1       -30.9300   13.9400   -5.8900 O.co2     3 ASP3        0.0000 
     28 OD1       -31.0100   15.2900   -6.5400 O.co2     3 ASP3        0.0000 
     29 OD1       -31.0900   16.6400   -7.1900 O.co2     3 ASP3        0.0000 
     30 OD1       -31.1800   14.5700   -4.5500 O.co2     3 ASP3        0.0000 
     31 OD1       -31.2500   15.9200   -5.2000 O.co2     3 ASP3        0.0000 
     32 OD1       -31.4200   15.2000   -3.2100 O.co2     3 ASP3        0.0000 
     33 OD1       -31.5000   16.5500   -3.8600 O.co2     3 ASP3        0.0000 
     34 NZ        -33.7100   17.7300  -11.5400 N.4       4 LYS4        0.0000 
     35 NZ        -32.2300   17.9100  -11.3500 N.4       4 LYS4        0.0000 
     36 NZ        -32.4700   18.5400  -10.0100 N.4       4 LYS4        0.0000 
     37 NZ        -31.0000   18.7100   -9.8200 N.4       4 LYS4        0.0000 
     38 NZ        -31.0700   20.0600  -10.4700 N.4       4 LYS4        0.0000 
     39 NZ        -29.4500   14.1100   -5.7000 N.4       4 LYS4        0.0000 
     40 NZ        -27.9800   14.2900   -5.5100 N.4       4 LYS4        0.0000 
     41 NZ        -28.1300   16.9900   -6.8100 N.4       4 LYS4        0.0000 
     42 CZ        -30.0200   16.7200   -3.6700 C.ar      5 PHE5        0.0000 
     43 CA        -33.4600   17.1000  -12.8800 C.3       6 GLY6        0.0000 
     44 CA        -31.9100   15.9300  -12.0400 C.3       6 GLY6        0.0000 
     45 CA        -31.9800   17.2800  -12.6900 C.3       6 GLY6        0.0000 
     46 CA        -30.5100   17.4500  -12.5000 C.3       6 GLY6        0.0000 
     47 CA        -30.6700   16.7300  -10.5100 C.3       6 GLY6        0.0000 
     48 CA        -31.3200   20.6900   -9.1300 C.3       6 GLY6        0.0000 
     49 CA        -31.1000   13.2200   -3.9000 C.3       6 GLY6        0.0000 
     50 CA        -29.2000   16.9100  -10.3300 C.3       6 GLY6        0.0000 
     51 CA        -27.8000   18.4300  -10.7900 C.3       6 GLY6        0.0000 
     52 CA        -27.8900   16.3600   -8.1500 C.3       6 GLY6        0.0000 
     53 CA        -27.9600   17.7100   -8.8000 C.3       6 GLY6        0.0000 
     54 CA        -28.0500   15.6400   -6.1600 C.3       6 GLY6        0.0000 
     55 CA        -28.2100   18.3400   -7.4600 C.3       6 GLY6        0.0000 
     56 DU        -30.7500   18.0800  -11.1600 H         7 CUB7        0.0000 
     57 DU        -30.9200   17.3600   -9.1700 H         7 CUB7        0.0000 
     58 DU        -29.4400   17.5400   -8.9900 H         7 CUB7        0.0000 
     59 DU        -29.5300   15.4600   -6.3500 H         7 CUB7        0.0000 
     60 DU        -29.6100   16.8100   -7.0000 H         7 CUB7        0.0000 
     61 DU        -29.7000   14.7400   -4.3600 H         7 CUB7        0.0000 
     62 DU        -29.7800   16.0900   -5.0100 H         7 CUB7        0.0000 
     63 DU        -28.3000   16.2700   -4.8200 H         7 CUB7        0.0000 
@<TRIPOS>BOND
@<TRIPOS>SUBSTRUCTURE
     1 SER1        1 GROUP   
     2 ALA2        2 GROUP   
     3 ASP3       22 GROUP   
     4 LYS4       34 GROUP   
     5 PHE5       42 GROUP   
     6 GLY6       43 GROUP   
     7 CUB7       56 GROUP   
@<TRIPOS>SET

