#    Name: 6gne_2_ADP
#    Modification time : Fri May 22 19:27:39 2020

@<TRIPOS>MOLECULE
6gne_2_ADP
   27    29     1     0     1
SMALL
NO_CHARGES


@<TRIPOS>ATOM
      1 PB        -86.3330   24.9170  -10.0060 P.3       1 ADP601      0.0000 
      2 O1B       -85.5290   25.7520  -10.9620 O.co2     1 ADP601      0.0000 
      3 O2B       -87.7490   25.3770   -9.7710 O.co2     1 ADP601      0.0000 
      4 O3B       -86.2300   23.4540  -10.3480 O.co2     1 ADP601      0.0000 
      5 PA        -86.1500   25.3030   -7.0950 P.3       1 ADP601      0.0000 
      6 O1A       -87.0540   26.5000   -6.9150 O.co2     1 ADP601      0.0000 
      7 O2A       -84.9740   25.2790   -6.1400 O.co2     1 ADP601      0.0000 
      8 O3A       -85.5600   25.1310   -8.6030 O.3       1 ADP601      0.0000 
      9 O5'       -87.0360   23.9820   -6.8880 O.3       1 ADP601      0.0000 
     10 C5'       -86.5210   22.6800   -7.0820 C.3       1 ADP601      0.0000 
     11 C4'       -87.3590   21.6680   -6.3020 C.3       1 ADP601      0.0000 
     12 O4'       -87.2700   20.3840   -6.9260 O.3       1 ADP601      0.0000 
     13 C3'       -86.8500   21.4530   -4.8870 C.3       1 ADP601      0.0000 
     14 O3'       -87.9110   21.0020   -4.0400 O.3       1 ADP601      0.0000 
     15 C2'       -85.8140   20.3660   -5.0640 C.3       1 ADP601      0.0000 
     16 O2'       -85.5340   19.6820   -3.8360 O.3       1 ADP601      0.0000 
     17 C1'       -86.4810   19.5090   -6.1190 C.3       1 ADP601      0.0000 
     18 N9        -85.5430   18.8060   -7.0240 N.pl3     1 ADP601      0.0000 
     19 C8        -84.8090   19.3210   -8.0400 C.2       1 ADP601      0.0000 
     20 N7        -84.0940   18.3430   -8.6670 N.2       1 ADP601      0.0000 
     21 C5        -84.3860   17.1820   -8.0500 C.ar      1 ADP601      0.0000 
     22 C6        -83.9990   15.7580   -8.1770 C.ar      1 ADP601      0.0000 
     23 N6        -83.1260   15.3580   -9.1270 N.pl3     1 ADP601      0.0000 
     24 N1        -84.5650   14.8780   -7.3150 N.ar      1 ADP601      0.0000 
     25 C2        -85.4360   15.2480   -6.3500 C.ar      1 ADP601      0.0000 
     26 N3        -85.8210   16.5110   -6.1720 N.ar      1 ADP601      0.0000 
     27 C4        -85.3450   17.4930   -6.9770 C.ar      1 ADP601      0.0000 
@<TRIPOS>BOND
     1    1    2 ar   
     2    1    3 ar   
     3    1    4 ar   
     4    1    8 1    
     5    5    6 ar   
     6    5    7 ar   
     7    5    8 1    
     8    5    9 1    
     9    9   10 1    
    10   10   11 1    
    11   11   12 1    
    12   11   13 1    
    13   12   17 1    
    14   13   14 1    
    15   13   15 1    
    16   15   16 1    
    17   15   17 1    
    18   17   18 1    
    19   18   19 1    
    20   18   27 1    
    21   19   20 2    
    22   20   21 1    
    23   21   22 ar   
    24   21   27 ar   
    25   22   23 1    
    26   22   24 ar   
    27   24   25 ar   
    28   25   26 ar   
    29   26   27 ar   
@<TRIPOS>SUBSTRUCTURE
     1 ADP601      1 GROUP   
@<TRIPOS>SET
ATOM$ORANGE STATIC     ATOMS   COLORGROUP SYSTEM 
20 10 10 11 11 13 13 15 15 17 17 19 19 21 21 22 22 25 \
25 27 27 

