#    Name: 5nuf_2_NAD
#    Modification time : Fri May 22 19:13:33 2020

@<TRIPOS>MOLECULE
5nuf_2_NAD
   44    48     1     0     1
SMALL
NO_CHARGES


@<TRIPOS>ATOM
      1 PA         80.2500  133.5580  199.2950 P.3       1 NAD401      0.0000 
      2 O1A        79.1730  132.7160  198.6240 O.co2     1 NAD401      0.0000 
      3 O2A        79.9410  134.9980  199.5970 O.co2     1 NAD401      0.0000 
      4 O5B        80.8520  132.7370  200.4700 O.3       1 NAD401      0.0000 
      5 C5B        81.7730  133.2830  201.4170 C.3       1 NAD401      0.0000 
      6 C4B        81.2950  132.9130  202.8090 C.3       1 NAD401      0.0000 
      7 O4B        82.2250  133.4240  203.7400 O.3       1 NAD401      0.0000 
      8 C3B        79.9340  133.4970  203.2270 C.3       1 NAD401      0.0000 
      9 O3B        79.0110  132.4590  203.7150 O.3       1 NAD401      0.0000 
     10 C2B        80.2860  134.4540  204.3850 C.3       1 NAD401      0.0000 
     11 O2B        79.2250  134.6040  205.3880 O.3       1 NAD401      0.0000 
     12 C1B        81.4960  133.7860  204.9280 C.3       1 NAD401      0.0000 
     13 N9A        82.2730  134.6190  205.8750 N.pl3     1 NAD401      0.0000 
     14 C8A        82.3950  135.9710  205.9100 C.2       1 NAD401      0.0000 
     15 N7A        83.2080  136.3790  206.9620 N.2       1 NAD401      0.0000 
     16 C5A        83.5660  135.2270  207.5820 C.ar      1 NAD401      0.0000 
     17 C6A        84.3060  134.8860  208.7610 C.ar      1 NAD401      0.0000 
     18 N6A        84.9100  135.8450  209.5100 N.pl3     1 NAD401      0.0000 
     19 N1A        84.4560  133.6560  209.0860 N.ar      1 NAD401      0.0000 
     20 C2A        83.9120  132.6660  208.3570 C.ar      1 NAD401      0.0000 
     21 N3A        83.1230  132.8170  207.2860 N.ar      1 NAD401      0.0000 
     22 C4A        82.9320  134.0960  206.8650 C.ar      1 NAD401      0.0000 
     23 O3         81.5490  133.6230  198.2930 O.3       1 NAD401      0.0000 
     24 PN         82.0470  132.4290  197.3600 P.3       1 NAD401      0.0000 
     25 O1N        81.6100  132.6080  195.9760 O.co2     1 NAD401      0.0000 
     26 O2N        82.0000  131.1120  198.0660 O.co2     1 NAD401      0.0000 
     27 O5D        83.5640  132.9260  197.3430 O.3       1 NAD401      0.0000 
     28 C5D        84.3380  132.8550  198.5340 C.3       1 NAD401      0.0000 
     29 C4D        85.7060  133.5180  198.3290 C.3       1 NAD401      0.0000 
     30 O4D        86.5850  132.7860  197.4550 O.3       1 NAD401      0.0000 
     31 C3D        85.6250  134.9450  197.8140 C.3       1 NAD401      0.0000 
     32 O3D        86.6600  135.7110  198.4970 O.3       1 NAD401      0.0000 
     33 C2D        85.9800  134.7670  196.3580 C.3       1 NAD401      0.0000 
     34 O2D        86.5330  135.9510  195.7280 O.3       1 NAD401      0.0000 
     35 C1D        87.0610  133.7540  196.4510 C.3       1 NAD401      0.0000 
     36 N1N        87.4470  133.0070  195.3030 N.pl3     1 NAD401      0.0000 
     37 C2N        88.7030  132.5730  195.1780 C.ar      1 NAD401      0.0000 
     38 C3N        89.1260  131.7610  194.1180 C.ar      1 NAD401      0.0000 
     39 C7N        90.5520  131.3290  194.0120 C.2       1 NAD401      0.0000 
     40 O7N        91.4970  131.6510  194.8560 O.2       1 NAD401      0.0000 
     41 N7N        90.8490  130.5780  192.9940 N.am      1 NAD401      0.0000 
     42 C4N        88.1160  131.3790  193.1940 C.ar      1 NAD401      0.0000 
     43 C5N        86.8080  131.8320  193.3400 C.ar      1 NAD401      0.0000 
     44 C6N        86.4920  132.6230  194.4350 C.ar      1 NAD401      0.0000 
@<TRIPOS>BOND
     1    1    2 ar   
     2    1    3 ar   
     3    1    4 1    
     4    1   23 1    
     5    4    5 1    
     6    5    6 1    
     7    6    7 1    
     8    6    8 1    
     9    7   12 1    
    10    8    9 1    
    11    8   10 1    
    12   10   11 1    
    13   10   12 1    
    14   12   13 1    
    15   13   14 1    
    16   13   22 1    
    17   14   15 2    
    18   15   16 1    
    19   16   17 ar   
    20   16   22 ar   
    21   17   18 1    
    22   17   19 ar   
    23   19   20 ar   
    24   20   21 ar   
    25   21   22 ar   
    26   23   24 1    
    27   24   25 ar   
    28   24   26 ar   
    29   24   27 1    
    30   27   28 1    
    31   28   29 1    
    32   29   30 1    
    33   29   31 1    
    34   30   35 1    
    35   31   32 1    
    36   31   33 1    
    37   33   34 1    
    38   33   35 1    
    39   35   36 1    
    40   36   37 ar   
    41   36   44 ar   
    42   37   38 ar   
    43   38   39 1    
    44   38   42 ar   
    45   39   40 2    
    46   39   41 am   
    47   42   43 ar   
    48   43   44 ar   
@<TRIPOS>SUBSTRUCTURE
     1 NAD401      1 GROUP   
@<TRIPOS>SET
ATOM$ORANGE STATIC     ATOMS   COLORGROUP SYSTEM 
42 5 5 6 6 8 8 10 10 12 12 14 14 16 16 17 17 20 \
20 22 22 28 28 29 29 31 31 33 33 35 35 37 37 38 38 39 \
39 42 42 43 43 44 44 

