#    Name: 6quq_2_NAD
#    Modification time : Fri May 22 19:32:09 2020

@<TRIPOS>MOLECULE
6quq_2_NAD
   44    48     1     0     1
SMALL
NO_CHARGES


@<TRIPOS>ATOM
      1 PA         31.9760   38.0500  226.5540 P.3       1 NAD401      0.0000 
      2 O1A        32.2190   38.8270  227.7900 O.co2     1 NAD401      0.0000 
      3 O2A        33.1620   37.2580  226.1570 O.co2     1 NAD401      0.0000 
      4 O5B        31.5180   39.0500  225.3870 O.3       1 NAD401      0.0000 
      5 C5B        30.9110   40.2890  225.6530 C.3       1 NAD401      0.0000 
      6 C4B        31.5220   41.2910  224.6860 C.3       1 NAD401      0.0000 
      7 O4B        30.5810   42.2940  224.3960 O.3       1 NAD401      0.0000 
      8 C3B        32.7570   41.9690  225.2650 C.3       1 NAD401      0.0000 
      9 O3B        33.8090   41.8940  224.3340 O.3       1 NAD401      0.0000 
     10 C2B        32.3490   43.4140  225.4390 C.3       1 NAD401      0.0000 
     11 O2B        33.4120   44.2570  225.0640 O.3       1 NAD401      0.0000 
     12 C1B        31.1940   43.5580  224.4650 C.3       1 NAD401      0.0000 
     13 N9A        30.1730   44.5080  224.9140 N.pl3     1 NAD401      0.0000 
     14 C8A        29.8450   44.8140  226.2050 C.2       1 NAD401      0.0000 
     15 N7A        28.8430   45.7220  226.1790 N.2       1 NAD401      0.0000 
     16 C5A        28.5320   45.9900  224.8910 C.ar      1 NAD401      0.0000 
     17 C6A        27.5960   46.8320  224.3060 C.ar      1 NAD401      0.0000 
     18 N6A        26.9490   47.7200  225.0550 N.pl3     1 NAD401      0.0000 
     19 N1A        27.5030   46.8940  222.9290 N.ar      1 NAD401      0.0000 
     20 C2A        28.3340   46.1220  222.1430 C.ar      1 NAD401      0.0000 
     21 N3A        29.2640   45.2930  222.7350 N.ar      1 NAD401      0.0000 
     22 C4A        29.3590   45.2280  224.0840 C.ar      1 NAD401      0.0000 
     23 O3         30.6840   37.1140  226.7290 O.3       1 NAD401      0.0000 
     24 PN         30.5000   35.8670  225.7320 P.3       1 NAD401      0.0000 
     25 O1N        31.0700   34.6690  226.3880 O.co2     1 NAD401      0.0000 
     26 O2N        30.9570   36.2650  224.3800 O.co2     1 NAD401      0.0000 
     27 O5D        28.9020   35.7070  225.6930 O.3       1 NAD401      0.0000 
     28 C5D        28.0520   36.7170  225.2010 C.3       1 NAD401      0.0000 
     29 C4D        26.6370   36.1610  225.1770 C.3       1 NAD401      0.0000 
     30 O4D        26.6460   34.9000  224.5350 O.3       1 NAD401      0.0000 
     31 C3D        26.1330   35.9180  226.5890 C.3       1 NAD401      0.0000 
     32 O3D        24.7610   36.2230  226.6360 O.3       1 NAD401      0.0000 
     33 C2D        26.3520   34.4380  226.8090 C.3       1 NAD401      0.0000 
     34 O2D        25.3480   33.9330  227.6470 O.3       1 NAD401      0.0000 
     35 C1D        26.2050   33.8780  225.4080 C.3       1 NAD401      0.0000 
     36 N1N        26.9990   32.6560  225.1710 N.pl3     1 NAD401      0.0000 
     37 C2N        28.2760   32.5360  225.6520 C.ar      1 NAD401      0.0000 
     38 C3N        29.0120   31.3790  225.4030 C.ar      1 NAD401      0.0000 
     39 C7N        30.4020   31.2050  225.9400 C.2       1 NAD401      0.0000 
     40 O7N        30.9580   29.9110  225.9870 O.2       1 NAD401      0.0000 
     41 N7N        31.0800   32.2720  226.3570 N.am      1 NAD401      0.0000 
     42 C4N        28.4490   30.3550  224.6530 C.ar      1 NAD401      0.0000 
     43 C5N        27.1590   30.4930  224.1640 C.ar      1 NAD401      0.0000 
     44 C6N        26.4460   31.6540  224.4260 C.ar      1 NAD401      0.0000 
@<TRIPOS>BOND
     1    1    2 ar   
     2    1    3 ar   
     3    1    4 1    
     4    1   23 1    
     5    4    5 1    
     6    5    6 1    
     7    6    7 1    
     8    6    8 1    
     9    7   12 1    
    10    8    9 1    
    11    8   10 1    
    12   10   11 1    
    13   10   12 1    
    14   12   13 1    
    15   13   14 1    
    16   13   22 1    
    17   14   15 2    
    18   15   16 1    
    19   16   17 ar   
    20   16   22 ar   
    21   17   18 1    
    22   17   19 ar   
    23   19   20 ar   
    24   20   21 ar   
    25   21   22 ar   
    26   23   24 1    
    27   24   25 ar   
    28   24   26 ar   
    29   24   27 1    
    30   27   28 1    
    31   28   29 1    
    32   29   30 1    
    33   29   31 1    
    34   30   35 1    
    35   31   32 1    
    36   31   33 1    
    37   33   34 1    
    38   33   35 1    
    39   35   36 1    
    40   36   37 ar   
    41   36   44 ar   
    42   37   38 ar   
    43   38   39 1    
    44   38   42 ar   
    45   39   40 2    
    46   39   41 am   
    47   42   43 ar   
    48   43   44 ar   
@<TRIPOS>SUBSTRUCTURE
     1 NAD401      1 GROUP   
@<TRIPOS>SET
ATOM$ORANGE STATIC     ATOMS   COLORGROUP SYSTEM 
42 5 5 6 6 8 8 10 10 12 12 14 14 16 16 17 17 20 \
20 22 22 28 28 29 29 31 31 33 33 35 35 37 37 38 38 39 \
39 42 42 43 43 44 44 

