#    Name: 6quq_1_NAD
#    Modification time : Fri May 22 19:31:59 2020

@<TRIPOS>MOLECULE
6quq_1_NAD
   44    48     1     0     1
SMALL
NO_CHARGES


@<TRIPOS>ATOM
      1 PA         39.0830   44.2780  244.8040 P.3       1 NAD401      0.0000 
      2 O1A        38.4210   44.2990  243.4800 O.co2     1 NAD401      0.0000 
      3 O2A        39.0150   42.9390  245.4300 O.co2     1 NAD401      0.0000 
      4 O5B        38.4330   45.3930  245.7590 O.3       1 NAD401      0.0000 
      5 C5B        37.8200   46.5530  245.2510 C.3       1 NAD401      0.0000 
      6 C4B        36.5460   46.7410  246.0580 C.3       1 NAD401      0.0000 
      7 O4B        36.1890   48.1060  246.1720 O.3       1 NAD401      0.0000 
      8 C3B        35.3880   46.0080  245.4000 C.3       1 NAD401      0.0000 
      9 O3B        34.7790   45.1700  246.3540 O.3       1 NAD401      0.0000 
     10 C2B        34.4300   47.0990  244.9810 C.3       1 NAD401      0.0000 
     11 O2B        33.1060   46.6930  245.2320 O.3       1 NAD401      0.0000 
     12 C1B        34.8080   48.2470  245.8980 C.3       1 NAD401      0.0000 
     13 N9A        34.4740   49.5720  245.3440 N.pl3     1 NAD401      0.0000 
     14 C8A        34.4910   49.9790  244.0360 C.2       1 NAD401      0.0000 
     15 N7A        34.1160   51.2810  243.9960 N.2       1 NAD401      0.0000 
     16 C5A        33.8630   51.7050  245.2550 C.ar      1 NAD401      0.0000 
     17 C6A        33.4550   52.9290  245.7750 C.ar      1 NAD401      0.0000 
     18 N6A        33.5740   54.0220  245.0300 N.pl3     1 NAD401      0.0000 
     19 N1A        33.2760   53.0610  247.1380 N.ar      1 NAD401      0.0000 
     20 C2A        33.5050   51.9890  247.9760 C.ar      1 NAD401      0.0000 
     21 N3A        33.9060   50.7800  247.4470 N.ar      1 NAD401      0.0000 
     22 C4A        34.0870   50.6410  246.1110 C.ar      1 NAD401      0.0000 
     23 O3         40.6020   44.7810  244.6790 O.3       1 NAD401      0.0000 
     24 PN         41.6710   44.3990  245.8150 P.3       1 NAD401      0.0000 
     25 O1N        42.4260   43.2100  245.3620 O.co2     1 NAD401      0.0000 
     26 O2N        41.0020   44.4100  247.1350 O.co2     1 NAD401      0.0000 
     27 O5D        42.6520   45.6620  245.7210 O.3       1 NAD401      0.0000 
     28 C5D        42.1730   46.9550  245.9950 C.3       1 NAD401      0.0000 
     29 C4D        43.3480   47.9140  245.9870 C.3       1 NAD401      0.0000 
     30 O4D        44.3710   47.3710  246.7920 O.3       1 NAD401      0.0000 
     31 C3D        43.9290   48.0490  244.5930 C.3       1 NAD401      0.0000 
     32 O3D        44.3840   49.3680  244.4130 O.3       1 NAD401      0.0000 
     33 C2D        45.1090   47.1060  244.5960 C.3       1 NAD401      0.0000 
     34 O2D        46.0960   47.5880  243.7210 O.3       1 NAD401      0.0000 
     35 C1D        45.5550   47.1480  246.0490 C.3       1 NAD401      0.0000 
     36 N1N        46.2000   45.9030  246.5050 N.pl3     1 NAD401      0.0000 
     37 C2N        45.7890   44.6720  246.0740 C.ar      1 NAD401      0.0000 
     38 C3N        46.4220   43.5270  246.5550 C.ar      1 NAD401      0.0000 
     39 C7N        45.9530   42.1620  246.1500 C.2       1 NAD401      0.0000 
     40 O7N        46.8190   41.0630  246.3250 O.2       1 NAD401      0.0000 
     41 N7N        44.7300   42.0250  245.6430 N.am      1 NAD401      0.0000 
     42 C4N        47.4310   43.6340  247.5030 C.ar      1 NAD401      0.0000 
     43 C5N        47.8100   44.8870  247.9590 C.ar      1 NAD401      0.0000 
     44 C6N        47.1750   46.0130  247.4560 C.ar      1 NAD401      0.0000 
@<TRIPOS>BOND
     1    1    2 ar   
     2    1    3 ar   
     3    1    4 1    
     4    1   23 1    
     5    4    5 1    
     6    5    6 1    
     7    6    7 1    
     8    6    8 1    
     9    7   12 1    
    10    8    9 1    
    11    8   10 1    
    12   10   11 1    
    13   10   12 1    
    14   12   13 1    
    15   13   14 1    
    16   13   22 1    
    17   14   15 2    
    18   15   16 1    
    19   16   17 ar   
    20   16   22 ar   
    21   17   18 1    
    22   17   19 ar   
    23   19   20 ar   
    24   20   21 ar   
    25   21   22 ar   
    26   23   24 1    
    27   24   25 ar   
    28   24   26 ar   
    29   24   27 1    
    30   27   28 1    
    31   28   29 1    
    32   29   30 1    
    33   29   31 1    
    34   30   35 1    
    35   31   32 1    
    36   31   33 1    
    37   33   34 1    
    38   33   35 1    
    39   35   36 1    
    40   36   37 ar   
    41   36   44 ar   
    42   37   38 ar   
    43   38   39 1    
    44   38   42 ar   
    45   39   40 2    
    46   39   41 am   
    47   42   43 ar   
    48   43   44 ar   
@<TRIPOS>SUBSTRUCTURE
     1 NAD401      1 GROUP   
@<TRIPOS>SET
ATOM$ORANGE STATIC     ATOMS   COLORGROUP SYSTEM 
42 5 5 6 6 8 8 10 10 12 12 14 14 16 16 17 17 20 \
20 22 22 28 28 29 29 31 31 33 33 35 35 37 37 38 38 39 \
39 42 42 43 43 44 44 

