#    Name: 5yn8_1_SAH
#    Modification time : Fri May 22 19:13:51 2020

@<TRIPOS>MOLECULE
5yn8_1_SAH
   26    28     1     0     0
SMALL
NO_CHARGES


@<TRIPOS>ATOM
      1 N          66.8770   85.7080  150.4080 N.4       1 SAH401      0.0000 
      2 CA         66.8240   84.4210  149.7000 C.3       1 SAH401      0.0000 
      3 CB         66.7840   84.6340  148.1770 C.3       1 SAH401      0.0000 
      4 CG         65.5590   85.5080  147.8370 C.3       1 SAH401      0.0000 
      5 SD         65.2960   85.7360  146.0360 S.3       1 SAH401      0.0000 
      6 C          68.0420   83.5790  150.1280 C.2       1 SAH401      0.0000 
      7 O          68.5540   82.8490  149.2520 O.co2     1 SAH401      0.0000 
      8 OXT        68.4160   83.6670  151.3260 O.co2     1 SAH401      0.0000 
      9 C5'        64.0890   87.1090  145.9760 C.3       1 SAH401      0.0000 
     10 C4'        62.7860   86.7480  146.6720 C.3       1 SAH401      0.0000 
     11 O4'        61.8860   87.8930  146.6900 O.3       1 SAH401      0.0000 
     12 C3'        62.0390   85.6580  145.8590 C.3       1 SAH401      0.0000 
     13 O3'        62.0480   84.4320  146.6260 O.3       1 SAH401      0.0000 
     14 C2'        60.6450   86.3090  145.7830 C.3       1 SAH401      0.0000 
     15 O2'        59.5990   85.3530  145.9080 O.3       1 SAH401      0.0000 
     16 C1'        60.6350   87.3090  146.9470 C.3       1 SAH401      0.0000 
     17 N9         59.5410   88.3230  146.7460 N.pl3     1 SAH401      0.0000 
     18 C8         59.3240   89.1270  145.6970 C.2       1 SAH401      0.0000 
     19 N7         58.2280   89.8710  145.9330 N.2       1 SAH401      0.0000 
     20 C5         57.7510   89.5190  147.1320 C.ar      1 SAH401      0.0000 
     21 C6         56.6850   89.9210  147.8440 C.ar      1 SAH401      0.0000 
     22 N6         55.8900   90.8680  147.3310 N.pl3     1 SAH401      0.0000 
     23 N1         56.4080   89.4050  149.0420 N.ar      1 SAH401      0.0000 
     24 C2         57.2590   88.4090  149.5660 C.ar      1 SAH401      0.0000 
     25 N3         58.3520   87.9920  148.8150 N.ar      1 SAH401      0.0000 
     26 C4         58.5650   88.5570  147.6160 C.ar      1 SAH401      0.0000 
@<TRIPOS>BOND
     1    1    2 1    
     2    2    3 1    
     3    2    6 1    
     4    3    4 1    
     5    4    5 1    
     6    5    9 1    
     7    6    7 ar   
     8    6    8 ar   
     9    9   10 1    
    10   10   11 1    
    11   10   12 1    
    12   11   16 1    
    13   12   13 1    
    14   12   14 1    
    15   14   15 1    
    16   14   16 1    
    17   16   17 1    
    18   17   18 1    
    19   17   26 1    
    20   18   19 2    
    21   19   20 1    
    22   20   21 ar   
    23   20   26 ar   
    24   21   22 1    
    25   21   23 ar   
    26   23   24 ar   
    27   24   25 ar   
    28   25   26 ar   
@<TRIPOS>SUBSTRUCTURE
     1 SAH401      1 GROUP   
@<TRIPOS>SET

