#    Name: 5yn8_1_SAH_CAVITY_N1_12
#    Modification time : Fri May 22 19:13:52 2020

@<TRIPOS>MOLECULE
5yn8_1_SAH_CAVITY_N1_12
   82     0     6     0     0
SMALL
NO_CHARGES


@<TRIPOS>ATOM
      1 N          63.0900   83.3800  144.6600 N.am      1 ALA2        0.0000 
      2 N          61.3900   84.2500  143.7300 N.am      1 ALA2        0.0000 
      3 O          68.3200   82.7100  146.5800 O.2       1 ALA2        0.0000 
      4 N          65.2100   83.8600  146.0800 N.am      1 ALA2        0.0000 
      5 N          63.5100   84.7300  145.1500 N.am      1 ALA2        0.0000 
      6 N          62.9400   85.9000  142.4500 N.am      1 ALA2        0.0000 
      7 N          62.3900   84.4300  146.9300 N.am      1 ALA2        0.0000 
      8 N          61.8200   85.6000  144.2200 N.am      1 ALA2        0.0000 
      9 N          61.5300   86.1900  142.8700 N.am      1 ALA2        0.0000 
     10 O          67.3300   84.3400  147.5000 O.2       1 ALA2        0.0000 
     11 O          67.0400   84.9300  146.1500 O.2       1 ALA2        0.0000 
     12 N          65.9200   84.6300  147.9300 N.am      1 ALA2        0.0000 
     13 N          65.6300   85.2100  146.5700 N.am      1 ALA2        0.0000 
     14 N          64.2200   85.5000  147.0000 N.am      1 ALA2        0.0000 
     15 N          63.6500   86.6700  144.3000 N.am      1 ALA2        0.0000 
     16 N          62.2400   86.9500  144.7200 N.am      1 ALA2        0.0000 
     17 N          60.8300   87.2400  145.1400 N.am      1 ALA2        0.0000 
     18 N          59.1300   88.1100  144.2100 N.am      1 ALA2        0.0000 
     19 N          65.7700   87.1500  145.7200 N.am      1 ALA2        0.0000 
     20 N          64.6500   86.8500  147.4900 N.am      1 ALA2        0.0000 
     21 N          64.3600   87.4300  146.1400 N.am      1 ALA2        0.0000 
     22 N          63.2400   87.1400  147.9200 N.am      1 ALA2        0.0000 
     23 O          62.9500   87.7200  146.5600 O.2       1 ALA2        0.0000 
     24 O          61.5400   88.0100  146.9900 O.2       1 ALA2        0.0000 
     25 N          59.8400   88.8800  146.0600 N.am      1 ALA2        0.0000 
     26 N          59.5500   89.4600  144.7100 N.am      1 ALA2        0.0000 
     27 O          60.2600   90.2300  146.5500 O.2       1 ALA2        0.0000 
     28 O          59.9800   90.8100  145.2000 O.2       1 ALA2        0.0000 
     29 OD1        66.8900   87.4500  143.9400 O.co2     2 ASP3        0.0000 
     30 NZ         62.1000   85.0200  145.5700 N.4       3 LYS4        0.0000 
     31 NZ         60.6900   85.3000  146.0000 N.4       3 LYS4        0.0000 
     32 NZ         62.8100   85.7800  147.4200 N.4       3 LYS4        0.0000 
     33 NZ         62.5300   86.3700  146.0700 N.4       3 LYS4        0.0000 
     34 NZ         61.1200   86.6500  146.4900 N.4       3 LYS4        0.0000 
     35 NZ         59.7100   86.9400  146.9200 N.4       3 LYS4        0.0000 
     36 NZ         53.2000   89.8400  144.5600 N.4       3 LYS4        0.0000 
     37 NZ         67.1800   86.8600  145.3000 N.4       3 LYS4        0.0000 
     38 NZ         66.0600   86.5600  147.0700 N.4       3 LYS4        0.0000 
     39 NZ         56.4500   90.6200  144.2000 N.4       3 LYS4        0.0000 
     40 NZ         53.6200   91.1900  145.0500 N.4       3 LYS4        0.0000 
     41 NZ         53.3400   91.7700  143.7000 N.4       3 LYS4        0.0000 
     42 NZ         56.5800   92.5500  143.3500 N.4       3 LYS4        0.0000 
     43 NZ         55.1700   92.8400  143.7700 N.4       3 LYS4        0.0000 
     44 CZ         64.7700   86.9700  142.5200 C.ar      4 PHE5        0.0000 
     45 CZ         66.6100   88.0300  142.5900 C.ar      4 PHE5        0.0000 
     46 CZ         58.5700   91.1000  145.6300 C.ar      4 PHE5        0.0000 
     47 CZ         58.2800   91.6800  144.2800 C.ar      4 PHE5        0.0000 
     48 CZ         57.1600   91.3800  146.0500 C.ar      4 PHE5        0.0000 
     49 CZ         56.8700   91.9700  144.7000 C.ar      4 PHE5        0.0000 
     50 CZ         55.7400   91.6700  146.4700 C.ar      4 PHE5        0.0000 
     51 CZ         55.4600   92.2500  145.1200 C.ar      4 PHE5        0.0000 
     52 CA         66.9100   82.9900  147.0100 C.3       5 GLY6        0.0000 
     53 CA         62.6500   86.4800  141.1000 C.3       5 GLY6        0.0000 
     54 CA         57.0100   87.6300  142.7900 C.3       5 GLY6        0.0000 
     55 CA         55.6000   87.9100  143.2100 C.3       5 GLY6        0.0000 
     56 CA         59.4200   87.5200  145.5700 C.3       5 GLY6        0.0000 
     57 CA         58.3000   87.2300  147.3400 C.3       5 GLY6        0.0000 
     58 CA         57.4300   88.9800  143.2900 C.3       5 GLY6        0.0000 
     59 CA         56.0200   89.2600  143.7100 C.3       5 GLY6        0.0000 
     60 CA         54.6100   89.5500  144.1300 C.3       5 GLY6        0.0000 
     61 CA         65.4800   87.7300  144.3700 C.3       5 GLY6        0.0000 
     62 CA         64.0700   88.0200  144.7900 C.3       5 GLY6        0.0000 
     63 CA         60.1300   88.2900  147.4100 C.3       5 GLY6        0.0000 
     64 CA         58.7200   88.5800  147.8300 C.3       5 GLY6        0.0000 
     65 CA         58.4300   89.1600  146.4800 C.3       5 GLY6        0.0000 
     66 CA         58.1400   89.7500  145.1300 C.3       5 GLY6        0.0000 
     67 CA         57.8600   90.3300  143.7800 C.3       5 GLY6        0.0000 
     68 CA         57.3100   88.8600  148.2600 C.3       5 GLY6        0.0000 
     69 CA         57.0200   89.4500  146.9100 C.3       5 GLY6        0.0000 
     70 CA         56.7300   90.0300  145.5600 C.3       5 GLY6        0.0000 
     71 CA         55.6100   89.7300  147.3300 C.3       5 GLY6        0.0000 
     72 CA         55.3200   90.3200  145.9800 C.3       5 GLY6        0.0000 
     73 CA         55.0400   90.9000  144.6300 C.3       5 GLY6        0.0000 
     74 CA         58.8500   90.5100  146.9800 C.3       5 GLY6        0.0000 
     75 CA         57.4400   90.8000  147.4000 C.3       5 GLY6        0.0000 
     76 DU         64.9200   84.4500  144.7300 H         6 CUB7        0.0000 
     77 DU         63.2300   85.3200  143.8000 H         6 CUB7        0.0000 
     78 DU         66.7600   85.5100  144.8000 H         6 CUB7        0.0000 
     79 DU         65.3500   85.8000  145.2200 H         6 CUB7        0.0000 
     80 DU         65.0600   86.3800  143.8700 H         6 CUB7        0.0000 
     81 DU         63.9400   86.0800  145.6500 H         6 CUB7        0.0000 
     82 DU         68.3000   87.1600  143.5200 H         6 CUB7        0.0000 
@<TRIPOS>BOND
@<TRIPOS>SUBSTRUCTURE
     1 ALA2        1 GROUP   
     2 ASP3       29 GROUP   
     3 LYS4       30 GROUP   
     4 PHE5       44 GROUP   
     5 GLY6       52 GROUP   
     6 CUB7       76 GROUP   
@<TRIPOS>SET

