#    Name: 6do3_1_PRO_PRO_PRO_MET_ALA_GLY_GLY
#    Modification time : Fri May 22 19:23:56 2020

@<TRIPOS>MOLECULE
6do3_1_PRO_PRO_PRO_MET_ALA_GLY_GLY
   43    45     7     0     0
SMALL
NO_CHARGES


@<TRIPOS>ATOM
      1 N         164.2920    5.3250   12.0320 N.am      1 PRO85       0.0000 
      2 CA        163.2720    5.2440   10.9720 C.3       1 PRO85       0.0000 
      3 C         161.9100    5.8070   11.4210 C.2       1 PRO85       0.0000 
      4 O         161.5250    5.6120   12.5750 O.2       1 PRO85       0.0000 
      5 CB        163.1840    3.7410   10.6660 C.3       1 PRO85       0.0000 
      6 CG        163.8100    3.0560   11.8350 C.3       1 PRO85       0.0000 
      7 CD        164.8250    4.0030   12.4060 C.3       1 PRO85       0.0000 
      8 N         161.2020    6.5010   10.5110 N.am      2 PRO86       0.0000 
      9 CA        159.9860    7.2910   10.7650 C.3       2 PRO86       0.0000 
     10 C         158.8820    6.6380   11.6240 C.2       2 PRO86       0.0000 
     11 O         158.2940    7.3820   12.4110 O.2       2 PRO86       0.0000 
     12 CB        159.4600    7.5730    9.3500 C.3       2 PRO86       0.0000 
     13 CG        160.6770    7.6300    8.5220 C.3       2 PRO86       0.0000 
     14 CD        161.5970    6.5630    9.0930 C.3       2 PRO86       0.0000 
     15 N         158.5920    5.3200   11.4820 N.am      3 PRO87       0.0000 
     16 CA        157.5160    4.7720   12.3350 C.3       3 PRO87       0.0000 
     17 C         157.7790    4.8340   13.8490 C.2       3 PRO87       0.0000 
     18 O         156.8310    4.8440   14.6390 O.2       3 PRO87       0.0000 
     19 CB        157.4000    3.3050   11.8780 C.3       3 PRO87       0.0000 
     20 CG        158.6420    3.0160   11.0820 C.3       3 PRO87       0.0000 
     21 CD        159.0520    4.3330   10.4850 C.3       3 PRO87       0.0000 
     22 N         159.0330    4.9050   14.2730 N.am      4 MET88       0.0000 
     23 CA        159.2620    4.8370   15.7120 C.3       4 MET88       0.0000 
     24 C         159.6110    6.1960   16.3110 C.2       4 MET88       0.0000 
     25 O         159.7800    6.3120   17.5260 O.2       4 MET88       0.0000 
     26 CB        160.3410    3.8100   16.0340 C.3       4 MET88       0.0000 
     27 CG        161.7000    4.1280   15.4880 C.3       4 MET88       0.0000 
     28 SD        162.5010    2.5540   15.1500 S.3       4 MET88       0.0000 
     29 CE        161.3360    1.9680   13.9240 C.3       4 MET88       0.0000 
     30 N         159.6920    7.2180   15.4580 N.am      5 ALA89       0.0000 
     31 CA        159.8160    8.5940   15.9170 C.3       5 ALA89       0.0000 
     32 C         158.6680    8.9640   16.8670 C.2       5 ALA89       0.0000 
     33 O         157.5220    8.5710   16.6510 O.2       5 ALA89       0.0000 
     34 CB        159.8380    9.5390   14.7380 C.3       5 ALA89       0.0000 
     35 N         158.9760    9.7140   17.9210 N.am      6 GLY90       0.0000 
     36 CA        157.9420   10.2210   18.8040 C.3       6 GLY90       0.0000 
     37 C         157.5760    9.3080   19.9600 C.2       6 GLY90       0.0000 
     38 O         156.8060    9.6900   20.8350 O.2       6 GLY90       0.0000 
     39 N         158.1310    8.1010   19.9710 N.am      7 GLY91       0.0000 
     40 CA        157.9620    7.2140   21.1080 C.3       7 GLY91       0.0000 
     41 C         159.1650    7.2240   22.0370 C.2       7 GLY91       0.0000 
     42 O         160.1980    7.8620   21.7500 O.2       7 GLY91       0.0000 
     43 OXT       159.1320    6.5840   23.1050 O.3       7 GLY91       0.0000 
@<TRIPOS>BOND
     1    1    2 1    
     2    1    7 1    
     3    2    3 1    
     4    2    5 1    
     5    3    4 2    
     6    3    8 am   
     7    5    6 1    
     8    6    7 1    
     9    8    9 1    
    10    8   14 1    
    11    9   10 1    
    12    9   12 1    
    13   10   11 2    
    14   10   15 am   
    15   12   13 1    
    16   13   14 1    
    17   15   16 1    
    18   15   21 1    
    19   16   17 1    
    20   16   19 1    
    21   17   18 2    
    22   17   22 am   
    23   19   20 1    
    24   20   21 1    
    25   22   23 1    
    26   23   24 1    
    27   23   26 1    
    28   24   25 2    
    29   24   30 am   
    30   26   27 1    
    31   27   28 1    
    32   28   29 1    
    33   30   31 1    
    34   31   32 1    
    35   31   34 1    
    36   32   33 2    
    37   32   35 am   
    38   35   36 1    
    39   36   37 1    
    40   37   38 2    
    41   37   39 am   
    42   39   40 1    
    43   40   41 1    
    44   41   42 2    
    45   41   43 1    
@<TRIPOS>SUBSTRUCTURE
     1 PRO85       1 RESIDUE 
     2 PRO86       8 RESIDUE 
     3 PRO87      15 RESIDUE 
     4 MET88      22 RESIDUE 
     5 ALA89      30 RESIDUE 
     6 GLY90      35 RESIDUE 
     7 GLY91      39 RESIDUE 
@<TRIPOS>SET

