#    Name: 6do3_2_PRO_PRO_PRO_MET_ALA_GLY_GLY
#    Modification time : Fri May 22 19:24:00 2020

@<TRIPOS>MOLECULE
6do3_2_PRO_PRO_PRO_MET_ALA_GLY_GLY
   43    45     7     0     0
SMALL
NO_CHARGES


@<TRIPOS>ATOM
      1 N         164.0100   -2.5150  -13.4400 N.am      1 PRO85       0.0000 
      2 CA        163.0070   -2.6150  -12.3690 C.3       1 PRO85       0.0000 
      3 C         161.7180   -3.3080  -12.8200 C.2       1 PRO85       0.0000 
      4 O         161.3720   -3.2960  -14.0010 O.2       1 PRO85       0.0000 
      5 CB        162.7420   -1.1520  -11.9970 C.3       1 PRO85       0.0000 
      6 CG        164.0110   -0.4570  -12.3110 C.3       1 PRO85       0.0000 
      7 CD        164.5500   -1.1480  -13.5580 C.3       1 PRO85       0.0000 
      8 N         161.0060   -3.9190  -11.8700 N.am      2 PRO86       0.0000 
      9 CA        159.8010   -4.7010  -12.1490 C.3       2 PRO86       0.0000 
     10 C         158.7180   -4.0270  -13.0200 C.2       2 PRO86       0.0000 
     11 O         158.1370   -4.7710  -13.8100 O.2       2 PRO86       0.0000 
     12 CB        159.2570   -4.9920  -10.7440 C.3       2 PRO86       0.0000 
     13 CG        160.4430   -5.0390   -9.8940 C.3       2 PRO86       0.0000 
     14 CD        161.3930   -3.9980  -10.4500 C.3       2 PRO86       0.0000 
     15 N         158.4500   -2.6970  -12.8900 N.am      3 PRO87       0.0000 
     16 CA        157.3690   -2.1300  -13.7140 C.3       3 PRO87       0.0000 
     17 C         157.5870   -2.2550  -15.2180 C.2       3 PRO87       0.0000 
     18 O         156.6240   -2.4240  -15.9650 O.2       3 PRO87       0.0000 
     19 CB        157.3630   -0.6420  -13.3360 C.3       3 PRO87       0.0000 
     20 CG        158.0610   -0.5520  -12.0520 C.3       3 PRO87       0.0000 
     21 CD        159.0200   -1.6830  -11.9790 C.3       3 PRO87       0.0000 
     22 N         158.8300   -2.1700  -15.6690 N.am      4 MET88       0.0000 
     23 CA        159.0470   -2.0790  -17.1010 C.3       4 MET88       0.0000 
     24 C         159.3940   -3.4230  -17.7380 C.2       4 MET88       0.0000 
     25 O         159.6480   -3.4880  -18.9420 O.2       4 MET88       0.0000 
     26 CB        160.1360   -1.0540  -17.3970 C.3       4 MET88       0.0000 
     27 CG        161.4450   -1.3370  -16.6950 C.3       4 MET88       0.0000 
     28 SD        162.2460    0.2110  -16.2530 S.3       4 MET88       0.0000 
     29 CE        161.2680    0.7010  -14.8320 C.3       4 MET88       0.0000 
     30 N         159.3850   -4.4960  -16.9470 N.am      5 ALA89       0.0000 
     31 CA        159.6150   -5.8280  -17.4910 C.3       5 ALA89       0.0000 
     32 C         158.4570   -6.2200  -18.4110 C.2       5 ALA89       0.0000 
     33 O         157.3020   -5.8200  -18.1900 O.2       5 ALA89       0.0000 
     34 CB        159.7940   -6.8500  -16.3770 C.3       5 ALA89       0.0000 
     35 N         158.7710   -6.9720  -19.4660 N.am      6 GLY90       0.0000 
     36 CA        157.7520   -7.4210  -20.3980 C.3       6 GLY90       0.0000 
     37 C         157.3620   -6.4200  -21.4690 C.2       6 GLY90       0.0000 
     38 O         156.5770   -6.7380  -22.3490 O.2       6 GLY90       0.0000 
     39 N         157.9040   -5.2130  -21.4050 N.am      7 GLY91       0.0000 
     40 CA        157.7350   -4.2520  -22.4880 C.3       7 GLY91       0.0000 
     41 C         158.9320   -4.2180  -23.4380 C.2       7 GLY91       0.0000 
     42 O         160.0420   -4.7430  -23.1650 O.2       7 GLY91       0.0000 
     43 OXT       158.8060   -3.6420  -24.5270 O.3       7 GLY91       0.0000 
@<TRIPOS>BOND
     1    1    2 1    
     2    1    7 1    
     3    2    3 1    
     4    2    5 1    
     5    3    4 2    
     6    3    8 am   
     7    5    6 1    
     8    6    7 1    
     9    8    9 1    
    10    8   14 1    
    11    9   10 1    
    12    9   12 1    
    13   10   11 2    
    14   10   15 am   
    15   12   13 1    
    16   13   14 1    
    17   15   16 1    
    18   15   21 1    
    19   16   17 1    
    20   16   19 1    
    21   17   18 2    
    22   17   22 am   
    23   19   20 1    
    24   20   21 1    
    25   22   23 1    
    26   23   24 1    
    27   23   26 1    
    28   24   25 2    
    29   24   30 am   
    30   26   27 1    
    31   27   28 1    
    32   28   29 1    
    33   30   31 1    
    34   31   32 1    
    35   31   34 1    
    36   32   33 2    
    37   32   35 am   
    38   35   36 1    
    39   36   37 1    
    40   37   38 2    
    41   37   39 am   
    42   39   40 1    
    43   40   41 1    
    44   41   42 2    
    45   41   43 1    
@<TRIPOS>SUBSTRUCTURE
     1 PRO85       1 RESIDUE 
     2 PRO86       8 RESIDUE 
     3 PRO87      15 RESIDUE 
     4 MET88      22 RESIDUE 
     5 ALA89      30 RESIDUE 
     6 GLY90      35 RESIDUE 
     7 GLY91      39 RESIDUE 
@<TRIPOS>SET

