#    Name: 6do3_1_PRO_PRO_PRO_MET_ALA_GLY_GLY_CAVITY_N1_8
#    Modification time : Fri May 22 19:23:57 2020

@<TRIPOS>MOLECULE
6do3_1_PRO_PRO_PRO_MET_ALA_GLY_GLY_CAVITY_N1_8
   84     0     6     0     0
SMALL
NO_CHARGES


@<TRIPOS>ATOM
      1 OG        158.3800    1.4300   10.4400 O.3       1 SER1        0.0000 
      2 OG        158.2400    2.9000   10.1800 O.3       1 SER1        0.0000 
      3 OG        159.7200    3.0000    9.9500 O.3       1 SER1        0.0000 
      4 OG        163.0200    2.0000   11.2100 O.3       1 SER1        0.0000 
      5 OG        156.9700    3.0800   11.8600 O.3       1 SER1        0.0000 
      6 OG        156.8300    4.5500   11.6000 O.3       1 SER1        0.0000 
      7 OG        158.1700    6.1200   11.1200 O.3       1 SER1        0.0000 
      8 OG        163.2300    2.2800   12.6700 O.3       1 SER1        0.0000 
      9 OG        157.1700    3.3600   13.3200 O.3       1 SER1        0.0000 
     10 OG        157.0400    4.8300   13.0600 O.3       1 SER1        0.0000 
     11 OG        160.4800    2.3600   14.5900 O.3       1 SER1        0.0000 
     12 OG        161.9600    2.4600   14.3600 O.3       1 SER1        0.0000 
     13 OG        159.9900    9.9900   14.7400 O.3       1 SER1        0.0000 
     14 OG        160.2000   10.2700   16.2000 O.3       1 SER1        0.0000 
     15 N         163.4400    2.5600   14.1300 N.am      2 ALA2        0.0000 
     16 OD1       158.3800    6.4000   12.5700 O.co2     3 ASP3        0.0000 
     17 OD1       157.2400    5.1100   14.5200 O.co2     3 ASP3        0.0000 
     18 OD1       158.4500    8.1500   13.7700 O.co2     3 ASP3        0.0000 
     19 OD1       159.9300    8.2500   13.5500 O.co2     3 ASP3        0.0000 
     20 OD1       158.9300    5.4800   15.7500 O.co2     3 ASP3        0.0000 
     21 OD1       158.7900    6.9500   15.4900 O.co2     3 ASP3        0.0000 
     22 OD1       157.3800    8.6100   16.9200 O.co2     3 ASP3        0.0000 
     23 OD1       157.8000    9.1600   19.8400 O.co2     3 ASP3        0.0000 
     24 OD1       159.2700    9.2600   19.6100 O.co2     3 ASP3        0.0000 
     25 CZ        159.8600    1.5300   10.2100 C.ar      4 PHE5        0.0000 
     26 CZ        162.8200    1.7300    9.7500 C.ar      4 PHE5        0.0000 
     27 CZ        158.1000    4.3700    9.9200 C.ar      4 PHE5        0.0000 
     28 CZ        159.5800    4.4700    9.6900 C.ar      4 PHE5        0.0000 
     29 CZ        158.5800    1.7100   11.9000 C.ar      4 PHE5        0.0000 
     30 CZ        160.0600    1.8100   11.6700 C.ar      4 PHE5        0.0000 
     31 CZ        161.5400    1.9100   11.4400 C.ar      4 PHE5        0.0000 
     32 CZ        158.3100    4.6500   11.3800 C.ar      4 PHE5        0.0000 
     33 CZ        161.8900    0.7100   13.1600 C.ar      4 PHE5        0.0000 
     34 CZ        158.7900    1.9900   13.3600 C.ar      4 PHE5        0.0000 
     35 CZ        160.2700    2.0900   13.1300 C.ar      4 PHE5        0.0000 
     36 CZ        161.7500    2.1800   12.9000 C.ar      4 PHE5        0.0000 
     37 CZ        159.0000    2.2600   14.8200 C.ar      4 PHE5        0.0000 
     38 CZ        158.8600    3.7400   14.5600 C.ar      4 PHE5        0.0000 
     39 CZ        159.0700    4.0100   16.0100 C.ar      4 PHE5        0.0000 
     40 CZ        158.6500    8.4300   15.2300 C.ar      4 PHE5        0.0000 
     41 CZ        158.5200    9.9000   14.9700 C.ar      4 PHE5        0.0000 
     42 CZ        160.7500    4.3900   17.2500 C.ar      4 PHE5        0.0000 
     43 CZ        159.1400    5.7600   17.2100 C.ar      4 PHE5        0.0000 
     44 CZ        158.8600    8.7000   16.6900 C.ar      4 PHE5        0.0000 
     45 CZ        158.7200   10.1700   16.4300 C.ar      4 PHE5        0.0000 
     46 CZ        159.2100    7.5100   18.4100 C.ar      4 PHE5        0.0000 
     47 CZ        157.4500   10.3500   18.1200 C.ar      4 PHE5        0.0000 
     48 CA        160.9200    1.0700    7.0600 C.3       5 GLY6        0.0000 
     49 CA        159.7900   -0.2200    9.0100 C.3       5 GLY6        0.0000 
     50 CA        159.6500    1.2500    8.7500 C.3       5 GLY6        0.0000 
     51 CA        161.1300    1.3500    8.5200 C.3       5 GLY6        0.0000 
     52 CA        164.7100    2.3800   12.4400 C.3       5 GLY6        0.0000 
     53 CA        160.6900    2.6400   16.0500 C.3       5 GLY6        0.0000 
     54 CA        162.1600    2.7400   15.8200 C.3       5 GLY6        0.0000 
     55 CA        162.0300    4.2100   15.5600 C.3       5 GLY6        0.0000 
     56 CA        161.8900    5.6800   15.3000 C.3       5 GLY6        0.0000 
     57 CA        160.6200    5.8600   16.9800 C.3       5 GLY6        0.0000 
     58 CA        162.1000    5.9600   16.7600 C.3       5 GLY6        0.0000 
     59 CA        159.0000    7.2300   16.9500 C.3       5 GLY6        0.0000 
     60 CA        157.7300    7.4100   18.6400 C.3       5 GLY6        0.0000 
     61 CA        157.5900    8.8800   18.3800 C.3       5 GLY6        0.0000 
     62 CA        156.4500    7.5900   20.3300 C.3       5 GLY6        0.0000 
     63 CA        157.9300    7.6900   20.1000 C.3       5 GLY6        0.0000 
     64 CA        156.3200    9.0600   20.0700 C.3       5 GLY6        0.0000 
     65 CA        156.6600    7.8700   21.7900 C.3       5 GLY6        0.0000 
     66 CA        158.1400    7.9700   21.5600 C.3       5 GLY6        0.0000 
     67 DU        161.3400    1.6300    9.9800 H         6 CUB7        0.0000 
     68 DU        158.4500    3.1800   11.6400 H         6 CUB7        0.0000 
     69 DU        159.9300    3.2800   11.4100 H         6 CUB7        0.0000 
     70 DU        158.6500    3.4600   13.1000 H         6 CUB7        0.0000 
     71 DU        160.1300    3.5600   12.8700 H         6 CUB7        0.0000 
     72 DU        158.5200    4.9300   12.8400 H         6 CUB7        0.0000 
     73 DU        160.3400    3.8300   14.3300 H         6 CUB7        0.0000 
     74 DU        161.8200    3.9300   14.1000 H         6 CUB7        0.0000 
     75 DU        158.7200    5.2100   14.2900 H         6 CUB7        0.0000 
     76 DU        158.5800    6.6800   14.0300 H         6 CUB7        0.0000 
     77 DU        160.0600    6.7800   13.8100 H         6 CUB7        0.0000 
     78 DU        160.5500    4.1100   15.7900 H         6 CUB7        0.0000 
     79 DU        160.4100    5.5800   15.5300 H         6 CUB7        0.0000 
     80 DU        160.1300    8.5200   15.0000 H         6 CUB7        0.0000 
     81 DU        160.4800    7.3300   16.7200 H         6 CUB7        0.0000 
     82 DU        160.3400    8.8000   16.4600 H         6 CUB7        0.0000 
     83 DU        161.6800   10.3700   15.9800 H         6 CUB7        0.0000 
     84 DU        159.0700    8.9800   18.1500 H         6 CUB7        0.0000 
@<TRIPOS>BOND
@<TRIPOS>SUBSTRUCTURE
     1 SER1        1 GROUP   
     2 ALA2       15 GROUP   
     3 ASP3       16 GROUP   
     4 PHE5       25 GROUP   
     5 GLY6       48 GROUP   
     6 CUB7       67 GROUP   
@<TRIPOS>SET

