#    Name: 6do3_2_PRO_PRO_PRO_MET_ALA_GLY_GLY_CAVITY_N1_ALL
#    Modification time : Fri May 22 19:24:01 2020

@<TRIPOS>MOLECULE
6do3_2_PRO_PRO_PRO_MET_ALA_GLY_GLY_CAVITY_N1_ALL
   84     0     6     0     0
SMALL
NO_CHARGES


@<TRIPOS>ATOM
      1 OG        159.2900   -7.9600  -17.2000 O.3       1 SER1        0.0000 
      2 OG        160.5000    0.0400  -15.8100 O.3       1 SER1        0.0000 
      3 OG        161.9800    0.1400  -16.0400 O.3       1 SER1        0.0000 
      4 OG        156.4000   -1.4400  -13.4000 O.3       1 SER1        0.0000 
      5 OG        157.7500    0.1200  -13.8900 O.3       1 SER1        0.0000 
      6 OG        162.1800    0.4200  -14.5800 O.3       1 SER1        0.0000 
      7 OG        156.6100   -1.1700  -11.9400 O.3       1 SER1        0.0000 
      8 OG        158.0900   -1.0700  -12.1700 O.3       1 SER1        0.0000 
      9 OG        157.9500    0.4000  -12.4300 O.3       1 SER1        0.0000 
     10 OG        158.3000   -0.7900  -10.7100 O.3       1 SER1        0.0000 
     11 OD1       158.4000   -5.8600  -22.1000 O.co2     2 ASP3        0.0000 
     12 OD1       158.7400   -7.0500  -20.3800 O.co2     2 ASP3        0.0000 
     13 OD1       158.6000   -5.5800  -20.6400 O.co2     2 ASP3        0.0000 
     14 OD1       157.5400   -5.1200  -17.4900 O.co2     2 ASP3        0.0000 
     15 OD1       159.0200   -5.0200  -17.7200 O.co2     2 ASP3        0.0000 
     16 OD1       158.8800   -3.5500  -17.9800 O.co2     2 ASP3        0.0000 
     17 OD1       157.2600   -2.1800  -18.0100 O.co2     2 ASP3        0.0000 
     18 OD1       157.8800   -6.3100  -15.7700 O.co2     2 ASP3        0.0000 
     19 OD1       159.3600   -6.2200  -16.0000 O.co2     2 ASP3        0.0000 
     20 OD1       157.7500   -4.8400  -16.0300 O.co2     2 ASP3        0.0000 
     21 OD1       157.6100   -3.3700  -16.2900 O.co2     2 ASP3        0.0000 
     22 OD1       161.1900   -7.3100  -14.5100 O.co2     2 ASP3        0.0000 
     23 OD1       159.5700   -5.9400  -14.5400 O.co2     2 ASP3        0.0000 
     24 OD1       157.9500   -4.5700  -14.5700 O.co2     2 ASP3        0.0000 
     25 OD1       159.4300   -4.4700  -14.8000 O.co2     2 ASP3        0.0000 
     26 OD1       158.1600   -4.2900  -13.1100 O.co2     2 ASP3        0.0000 
     27 NZ        160.7700   -7.8700  -17.4300 N.4       3 LYS4        0.0000 
     28 CZ        158.2600   -4.3900  -22.3600 C.ar      4 PHE5        0.0000 
     29 CZ        157.2600   -7.1500  -20.1500 C.ar      4 PHE5        0.0000 
     30 CZ        158.4700   -4.1100  -20.9000 C.ar      4 PHE5        0.0000 
     31 CZ        157.4700   -6.8700  -18.6900 C.ar      4 PHE5        0.0000 
     32 CZ        158.9500   -6.7700  -18.9200 C.ar      4 PHE5        0.0000 
     33 CZ        158.6700   -3.8300  -19.4400 C.ar      4 PHE5        0.0000 
     34 CZ        157.6800   -6.5900  -17.2300 C.ar      4 PHE5        0.0000 
     35 CZ        159.1600   -6.4900  -17.4600 C.ar      4 PHE5        0.0000 
     36 CZ        158.7400   -2.0800  -18.2400 C.ar      4 PHE5        0.0000 
     37 CZ        160.2200   -1.9800  -18.4700 C.ar      4 PHE5        0.0000 
     38 CZ        158.6000   -0.6100  -18.5000 C.ar      4 PHE5        0.0000 
     39 CZ        157.4700   -1.9000  -16.5500 C.ar      4 PHE5        0.0000 
     40 CZ        158.9500   -1.8000  -16.7800 C.ar      4 PHE5        0.0000 
     41 CZ        158.8100   -0.3300  -17.0400 C.ar      4 PHE5        0.0000 
     42 CZ        157.6800   -1.6200  -15.0900 C.ar      4 PHE5        0.0000 
     43 CZ        157.5400   -0.1500  -15.3500 C.ar      4 PHE5        0.0000 
     44 CZ        159.0200   -0.0500  -15.5800 C.ar      4 PHE5        0.0000 
     45 CZ        156.5400   -2.9200  -13.1400 C.ar      4 PHE5        0.0000 
     46 CZ        159.2200    0.2200  -14.1200 C.ar      4 PHE5        0.0000 
     47 CZ        160.7000    0.3200  -14.3500 C.ar      4 PHE5        0.0000 
     48 CZ        158.2300   -2.5400  -11.9100 C.ar      4 PHE5        0.0000 
     49 CZ        159.4300    0.5000  -12.6600 C.ar      4 PHE5        0.0000 
     50 CA        156.7100   -6.2300  -23.3300 C.3       5 GLY6        0.0000 
     51 CA        156.5700   -4.7600  -23.5900 C.3       5 GLY6        0.0000 
     52 CA        158.0500   -4.6600  -23.8200 C.3       5 GLY6        0.0000 
     53 CA        156.9200   -5.9500  -21.8700 C.3       5 GLY6        0.0000 
     54 CA        156.7800   -4.4800  -22.1300 C.3       5 GLY6        0.0000 
     55 CA        157.1200   -5.6800  -20.4100 C.3       5 GLY6        0.0000 
     56 CA        157.3300   -5.4000  -18.9500 C.3       5 GLY6        0.0000 
     57 CA        158.8100   -5.3000  -19.1800 C.3       5 GLY6        0.0000 
     58 CA        161.9800   -4.8300  -18.1700 C.3       5 GLY6        0.0000 
     59 CA        160.3600   -3.4500  -18.2100 C.3       5 GLY6        0.0000 
     60 CA        160.0800   -0.5100  -18.7300 C.3       5 GLY6        0.0000 
     61 CA        162.0500   -3.0800  -16.9800 C.3       5 GLY6        0.0000 
     62 CA        160.4300   -1.7100  -17.0100 C.3       5 GLY6        0.0000 
     63 CA        161.9100   -1.6100  -17.2400 C.3       5 GLY6        0.0000 
     64 CA        160.2900   -0.2300  -17.2700 C.3       5 GLY6        0.0000 
     65 CA        161.7700   -0.1400  -17.5000 C.3       5 GLY6        0.0000 
     66 CA        163.5900   -1.2300  -16.0100 C.3       5 GLY6        0.0000 
     67 DU        160.6400   -6.4000  -17.6900 H         6 CUB7        0.0000 
     68 DU        160.5000   -4.9200  -17.9500 H         6 CUB7        0.0000 
     69 DU        160.9800   -7.5900  -15.9700 H         6 CUB7        0.0000 
     70 DU        162.4600   -7.4900  -16.1900 H         6 CUB7        0.0000 
     71 DU        160.8400   -6.1200  -16.2300 H         6 CUB7        0.0000 
     72 DU        159.2300   -4.7500  -16.2600 H         6 CUB7        0.0000 
     73 DU        160.7000   -4.6500  -16.4900 H         6 CUB7        0.0000 
     74 DU        159.0900   -3.2700  -16.5200 H         6 CUB7        0.0000 
     75 DU        160.5700   -3.1800  -16.7500 H         6 CUB7        0.0000 
     76 DU        157.8100   -3.0900  -14.8300 H         6 CUB7        0.0000 
     77 DU        162.2500   -2.8000  -15.5200 H         6 CUB7        0.0000 
     78 DU        159.1600   -1.5300  -15.3200 H         6 CUB7        0.0000 
     79 DU        160.6400   -1.4300  -15.5500 H         6 CUB7        0.0000 
     80 DU        162.1100   -1.3300  -15.7800 H         6 CUB7        0.0000 
     81 DU        158.0200   -2.8200  -13.3700 H         6 CUB7        0.0000 
     82 DU        157.8800   -1.3500  -13.6300 H         6 CUB7        0.0000 
     83 DU        159.7100   -2.4400  -12.1400 H         6 CUB7        0.0000 
     84 DU        159.5700   -0.9700  -12.4000 H         6 CUB7        0.0000 
@<TRIPOS>BOND
@<TRIPOS>SUBSTRUCTURE
     1 SER1        1 GROUP   
     2 ASP3       11 GROUP   
     3 LYS4       27 GROUP   
     4 PHE5       28 GROUP   
     5 GLY6       50 GROUP   
     6 CUB7       67 GROUP   
@<TRIPOS>SET

