#    Name: 6ql3_1_V14
#    Modification time : Fri May 22 19:28:34 2020

@<TRIPOS>MOLECULE
6ql3_1_V14
   28    29     1     0     0
SMALL
NO_CHARGES


@<TRIPOS>ATOM
      1 F20        15.0190    5.3210   15.6930           1 V14302      0.0000 
      2 C5         15.6420    4.4870   14.8020           1 V14302      0.0000 
      3 C4         15.9900    3.1780   15.1970           1 V14302      0.0000 
      4 S7         15.3450    2.6060   16.7830           1 V14302      0.0000 
      5 O9         13.9460    3.0250   16.7120           1 V14302      0.0000 
      6 N10        15.4770    0.9820   16.6760           1 V14302      0.0000 
      7 O8         16.1920    3.1450   17.8030           1 V14302      0.0000 
      8 C3         16.5900    2.3800   14.2280           1 V14302      0.0000 
      9 F12        16.9500    1.1150   14.4590           1 V14302      0.0000 
     10 C2         16.8040    2.8470   12.9930           1 V14302      0.0000 
     11 F13        17.3390    1.9640   12.1210           1 V14302      0.0000 
     12 C6         15.8540    4.9830   13.5170           1 V14302      0.0000 
     13 C1         16.4870    4.1350   12.5720           1 V14302      0.0000 
     14 S11        16.7860    4.4250   10.8540           1 V14302      0.0000 
     15 O16        16.4300    5.8900   10.6270           1 V14302      0.0000 
     16 O17        15.8440    3.4620   10.0460           1 V14302      0.0000 
     17 C15        18.4200    3.9260   10.4650           1 V14302      0.0000 
     18 C18        19.6250    4.3330   11.2430           1 V14302      0.0000 
     19 O21        19.3570    5.5720   11.7330           1 V14302      0.0000 
     20 N19        15.4080    6.3260   13.2180           1 V14302      0.0000 
     21 C14        15.4650    7.5080   14.1000           1 V14302      0.0000 
     22 C28        16.9660    7.6060   14.6380           1 V14302      0.0000 
     23 C27        17.9260    8.3350   13.7530           1 V14302      0.0000 
     24 C26        18.0430    9.8620   13.8760           1 V14302      0.0000 
     25 C25        16.8240   10.7710   13.7560           1 V14302      0.0000 
     26 C24        15.7630   10.6390   14.8520           1 V14302      0.0000 
     27 C23        14.4720    9.9770   14.2870           1 V14302      0.0000 
     28 C22        14.7980    8.6920   13.3920           1 V14302      0.0000 
@<TRIPOS>BOND
     1    1    2 du   
     2    2    3 du   
     3    2   12 du   
     4    3    4 du   
     5    3    8 du   
     6    4    5 du   
     7    4    6 du   
     8    4    7 du   
     9    8    9 du   
    10    8   10 du   
    11   10   11 du   
    12   10   13 du   
    13   12   13 du   
    14   12   20 du   
    15   13   14 du   
    16   14   15 du   
    17   14   16 du   
    18   14   17 du   
    19   17   18 du   
    20   18   19 du   
    21   20   21 du   
    22   21   22 du   
    23   21   28 du   
    24   22   23 du   
    25   23   24 du   
    26   24   25 du   
    27   25   26 du   
    28   26   27 du   
    29   27   28 du   
@<TRIPOS>SUBSTRUCTURE
     1 V14302      1 GROUP   
@<TRIPOS>SET

