#    Name: 6ql3_1_V14_CAVITY_N1_8
#    Modification time : Fri May 22 19:28:36 2020

@<TRIPOS>MOLECULE
6ql3_1_V14_CAVITY_N1_8
  107     0     6     0     0
SMALL
NO_CHARGES


@<TRIPOS>ATOM
      1 OG         15.0000    3.2600   11.2600 O.3       1 SER1        0.0000 
      2 OG         17.5000    2.7800   11.8200 O.3       1 SER1        0.0000 
      3 OG         14.2300   10.6700    8.9600 O.3       1 SER1        0.0000 
      4 OG         16.9000    1.3400   13.2600 O.3       1 SER1        0.0000 
      5 OG         19.4400    3.6200   11.9000 O.3       1 SER1        0.0000 
      6 OG         18.9000    4.9300   11.4200 O.3       1 SER1        0.0000 
      7 OG         17.7600    4.8100   12.3900 O.3       1 SER1        0.0000 
      8 OG         17.7000    2.0600   14.3100 O.3       1 SER1        0.0000 
      9 OG         17.1600    3.3700   13.8300 O.3       1 SER1        0.0000 
     10 OG         16.6200    4.6900   13.3500 O.3       1 SER1        0.0000 
     11 OG         19.7100    5.6400   12.4700 O.3       1 SER1        0.0000 
     12 OG         18.5600    5.5200   13.4300 O.3       1 SER1        0.0000 
     13 OG         17.4200    5.4000   14.4000 O.3       1 SER1        0.0000 
     14 OG         16.8200    3.9600   15.8400 O.3       1 SER1        0.0000 
     15 OG         19.3700    6.2300   14.4800 O.3       1 SER1        0.0000 
     16 O          17.8300    2.1900    9.8100 O.2       2 ALA2        0.0000 
     17 O          16.1500    3.3800   10.3000 O.2       2 ALA2        0.0000 
     18 O          18.6400    2.9000   10.8600 O.2       2 ALA2        0.0000 
     19 O          18.0900    4.2200   10.3800 O.2       2 ALA2        0.0000 
     20 O          17.5500    5.5300    9.9000 O.2       2 ALA2        0.0000 
     21 O          17.0100    6.8500    9.4200 O.2       2 ALA2        0.0000 
     22 O          16.4100    5.4100   10.8700 O.2       2 ALA2        0.0000 
     23 O          15.8700    6.7200   10.3900 O.2       2 ALA2        0.0000 
     24 O          15.3200    8.0400    9.9100 O.2       2 ALA2        0.0000 
     25 O          14.7800    9.3500    9.4300 O.2       2 ALA2        0.0000 
     26 O          15.2700    5.2900   11.8300 O.2       2 ALA2        0.0000 
     27 O          13.6400    9.2300   10.4000 O.2       2 ALA2        0.0000 
     28 O          14.1200    5.1600   12.8000 O.2       2 ALA2        0.0000 
     29 O          16.6700    7.4400   11.4300 O.2       2 ALA2        0.0000 
     30 O          16.1300    8.7500   10.9600 O.2       2 ALA2        0.0000 
     31 O          16.0700    6.0000   12.8800 O.2       2 ALA2        0.0000 
     32 O          15.5300    7.3100   12.4000 O.2       2 ALA2        0.0000 
     33 O          14.9900    8.6300   11.9200 O.2       2 ALA2        0.0000 
     34 O          14.3900    7.1900   13.3600 O.2       2 ALA2        0.0000 
     35 N          20.8500    5.7700   11.5000 N.am      2 ALA2        0.0000 
     36 O          16.2300    2.5300   17.2800 O.2       2 ALA2        0.0000 
     37 N          21.6600    6.4800   12.5500 N.am      2 ALA2        0.0000 
     38 N          20.5100    6.3600   13.5100 N.am      2 ALA2        0.0000 
     39 N          19.9700    7.6700   13.0400 N.am      2 ALA2        0.0000 
     40 O          17.7400   10.1800   13.0500 O.2       2 ALA2        0.0000 
     41 O          16.6000   10.0500   14.0100 O.2       2 ALA2        0.0000 
     42 N          17.9500    9.4500   15.5300 N.am      2 ALA2        0.0000 
     43 OD1        16.5600    1.9400   15.2700 O.co2     3 ASP3        0.0000 
     44 CZ         15.5500    1.9500   11.7400 C.ar      4 PHE5        0.0000 
     45 CZ         19.7800    3.0300    9.8900 C.ar      4 PHE5        0.0000 
     46 CZ         16.3500    2.6600   12.7800 C.ar      4 PHE5        0.0000 
     47 CZ         15.8100    3.9700   12.3100 C.ar      4 PHE5        0.0000 
     48 CZ         20.5900    3.7400   10.9400 C.ar      4 PHE5        0.0000 
     49 CZ         15.0400   11.3800   10.0000 C.ar      4 PHE5        0.0000 
     50 CZ         13.9000   11.2600   10.9700 C.ar      4 PHE5        0.0000 
     51 CZ         16.0200    3.2500   14.7900 C.ar      4 PHE5        0.0000 
     52 CZ         15.4700    4.5600   14.3200 C.ar      4 PHE5        0.0000 
     53 CZ         14.8800    3.1300   15.7600 C.ar      4 PHE5        0.0000 
     54 CZ         14.3300    4.4400   15.2800 C.ar      4 PHE5        0.0000 
     55 CZ         21.9900    5.8900   10.5400 C.ar      4 PHE5        0.0000 
     56 CZ         21.3900    4.4500   11.9800 C.ar      4 PHE5        0.0000 
     57 CZ         16.3900   10.7800   11.5200 C.ar      4 PHE5        0.0000 
     58 CZ         15.2500   10.6600   12.4900 C.ar      4 PHE5        0.0000 
     59 CZ         14.1100   10.5300   13.4500 C.ar      4 PHE5        0.0000 
     60 CZ         17.2000   11.4900   12.5700 C.ar      4 PHE5        0.0000 
     61 CZ         16.0500   11.3700   13.5300 C.ar      4 PHE5        0.0000 
     62 CZ         14.9100   11.2500   14.5000 C.ar      4 PHE5        0.0000 
     63 CA         16.6900    2.0700   10.7800 C.3       5 GLY6        0.0000 
     64 CA         18.0400    1.4700   12.3000 C.3       5 GLY6        0.0000 
     65 CA         13.0900   10.5400    9.9200 C.3       5 GLY6        0.0000 
     66 CA         14.9300    5.8800   13.8400 C.3       5 GLY6        0.0000 
     67 CA         13.8400    8.5100   12.8900 C.3       5 GLY6        0.0000 
     68 CA         13.3000    9.8200   12.4100 C.3       5 GLY6        0.0000 
     69 CA         12.7600   11.1300   11.9300 C.3       5 GLY6        0.0000 
     70 CA         16.2800    5.2800   15.3600 C.3       5 GLY6        0.0000 
     71 CA         15.7400    6.5900   14.8900 C.3       5 GLY6        0.0000 
     72 CA         15.1900    7.9000   14.4100 C.3       5 GLY6        0.0000 
     73 CA         14.6500    9.2200   13.9300 C.3       5 GLY6        0.0000 
     74 CA         15.6800    3.8400   16.8000 C.3       5 GLY6        0.0000 
     75 CA         15.1400    5.1500   16.3300 C.3       5 GLY6        0.0000 
     76 CA         14.5900    6.4700   15.8500 C.3       5 GLY6        0.0000 
     77 CA         13.5100    9.1000   14.9000 C.3       5 GLY6        0.0000 
     78 CA         12.9600   10.4100   14.4200 C.3       5 GLY6        0.0000 
     79 CA         14.5400    3.7200   17.7700 C.3       5 GLY6        0.0000 
     80 CA         14.0000    5.0300   17.2900 C.3       5 GLY6        0.0000 
     81 CA         18.8300    7.5500   14.0000 C.3       5 GLY6        0.0000 
     82 CA         18.2300    6.1100   15.4400 C.3       5 GLY6        0.0000 
     83 CA         17.6900    7.4300   14.9700 C.3       5 GLY6        0.0000 
     84 CA         16.0000    8.6200   15.4500 C.3       5 GLY6        0.0000 
     85 CA         15.4600    9.9300   14.9800 C.3       5 GLY6        0.0000 
     86 CA         14.8600    8.5000   16.4200 C.3       5 GLY6        0.0000 
     87 CA         14.3100    9.8100   15.9400 C.3       5 GLY6        0.0000 
     88 CA         13.7700   11.1200   15.4600 C.3       5 GLY6        0.0000 
     89 CA         19.6300    8.2600   15.0500 C.3       5 GLY6        0.0000 
     90 CA         16.8100    9.3300   16.5000 C.3       5 GLY6        0.0000 
     91 CA         16.2600   10.6400   16.0200 C.3       5 GLY6        0.0000 
     92 DU         16.9500    4.1000   11.3400 H         6 CUB7        0.0000 
     93 DU         20.0400    5.0500   10.4600 H         6 CUB7        0.0000 
     94 DU         18.3600    6.2400   10.9500 H         6 CUB7        0.0000 
     95 DU         17.8100    7.5600   10.4700 H         6 CUB7        0.0000 
     96 DU         17.2700    8.8700    9.9900 H         6 CUB7        0.0000 
     97 DU         17.2200    6.1200   11.9100 H         6 CUB7        0.0000 
     98 DU         15.5800   10.0600   10.4800 H         6 CUB7        0.0000 
     99 DU         14.4400    9.9400   11.4400 H         6 CUB7        0.0000 
    100 DU         19.1600    6.9600   11.9900 H         6 CUB7        0.0000 
    101 DU         18.0200    6.8400   12.9600 H         6 CUB7        0.0000 
    102 DU         16.9300    9.4600   12.0000 H         6 CUB7        0.0000 
    103 DU         16.8800    6.7100   13.9200 H         6 CUB7        0.0000 
    104 DU         16.3400    8.0300   13.4400 H         6 CUB7        0.0000 
    105 DU         15.7900    9.3400   12.9700 H         6 CUB7        0.0000 
    106 DU         18.2800    8.8600   13.5200 H         6 CUB7        0.0000 
    107 DU         17.1400    8.7400   14.4900 H         6 CUB7        0.0000 
@<TRIPOS>BOND
@<TRIPOS>SUBSTRUCTURE
     1 SER1        1 GROUP   
     2 ALA2       16 GROUP   
     3 ASP3       43 GROUP   
     4 PHE5       44 GROUP   
     5 GLY6       63 GROUP   
     6 CUB7       92 GROUP   
@<TRIPOS>SET

