#    Name: 6o8e_1_ADP
#    Modification time : Fri May 22 19:25:40 2020

@<TRIPOS>MOLECULE
6o8e_1_ADP
   27    29     1     0     1
SMALL
NO_CHARGES


@<TRIPOS>ATOM
      1 PB          3.9200   33.6750   -1.7580 P.3       1 ADP601      0.0000 
      2 O1B         2.9530   34.2340   -2.8100 O.co2     1 ADP601      0.0000 
      3 O2B         3.5890   33.9700   -0.3170 O.co2     1 ADP601      0.0000 
      4 O3B         4.3430   32.2510   -2.0000 O.co2     1 ADP601      0.0000 
      5 PA          5.2830   35.7360   -2.9260 P.3       1 ADP601      0.0000 
      6 O1A         4.9350   35.0960   -4.2640 O.co2     1 ADP601      0.0000 
      7 O2A         4.4800   36.8310   -2.2290 O.co2     1 ADP601      0.0000 
      8 O3A         5.2890   34.4930   -1.9310 O.3       1 ADP601      0.0000 
      9 O5'         6.8140   36.2000   -2.9950 O.3       1 ADP601      0.0000 
     10 C5'         7.1990   37.5770   -2.8130 C.3       1 ADP601      0.0000 
     11 C4'         8.0880   38.0950   -3.9560 C.3       1 ADP601      0.0000 
     12 O4'         9.4090   37.5100   -3.9340 O.3       1 ADP601      0.0000 
     13 C3'         7.4910   37.8110   -5.3440 C.3       1 ADP601      0.0000 
     14 O3'         6.9010   38.9590   -5.9470 O.3       1 ADP601      0.0000 
     15 C2'         8.6520   37.3940   -6.2050 C.3       1 ADP601      0.0000 
     16 O2'         8.7940   38.2770   -7.3130 O.3       1 ADP601      0.0000 
     17 C1'         9.8810   37.4280   -5.2860 C.3       1 ADP601      0.0000 
     18 N9         10.7050   36.2310   -5.5490 N.pl3     1 ADP601      0.0000 
     19 C8         10.2650   34.9590   -5.7150 C.2       1 ADP601      0.0000 
     20 N7         11.2820   34.1050   -5.9760 N.2       1 ADP601      0.0000 
     21 C5         12.3840   34.8560   -5.9900 C.ar      1 ADP601      0.0000 
     22 C6         13.7970   34.5900   -6.2020 C.ar      1 ADP601      0.0000 
     23 N6         14.1850   33.3210   -6.4530 N.pl3     1 ADP601      0.0000 
     24 N1         14.6500   35.6430   -6.1330 N.ar      1 ADP601      0.0000 
     25 C2         14.2350   36.8900   -5.8710 C.ar      1 ADP601      0.0000 
     26 N3         12.9470   37.1890   -5.6660 N.ar      1 ADP601      0.0000 
     27 C4         12.0040   36.2440   -5.7230 C.ar      1 ADP601      0.0000 
@<TRIPOS>BOND
     1    1    2 ar   
     2    1    3 ar   
     3    1    4 ar   
     4    1    8 1    
     5    5    6 ar   
     6    5    7 ar   
     7    5    8 1    
     8    5    9 1    
     9    9   10 1    
    10   10   11 1    
    11   11   12 1    
    12   11   13 1    
    13   12   17 1    
    14   13   14 1    
    15   13   15 1    
    16   15   16 1    
    17   15   17 1    
    18   17   18 1    
    19   18   19 1    
    20   18   27 1    
    21   19   20 2    
    22   20   21 1    
    23   21   22 ar   
    24   21   27 ar   
    25   22   23 1    
    26   22   24 ar   
    27   24   25 ar   
    28   25   26 ar   
    29   26   27 ar   
@<TRIPOS>SUBSTRUCTURE
     1 ADP601      1 GROUP   
@<TRIPOS>SET
ATOM$ORANGE STATIC     ATOMS   COLORGROUP SYSTEM 
20 10 10 11 11 13 13 15 15 17 17 19 19 21 21 22 22 25 \
25 27 27 

