#    Name: 6o8e_2_ADP
#    Modification time : Fri May 22 19:25:49 2020

@<TRIPOS>MOLECULE
6o8e_2_ADP
   27    29     1     0     1
SMALL
NO_CHARGES


@<TRIPOS>ATOM
      1 PB         -1.9500   46.1480  -78.2320 P.3       1 ADP601      0.0000 
      2 O1B        -2.4470   45.5980  -79.5500 O.co2     1 ADP601      0.0000 
      3 O2B        -1.8680   45.2250  -77.0160 O.co2     1 ADP601      0.0000 
      4 O3B        -0.7350   47.0350  -78.4580 O.co2     1 ADP601      0.0000 
      5 PA         -2.8430   48.2420  -76.6440 P.3       1 ADP601      0.0000 
      6 O1A        -2.7040   49.5690  -77.3530 O.co2     1 ADP601      0.0000 
      7 O2A        -1.7040   47.7930  -75.7460 O.co2     1 ADP601      0.0000 
      8 O3A        -3.1530   47.1050  -77.7360 O.3       1 ADP601      0.0000 
      9 O5'        -4.2030   48.2900  -75.8000 O.3       1 ADP601      0.0000 
     10 C5'        -4.5450   49.5850  -75.3020 C.3       1 ADP601      0.0000 
     11 C4'        -5.5000   49.5130  -74.1300 C.3       1 ADP601      0.0000 
     12 O4'        -6.7530   49.0010  -74.5620 O.3       1 ADP601      0.0000 
     13 C3'        -5.0290   48.5850  -73.0220 C.3       1 ADP601      0.0000 
     14 O3'        -4.2380   49.2760  -72.0490 O.3       1 ADP601      0.0000 
     15 C2'        -6.3100   48.0750  -72.4190 C.3       1 ADP601      0.0000 
     16 O2'        -6.5070   48.6430  -71.1160 O.3       1 ADP601      0.0000 
     17 C1'        -7.4000   48.5090  -73.4000 C.3       1 ADP601      0.0000 
     18 N9         -8.2640   47.3660  -73.7260 N.pl3     1 ADP601      0.0000 
     19 C8         -7.8620   46.1840  -74.2430 C.2       1 ADP601      0.0000 
     20 N7         -8.9190   45.3420  -74.3990 N.2       1 ADP601      0.0000 
     21 C5         -9.9970   46.0080  -73.9620 C.ar      1 ADP601      0.0000 
     22 C6        -11.4170   45.7150  -73.8270 C.ar      1 ADP601      0.0000 
     23 N6        -11.8990   44.5130  -74.2020 N.pl3     1 ADP601      0.0000 
     24 N1        -12.2030   46.6870  -73.3290 N.ar      1 ADP601      0.0000 
     25 C2        -11.7450   47.8820  -72.9350 C.ar      1 ADP601      0.0000 
     26 N3        -10.4580   48.2100  -73.0190 N.ar      1 ADP601      0.0000 
     27 C4         -9.5670   47.3360  -73.5220 C.ar      1 ADP601      0.0000 
@<TRIPOS>BOND
     1    1    2 ar   
     2    1    3 ar   
     3    1    4 ar   
     4    1    8 1    
     5    5    6 ar   
     6    5    7 ar   
     7    5    8 1    
     8    5    9 1    
     9    9   10 1    
    10   10   11 1    
    11   11   12 1    
    12   11   13 1    
    13   12   17 1    
    14   13   14 1    
    15   13   15 1    
    16   15   16 1    
    17   15   17 1    
    18   17   18 1    
    19   18   19 1    
    20   18   27 1    
    21   19   20 2    
    22   20   21 1    
    23   21   22 ar   
    24   21   27 ar   
    25   22   23 1    
    26   22   24 ar   
    27   24   25 ar   
    28   25   26 ar   
    29   26   27 ar   
@<TRIPOS>SUBSTRUCTURE
     1 ADP601      1 GROUP   
@<TRIPOS>SET
ATOM$ORANGE STATIC     ATOMS   COLORGROUP SYSTEM 
20 10 10 11 11 13 13 15 15 17 17 19 19 21 21 22 22 25 \
25 27 27 

