#    Name: 5mhe_1_T44
#    Modification time : Fri May 22 19:16:22 2020

@<TRIPOS>MOLECULE
5mhe_1_T44
   34    34     1     0     0
SMALL
NO_CHARGES


@<TRIPOS>ATOM
      1 C1         14.9420  -15.4480   41.0200 C.ar      1 T44301      0.0000 
      2 C2         15.4760  -15.7510   42.2520 C.ar      1 T44301      0.0000 
      3 C3         14.6680  -15.7940   43.3910 C.ar      1 T44301      0.0000 
      4 C4         13.3130  -15.5050   43.2420 C.ar      1 T44301      0.0000 
      5 C5         12.7480  -15.2090   41.9800 C.ar      1 T44301      0.0000 
      6 C6         13.5890  -15.1960   40.8820 C.ar      1 T44301      0.0000 
      7 C7         15.8890  -15.4440   39.7910 C.3       1 T44301      0.0000 
      8 C8         15.8980  -14.0950   38.9960 C.3       1 T44301      0.0000 
      9 C9         16.3790  -12.9870   39.8550 C.2       1 T44301      0.0000 
     10 C1'        12.5060  -14.3190   45.1960 C.ar      1 T44301      0.0000 
     11 C2'        12.3230  -14.4610   46.5580 C.ar      1 T44301      0.0000 
     12 C3'        12.3340  -13.3810   47.4330 C.ar      1 T44301      0.0000 
     13 C4'        12.5180  -12.1090   46.9330 C.ar      1 T44301      0.0000 
     14 C5'        12.7010  -11.9270   45.5530 C.ar      1 T44301      0.0000 
     15 C6'        12.6950  -13.0290   44.6910 C.ar      1 T44301      0.0000 
     16 N8         16.7650  -14.2770   37.8760 N.4       1 T44301      0.0000 
     17 O4         12.4600  -15.5220   44.4340 O.3       1 T44301      0.0000 
     18 O4'        12.5050  -10.9870   47.8150 O.co2     1 T44301      0.0000 
     19 O9         17.6070  -12.8700   40.0800 O.co2     1 T44301      0.0000 
     20 O10        15.5720  -12.1400   40.3860 O.co2     1 T44301      0.0000 
     21 I3         15.5820  -16.2960   45.2500 I         1 T44301      0.0000 
     22 I3'        12.0490  -13.7920   49.4870 I         1 T44301      0.0000 
     23 I5         10.6570  -14.8170   41.6360 Du        1 T44301      0.0000 
     24 I5'        13.0000   -9.9700   44.8590 I         1 T44301      0.0000 
     25 H2         16.4320  -15.9450   42.3300 H         1 T44301      0.0000 
     26 H6         13.2280  -14.9880   40.0040 H         1 T44301      0.0000 
     27 H71        15.6250  -16.1770   39.1840 H         1 T44301      0.0000 
     28 H72        16.8040  -15.6150   40.1080 H         1 T44301      0.0000 
     29 H8         14.9680  -13.8890   38.6710 H         1 T44301      0.0000 
     30 H2'        12.1880  -15.3520   46.9220 H         1 T44301      0.0000 
     31 H6'        12.8370  -12.5830   43.8790 H         1 T44301      0.0000 
     32 HN81       17.3940  -14.9320   38.0750 H         1 T44301      0.0000 
     33 HN82       16.2700  -14.5390   37.1450 H         1 T44301      0.0000 
     34 HO4'       13.3010  -10.5630   47.7740 H         1 T44301      0.0000 
@<TRIPOS>BOND
     1    1    2 ar   
     2    1    6 ar   
     3    1    7 1    
     4    2    3 ar   
     5    2   25 1    
     6    3    4 ar   
     7    3   21 1    
     8    4    5 ar   
     9    4   17 1    
    10    5    6 ar   
    11    6   26 1    
    12    7    8 1    
    13    7   27 1    
    14    7   28 1    
    15    8    9 1    
    16    8   16 1    
    17    8   29 1    
    18    9   19 ar   
    19    9   20 ar   
    20   10   11 ar   
    21   10   15 ar   
    22   10   17 1    
    23   11   12 ar   
    24   11   30 1    
    25   12   13 ar   
    26   12   22 1    
    27   13   14 ar   
    28   13   18 ar   
    29   14   15 ar   
    30   14   24 1    
    31   15   31 1    
    32   16   32 1    
    33   16   33 1    
    34   18   34 1    
@<TRIPOS>SUBSTRUCTURE
     1 T44301      1 GROUP   
@<TRIPOS>SET

