#    Name: 5mhe_1_T44_CAVITY_N1_8
#    Modification time : Fri May 22 19:16:24 2020

@<TRIPOS>MOLECULE
5mhe_1_T44_CAVITY_N1_8
   72     0     6     0     0
SMALL
NO_CHARGES


@<TRIPOS>ATOM
      1 OG         15.1100  -12.9900   42.1200 O.3       1 SER1        0.0000 
      2 N          13.8100  -16.0000   39.0300 N.am      2 ALA2        0.0000 
      3 N          11.7800  -15.7200   39.6100 N.am      2 ALA2        0.0000 
      4 O          10.2000  -14.4400   41.2200 O.2       2 ALA2        0.0000 
      5 N           9.8600  -14.2500   47.7400 N.am      2 ALA2        0.0000 
      6 N          11.8400  -13.1700   50.2300 N.am      2 ALA2        0.0000 
      7 NZ         12.1300  -11.9800   46.7600 N.4       3 LYS4        0.0000 
      8 CZ         14.9100  -16.9200   39.4600 C.ar      4 PHE5        0.0000 
      9 CZ         16.4500  -16.8300   40.9100 C.ar      4 PHE5        0.0000 
     10 CZ         15.3500  -15.9200   40.4900 C.ar      4 PHE5        0.0000 
     11 CZ         15.7800  -14.9100   41.5100 C.ar      4 PHE5        0.0000 
     12 CZ         15.9700  -16.4700   42.9500 C.ar      4 PHE5        0.0000 
     13 CZ         12.6500  -13.7100   41.6700 C.ar      4 PHE5        0.0000 
     14 CZ         11.5400  -12.8000   41.2400 C.ar      4 PHE5        0.0000 
     15 CZ         16.1700  -18.0200   44.3800 C.ar      4 PHE5        0.0000 
     16 CZ         15.0600  -17.1000   43.9500 C.ar      4 PHE5        0.0000 
     17 CZ         11.7400  -14.3500   42.6700 C.ar      4 PHE5        0.0000 
     18 CZ         14.1500  -17.7400   44.9600 C.ar      4 PHE5        0.0000 
     19 CZ         16.2100  -13.9100   42.5400 C.ar      4 PHE5        0.0000 
     20 CZ         16.4100  -15.4600   43.9700 C.ar      4 PHE5        0.0000 
     21 CZ         15.3000  -14.5500   43.5500 C.ar      4 PHE5        0.0000 
     22 CZ         14.1900  -13.6300   43.1200 C.ar      4 PHE5        0.0000 
     23 CZ         13.0900  -12.7100   42.6900 C.ar      4 PHE5        0.0000 
     24 CZ         15.4900  -16.1000   44.9800 C.ar      4 PHE5        0.0000 
     25 CZ         14.3900  -15.1800   44.5500 C.ar      4 PHE5        0.0000 
     26 CZ         13.2800  -14.2700   44.1300 C.ar      4 PHE5        0.0000 
     27 CZ         12.1700  -13.3500   43.7000 C.ar      4 PHE5        0.0000 
     28 CZ         11.2600  -13.9800   44.7000 C.ar      4 PHE5        0.0000 
     29 CZ         13.5200  -11.7100   43.7200 C.ar      4 PHE5        0.0000 
     30 CZ         15.9300  -15.1000   46.0100 C.ar      4 PHE5        0.0000 
     31 CZ         13.7100  -13.2600   45.1500 C.ar      4 PHE5        0.0000 
     32 CZ         12.6100  -12.3500   44.7300 C.ar      4 PHE5        0.0000 
     33 CZ         13.9100  -14.8200   46.5900 C.ar      4 PHE5        0.0000 
     34 CZ         12.8000  -13.9000   46.1600 C.ar      4 PHE5        0.0000 
     35 CZ         11.6900  -12.9800   45.7300 C.ar      4 PHE5        0.0000 
     36 CZ         13.0400  -11.3400   45.7600 C.ar      4 PHE5        0.0000 
     37 CZ         14.3400  -13.8100   47.6200 C.ar      4 PHE5        0.0000 
     38 CZ         13.2300  -12.9000   47.1900 C.ar      4 PHE5        0.0000 
     39 CA         12.8900  -16.6400   40.0400 C.3       5 GLY6        0.0000 
     40 CA         14.4300  -16.5500   41.4900 C.3       5 GLY6        0.0000 
     41 CA         13.3300  -15.6300   41.0600 C.3       5 GLY6        0.0000 
     42 CA         11.1100  -13.8000   40.2100 C.3       5 GLY6        0.0000 
     43 CA         11.3000  -15.3500   41.6400 C.3       5 GLY6        0.0000 
     44 CA         14.8700  -15.5500   42.5200 C.3       5 GLY6        0.0000 
     45 CA         13.9500  -16.1900   43.5300 C.3       5 GLY6        0.0000 
     46 CA         12.8500  -15.2700   43.1000 C.3       5 GLY6        0.0000 
     47 CA         13.0400  -16.8200   44.5300 C.3       5 GLY6        0.0000 
     48 CA         10.8200  -14.9900   43.6800 C.3       5 GLY6        0.0000 
     49 CA         15.6900  -17.6500   46.4100 C.3       5 GLY6        0.0000 
     50 CA         14.5800  -16.7400   45.9900 C.3       5 GLY6        0.0000 
     51 CA         13.4700  -15.8200   45.5600 C.3       5 GLY6        0.0000 
     52 CA         12.3600  -14.9000   45.1300 C.3       5 GLY6        0.0000 
     53 CA         13.6700  -17.3700   46.9900 C.3       5 GLY6        0.0000 
     54 CA         10.3400  -14.6200   45.7100 C.3       5 GLY6        0.0000 
     55 CA         15.0100  -15.7300   47.0100 C.3       5 GLY6        0.0000 
     56 CA         12.9900  -15.4500   47.5900 C.3       5 GLY6        0.0000 
     57 CA         11.8800  -14.5300   47.1700 C.3       5 GLY6        0.0000 
     58 CA         10.7800  -13.6200   46.7400 C.3       5 GLY6        0.0000 
     59 CA         10.9700  -15.1700   48.1700 C.3       5 GLY6        0.0000 
     60 CA         13.4300  -14.4500   48.6200 C.3       5 GLY6        0.0000 
     61 CA         11.2100  -12.6200   47.7700 C.3       5 GLY6        0.0000 
     62 CA         12.5100  -15.0900   49.6300 C.3       5 GLY6        0.0000 
     63 CA         11.4000  -14.1700   49.2000 C.3       5 GLY6        0.0000 
     64 CA         10.3000  -13.2500   48.7700 C.3       5 GLY6        0.0000 
     65 CA         12.7500  -12.5300   49.2200 C.3       5 GLY6        0.0000 
     66 CA         11.6400  -11.6100   48.7900 C.3       5 GLY6        0.0000 
     67 DU         14.2400  -15.0000   40.0600 H         6 CUB7        0.0000 
     68 DU         13.1300  -14.0800   39.6300 H         6 CUB7        0.0000 
     69 DU         12.2200  -14.7200   40.6400 H         6 CUB7        0.0000 
     70 DU         14.6700  -14.0000   41.0900 H         6 CUB7        0.0000 
     71 DU         13.7600  -14.6300   42.0900 H         6 CUB7        0.0000 
     72 DU         12.3200  -13.5300   48.1900 H         6 CUB7        0.0000 
@<TRIPOS>BOND
@<TRIPOS>SUBSTRUCTURE
     1 SER1        1 GROUP   
     2 ALA2        2 GROUP   
     3 LYS4        7 GROUP   
     4 PHE5        8 GROUP   
     5 GLY6       39 GROUP   
     6 CUB7       67 GROUP   
@<TRIPOS>SET

