#    Name: 6kyy_2_FAD
#    Modification time : Fri May 22 19:29:48 2020

@<TRIPOS>MOLECULE
6kyy_2_FAD
   53    58     1     0     1
SMALL
NO_CHARGES


@<TRIPOS>ATOM
      1 PA         -7.2020  -25.8910   31.7920 P.3       1 FAD501      0.0000 
      2 O1A        -7.1350  -27.2550   31.2140 O.co2     1 FAD501      0.0000 
      3 O2A        -7.2670  -24.7410   30.7810 O.co2     1 FAD501      0.0000 
      4 O5B        -6.0020  -25.6530   32.7770 O.3       1 FAD501      0.0000 
      5 C5B        -5.2690  -26.7570   33.3460 C.3       1 FAD501      0.0000 
      6 C4B        -4.0160  -26.2230   33.9920 C.3       1 FAD501      0.0000 
      7 O4B        -3.8250  -26.8460   35.2840 O.3       1 FAD501      0.0000 
      8 C3B        -2.7270  -26.4500   33.2010 C.3       1 FAD501      0.0000 
      9 O3B        -1.9350  -25.2680   33.1850 O.3       1 FAD501      0.0000 
     10 C2B        -2.0450  -27.5900   33.9620 C.3       1 FAD501      0.0000 
     11 O2B        -0.6270  -27.5210   33.8610 O.3       1 FAD501      0.0000 
     12 C1B        -2.4950  -27.3010   35.3910 C.3       1 FAD501      0.0000 
     13 N9A        -2.4690  -28.4600   36.2790 N.pl3     1 FAD501      0.0000 
     14 C8A        -2.9660  -29.7110   36.0250 C.2       1 FAD501      0.0000 
     15 N7A        -2.8010  -30.5630   37.0090 N.2       1 FAD501      0.0000 
     16 C5A        -2.1470  -29.8190   37.9800 C.ar      1 FAD501      0.0000 
     17 C6A        -1.6840  -30.1390   39.2710 C.ar      1 FAD501      0.0000 
     18 N6A        -1.8140  -31.3450   39.8300 N.pl3     1 FAD501      0.0000 
     19 N1A        -1.0740  -29.1620   39.9780 N.ar      1 FAD501      0.0000 
     20 C2A        -0.9400  -27.9540   39.4250 C.ar      1 FAD501      0.0000 
     21 N3A        -1.3350  -27.5370   38.2210 N.ar      1 FAD501      0.0000 
     22 C4A        -1.9360  -28.5220   37.5430 C.ar      1 FAD501      0.0000 
     23 N1        -12.6040  -25.1100   23.9580 N.2       1 FAD501      0.0000 
     24 C2        -13.4310  -24.2200   23.3360 C.2       1 FAD501      0.0000 
     25 O2        -14.2860  -23.5820   23.9610 O.2       1 FAD501      0.0000 
     26 N3        -13.3170  -24.0150   21.9710 N.am      1 FAD501      0.0000 
     27 C4        -12.4330  -24.6520   21.1230 C.2       1 FAD501      0.0000 
     28 O4        -12.4200  -24.3770   19.9250 O.2       1 FAD501      0.0000 
     29 C4X       -11.5610  -25.6010   21.7940 C.2       1 FAD501      0.0000 
     30 N5        -10.6710  -26.2240   21.0800 N.2       1 FAD501      0.0000 
     31 C5X        -9.8360  -27.1240   21.7210 C.ar      1 FAD501      0.0000 
     32 C6         -8.8900  -27.8140   20.9650 C.ar      1 FAD501      0.0000 
     33 C7         -8.0280  -28.7280   21.5600 C.ar      1 FAD501      0.0000 
     34 C7M        -7.0180  -29.4550   20.7130 C.3       1 FAD501      0.0000 
     35 C8         -8.1110  -28.9610   22.9430 C.ar      1 FAD501      0.0000 
     36 C8M        -7.1920  -29.9440   23.6170 C.3       1 FAD501      0.0000 
     37 C9         -9.0550  -28.2750   23.7010 C.ar      1 FAD501      0.0000 
     38 C9A        -9.9140  -27.3620   23.1010 C.ar      1 FAD501      0.0000 
     39 N10       -10.8760  -26.6450   23.8410 N.pl3     1 FAD501      0.0000 
     40 C10       -11.7190  -25.7570   23.2180 C.2       1 FAD501      0.0000 
     41 C1'       -11.0180  -26.8530   25.2890 C.3       1 FAD501      0.0000 
     42 C2'       -10.2100  -25.8650   26.1240 C.3       1 FAD501      0.0000 
     43 O2'        -8.8130  -26.0420   25.8870 O.3       1 FAD501      0.0000 
     44 C3'       -10.5010  -26.1070   27.6060 C.3       1 FAD501      0.0000 
     45 O3'       -11.8380  -26.5730   27.7450 O.3       1 FAD501      0.0000 
     46 C4'       -10.3100  -24.8770   28.4950 C.3       1 FAD501      0.0000 
     47 O4'        -8.9220  -24.5530   28.5670 O.3       1 FAD501      0.0000 
     48 C5'       -10.8820  -25.0660   29.8840 C.3       1 FAD501      0.0000 
     49 O5'        -9.8960  -25.7130   30.7160 O.3       1 FAD501      0.0000 
     50 P          -9.9680  -25.6250   32.2870 P.3       1 FAD501      0.0000 
     51 O1P       -10.4510  -24.2320   32.7020 O.co2     1 FAD501      0.0000 
     52 O2P       -10.7700  -26.7430   32.8320 O.co2     1 FAD501      0.0000 
     53 O3P        -8.4580  -25.7670   32.7500 O.3       1 FAD501      0.0000 
@<TRIPOS>BOND
     1    1    2 ar   
     2    1    3 ar   
     3    1    4 1    
     4    1   53 1    
     5    4    5 1    
     6    5    6 1    
     7    6    7 1    
     8    6    8 1    
     9    7   12 1    
    10    8    9 1    
    11    8   10 1    
    12   10   11 1    
    13   10   12 1    
    14   12   13 1    
    15   13   14 1    
    16   13   22 1    
    17   14   15 2    
    18   15   16 1    
    19   16   17 ar   
    20   16   22 ar   
    21   17   18 1    
    22   17   19 ar   
    23   19   20 ar   
    24   20   21 ar   
    25   21   22 ar   
    26   23   24 1    
    27   23   40 2    
    28   24   25 2    
    29   24   26 am   
    30   26   27 am   
    31   27   28 2    
    32   27   29 1    
    33   29   30 2    
    34   29   40 1    
    35   30   31 1    
    36   31   32 ar   
    37   31   38 ar   
    38   32   33 ar   
    39   33   34 1    
    40   33   35 ar   
    41   35   36 1    
    42   35   37 ar   
    43   37   38 ar   
    44   38   39 1    
    45   39   40 1    
    46   39   41 1    
    47   41   42 1    
    48   42   43 1    
    49   42   44 1    
    50   44   45 1    
    51   44   46 1    
    52   46   47 1    
    53   46   48 1    
    54   48   49 1    
    55   49   50 1    
    56   50   51 ar   
    57   50   52 ar   
    58   50   53 1    
@<TRIPOS>SUBSTRUCTURE
     1 FAD501      1 GROUP   
@<TRIPOS>SET
ATOM$ORANGE STATIC     ATOMS   COLORGROUP SYSTEM 
54 5 5 6 6 8 8 10 10 12 12 14 14 16 16 17 17 20 \
20 22 22 24 24 27 27 29 29 31 31 32 32 33 33 34 34 35 \
35 36 36 37 37 38 38 40 40 41 41 42 42 44 44 46 46 48 \
48 

