#    Name: 6kyy_3_FAD
#    Modification time : Fri May 22 19:30:02 2020

@<TRIPOS>MOLECULE
6kyy_3_FAD
   53    58     1     0     1
SMALL
NO_CHARGES


@<TRIPOS>ATOM
      1 PA        -43.5570  -34.7040   46.1330 P.3       1 FAD502      0.0000 
      2 O1A       -44.0150  -33.5960   47.0060 O.co2     1 FAD502      0.0000 
      3 O2A       -42.6490  -35.7290   46.8150 O.co2     1 FAD502      0.0000 
      4 O5B       -42.8380  -34.1500   44.8460 O.3       1 FAD502      0.0000 
      5 C5B       -41.6440  -33.3450   44.9430 C.3       1 FAD502      0.0000 
      6 C4B       -40.5010  -34.0630   44.2700 C.3       1 FAD502      0.0000 
      7 O4B       -40.3050  -33.5270   42.9400 O.3       1 FAD502      0.0000 
      8 C3B       -39.1550  -33.9490   44.9830 C.3       1 FAD502      0.0000 
      9 O3B       -38.4470  -35.1820   44.9320 O.3       1 FAD502      0.0000 
     10 C2B       -38.4440  -32.8430   44.1980 C.3       1 FAD502      0.0000 
     11 O2B       -37.0300  -32.9880   44.2410 O.3       1 FAD502      0.0000 
     12 C1B       -38.9670  -33.1020   42.7870 C.3       1 FAD502      0.0000 
     13 N9A       -38.9490  -31.9310   41.9140 N.pl3     1 FAD502      0.0000 
     14 C8A       -39.4790  -30.6960   42.1740 C.2       1 FAD502      0.0000 
     15 N7A       -39.3160  -29.8280   41.2040 N.2       1 FAD502      0.0000 
     16 C5A       -38.6280  -30.5440   40.2360 C.ar      1 FAD502      0.0000 
     17 C6A       -38.1500  -30.1970   38.9570 C.ar      1 FAD502      0.0000 
     18 N6A       -38.2970  -28.9870   38.4110 N.pl3     1 FAD502      0.0000 
     19 N1A       -37.5060  -31.1510   38.2480 N.ar      1 FAD502      0.0000 
     20 C2A       -37.3550  -32.3630   38.7890 C.ar      1 FAD502      0.0000 
     21 N3A       -37.7620  -32.8050   39.9800 N.ar      1 FAD502      0.0000 
     22 C4A       -38.3970  -31.8420   40.6600 C.ar      1 FAD502      0.0000 
     23 N1        -48.8030  -35.2630   54.2640 N.2       1 FAD502      0.0000 
     24 C2        -49.6300  -36.1560   54.8830 C.2       1 FAD502      0.0000 
     25 O2        -50.5220  -36.7510   54.2730 O.2       1 FAD502      0.0000 
     26 N3        -49.4760  -36.4100   56.2320 N.am      1 FAD502      0.0000 
     27 C4        -48.5380  -35.8430   57.0620 C.2       1 FAD502      0.0000 
     28 O4        -48.5070  -36.1500   58.2500 O.2       1 FAD502      0.0000 
     29 C4X       -47.6580  -34.8990   56.4000 C.2       1 FAD502      0.0000 
     30 N5        -46.7370  -34.3100   57.1150 N.2       1 FAD502      0.0000 
     31 C5X       -45.8990  -33.4060   56.4790 C.ar      1 FAD502      0.0000 
     32 C6        -44.9080  -32.7680   57.2260 C.ar      1 FAD502      0.0000 
     33 C7        -44.0420  -31.8540   56.6330 C.ar      1 FAD502      0.0000 
     34 C7M       -42.9840  -31.1860   57.4710 C.3       1 FAD502      0.0000 
     35 C8        -44.1660  -31.5680   55.2640 C.ar      1 FAD502      0.0000 
     36 C8M       -43.2450  -30.5840   54.5910 C.3       1 FAD502      0.0000 
     37 C9        -45.1540  -32.2020   54.5160 C.ar      1 FAD502      0.0000 
     38 C9A       -46.0170  -33.1140   55.1120 C.ar      1 FAD502      0.0000 
     39 N10       -47.0210  -33.7780   54.3770 N.pl3     1 FAD502      0.0000 
     40 C10       -47.8660  -34.6740   54.9940 C.2       1 FAD502      0.0000 
     41 C1'       -47.2040  -33.5080   52.9440 C.3       1 FAD502      0.0000 
     42 C2'       -46.7260  -34.6430   52.0450 C.3       1 FAD502      0.0000 
     43 O2'       -45.3740  -34.9870   52.3490 O.3       1 FAD502      0.0000 
     44 C3'       -46.8310  -34.2000   50.5860 C.3       1 FAD502      0.0000 
     45 O3'       -47.9910  -33.3890   50.4400 O.3       1 FAD502      0.0000 
     46 C4'       -46.9090  -35.3490   49.5800 C.3       1 FAD502      0.0000 
     47 O4'       -45.6470  -36.0150   49.5230 O.3       1 FAD502      0.0000 
     48 C5'       -47.3250  -34.8820   48.2020 C.3       1 FAD502      0.0000 
     49 O5'       -46.6300  -35.6660   47.2100 O.3       1 FAD502      0.0000 
     50 P         -46.3220  -35.0850   45.7790 P.3       1 FAD502      0.0000 
     51 O1P       -47.1640  -35.8370   44.7420 O.co2     1 FAD502      0.0000 
     52 O2P       -46.4660  -33.6100   45.7550 O.co2     1 FAD502      0.0000 
     53 O3P       -44.8060  -35.4870   45.5500 O.3       1 FAD502      0.0000 
@<TRIPOS>BOND
     1    1    2 ar   
     2    1    3 ar   
     3    1    4 1    
     4    1   53 1    
     5    4    5 1    
     6    5    6 1    
     7    6    7 1    
     8    6    8 1    
     9    7   12 1    
    10    8    9 1    
    11    8   10 1    
    12   10   11 1    
    13   10   12 1    
    14   12   13 1    
    15   13   14 1    
    16   13   22 1    
    17   14   15 2    
    18   15   16 1    
    19   16   17 ar   
    20   16   22 ar   
    21   17   18 1    
    22   17   19 ar   
    23   19   20 ar   
    24   20   21 ar   
    25   21   22 ar   
    26   23   24 1    
    27   23   40 2    
    28   24   25 2    
    29   24   26 am   
    30   26   27 am   
    31   27   28 2    
    32   27   29 1    
    33   29   30 2    
    34   29   40 1    
    35   30   31 1    
    36   31   32 ar   
    37   31   38 ar   
    38   32   33 ar   
    39   33   34 1    
    40   33   35 ar   
    41   35   36 1    
    42   35   37 ar   
    43   37   38 ar   
    44   38   39 1    
    45   39   40 1    
    46   39   41 1    
    47   41   42 1    
    48   42   43 1    
    49   42   44 1    
    50   44   45 1    
    51   44   46 1    
    52   46   47 1    
    53   46   48 1    
    54   48   49 1    
    55   49   50 1    
    56   50   51 ar   
    57   50   52 ar   
    58   50   53 1    
@<TRIPOS>SUBSTRUCTURE
     1 FAD502      1 GROUP   
@<TRIPOS>SET
ATOM$ORANGE STATIC     ATOMS   COLORGROUP SYSTEM 
54 5 5 6 6 8 8 10 10 12 12 14 14 16 16 17 17 20 \
20 22 22 24 24 27 27 29 29 31 31 32 32 33 33 34 34 35 \
35 36 36 37 37 38 38 40 40 41 41 42 42 44 44 46 46 48 \
48 

