#    Name: 6kyy_4_FAD
#    Modification time : Fri May 22 19:30:14 2020

@<TRIPOS>MOLECULE
6kyy_4_FAD
   53    58     1     0     1
SMALL
NO_CHARGES


@<TRIPOS>ATOM
      1 PA        -67.1770  -60.9330   84.7940 P.3       1 FAD501      0.0000 
      2 O1A       -66.2240  -62.0690   84.8120 O.co2     1 FAD501      0.0000 
      3 O2A       -66.5830  -59.5790   84.3860 O.co2     1 FAD501      0.0000 
      4 O5B       -67.8940  -60.7630   86.1900 O.3       1 FAD501      0.0000 
      5 C5B       -67.9480  -61.8440   87.1440 C.3       1 FAD501      0.0000 
      6 C4B       -68.2050  -61.2630   88.5120 C.3       1 FAD501      0.0000 
      7 O4B       -69.2540  -62.0050   89.1760 O.3       1 FAD501      0.0000 
      8 C3B       -67.0000  -61.2600   89.4580 C.3       1 FAD501      0.0000 
      9 O3B       -66.7860  -59.9600   89.9970 O.3       1 FAD501      0.0000 
     10 C2B       -67.3870  -62.2750   90.5400 C.3       1 FAD501      0.0000 
     11 O2B       -66.8620  -61.9200   91.8140 O.3       1 FAD501      0.0000 
     12 C1B       -68.9060  -62.1510   90.5320 C.3       1 FAD501      0.0000 
     13 N9A       -69.6150  -63.3030   91.0820 N.pl3     1 FAD501      0.0000 
     14 C8A       -69.3850  -64.6270   90.8190 C.2       1 FAD501      0.0000 
     15 N7A       -70.1790  -65.4480   91.4660 N.2       1 FAD501      0.0000 
     16 C5A       -70.9880  -64.6020   92.2090 C.ar      1 FAD501      0.0000 
     17 C6A       -72.0420  -64.8460   93.1120 C.ar      1 FAD501      0.0000 
     18 N6A       -72.4810  -66.0660   93.4310 N.pl3     1 FAD501      0.0000 
     19 N1A       -72.6380  -63.7760   93.6840 N.ar      1 FAD501      0.0000 
     20 C2A       -72.2040  -62.5530   93.3700 C.ar      1 FAD501      0.0000 
     21 N3A       -71.2220  -62.2010   92.5370 N.ar      1 FAD501      0.0000 
     22 C4A       -70.6510  -63.2780   91.9850 C.ar      1 FAD501      0.0000 
     23 N1        -61.1040  -60.4890   77.2160 N.2       1 FAD501      0.0000 
     24 C2        -60.9500  -59.7510   76.0770 C.2       1 FAD501      0.0000 
     25 O2        -61.9010  -59.5060   75.3270 O.2       1 FAD501      0.0000 
     26 N3        -59.7000  -59.2590   75.7420 N.am      1 FAD501      0.0000 
     27 C4        -58.5370  -59.4370   76.4620 C.2       1 FAD501      0.0000 
     28 O4        -57.4820  -58.9470   76.0620 O.2       1 FAD501      0.0000 
     29 C4X       -58.7090  -60.2260   77.6670 C.2       1 FAD501      0.0000 
     30 N5        -57.6620  -60.4390   78.4150 N.2       1 FAD501      0.0000 
     31 C5X       -57.8280  -61.1870   79.5690 C.ar      1 FAD501      0.0000 
     32 C6        -56.7180  -61.4300   80.3760 C.ar      1 FAD501      0.0000 
     33 C7        -56.8330  -62.1760   81.5450 C.ar      1 FAD501      0.0000 
     34 C7M       -55.6110  -62.4170   82.3920 C.3       1 FAD501      0.0000 
     35 C8        -58.0850  -62.6920   81.9180 C.ar      1 FAD501      0.0000 
     36 C8M       -58.2450  -63.5040   83.1770 C.3       1 FAD501      0.0000 
     37 C9        -59.1950  -62.4520   81.1140 C.ar      1 FAD501      0.0000 
     38 C9A       -59.0750  -61.7060   79.9480 C.ar      1 FAD501      0.0000 
     39 N10       -60.1820  -61.4410   79.1150 N.pl3     1 FAD501      0.0000 
     40 C10       -60.0340  -60.7070   77.9630 C.2       1 FAD501      0.0000 
     41 C1'       -61.5140  -61.9620   79.4510 C.3       1 FAD501      0.0000 
     42 C2'       -62.3730  -60.9690   80.2250 C.3       1 FAD501      0.0000 
     43 O2'       -61.8880  -60.8280   81.5610 O.3       1 FAD501      0.0000 
     44 C3'       -63.8130  -61.4820   80.2680 C.3       1 FAD501      0.0000 
     45 O3'       -64.2100  -61.8490   78.9520 O.3       1 FAD501      0.0000 
     46 C4'       -64.8280  -60.4890   80.8350 C.3       1 FAD501      0.0000 
     47 O4'       -64.4870  -60.1870   82.1880 O.3       1 FAD501      0.0000 
     48 C5'       -66.2500  -61.0020   80.7510 C.3       1 FAD501      0.0000 
     49 O5'       -66.9920  -60.5160   81.8890 O.3       1 FAD501      0.0000 
     50 P         -68.4160  -61.0900   82.2430 P.3       1 FAD501      0.0000 
     51 O1P       -69.4890  -60.0500   81.9060 O.co2     1 FAD501      0.0000 
     52 O2P       -68.6170  -62.4090   81.5990 O.co2     1 FAD501      0.0000 
     53 O3P       -68.3890  -61.2570   83.8240 O.3       1 FAD501      0.0000 
@<TRIPOS>BOND
     1    1    2 ar   
     2    1    3 ar   
     3    1    4 1    
     4    1   53 1    
     5    4    5 1    
     6    5    6 1    
     7    6    7 1    
     8    6    8 1    
     9    7   12 1    
    10    8    9 1    
    11    8   10 1    
    12   10   11 1    
    13   10   12 1    
    14   12   13 1    
    15   13   14 1    
    16   13   22 1    
    17   14   15 2    
    18   15   16 1    
    19   16   17 ar   
    20   16   22 ar   
    21   17   18 1    
    22   17   19 ar   
    23   19   20 ar   
    24   20   21 ar   
    25   21   22 ar   
    26   23   24 1    
    27   23   40 2    
    28   24   25 2    
    29   24   26 am   
    30   26   27 am   
    31   27   28 2    
    32   27   29 1    
    33   29   30 2    
    34   29   40 1    
    35   30   31 1    
    36   31   32 ar   
    37   31   38 ar   
    38   32   33 ar   
    39   33   34 1    
    40   33   35 ar   
    41   35   36 1    
    42   35   37 ar   
    43   37   38 ar   
    44   38   39 1    
    45   39   40 1    
    46   39   41 1    
    47   41   42 1    
    48   42   43 1    
    49   42   44 1    
    50   44   45 1    
    51   44   46 1    
    52   46   47 1    
    53   46   48 1    
    54   48   49 1    
    55   49   50 1    
    56   50   51 ar   
    57   50   52 ar   
    58   50   53 1    
@<TRIPOS>SUBSTRUCTURE
     1 FAD501      1 GROUP   
@<TRIPOS>SET
ATOM$ORANGE STATIC     ATOMS   COLORGROUP SYSTEM 
54 5 5 6 6 8 8 10 10 12 12 14 14 16 16 17 17 20 \
20 22 22 24 24 27 27 29 29 31 31 32 32 33 33 34 34 35 \
35 36 36 37 37 38 38 40 40 41 41 42 42 44 44 46 46 48 \
48 

