#    Name: 6kyy_1_FAD
#    Modification time : Fri May 22 19:29:35 2020

@<TRIPOS>MOLECULE
6kyy_1_FAD
   53    58     1     0     1
SMALL
NO_CHARGES


@<TRIPOS>ATOM
      1 PA        -31.0770   -0.1000   -7.1140 P.3       1 FAD501      0.0000 
      2 O1A       -30.3730    1.1440   -6.7180 O.co2     1 FAD501      0.0000 
      3 O2A       -30.1880   -1.3460   -7.1850 O.co2     1 FAD501      0.0000 
      4 O5B       -31.8350    0.0930   -8.4780 O.3       1 FAD501      0.0000 
      5 C5B       -31.1700    0.6480   -9.6330 C.3       1 FAD501      0.0000 
      6 C4B       -31.4540   -0.2220  -10.8310 C.3       1 FAD501      0.0000 
      7 O4B       -32.5770    0.3150  -11.5700 O.3       1 FAD501      0.0000 
      8 C3B       -30.3040   -0.3430  -11.8290 C.3       1 FAD501      0.0000 
      9 O3B       -30.2270   -1.6630  -12.3530 O.3       1 FAD501      0.0000 
     10 C2B       -30.6830    0.6770  -12.9040 C.3       1 FAD501      0.0000 
     11 O2B       -30.1250    0.3460  -14.1710 O.3       1 FAD501      0.0000 
     12 C1B       -32.2010    0.5210  -12.9170 C.3       1 FAD501      0.0000 
     13 N9A       -32.9280    1.6760  -13.4350 N.pl3     1 FAD501      0.0000 
     14 C8A       -32.7760    2.9870  -13.0680 C.2       1 FAD501      0.0000 
     15 N7A       -33.5680    3.8160  -13.7060 N.2       1 FAD501      0.0000 
     16 C5A       -34.2950    2.9910  -14.5510 C.ar      1 FAD501      0.0000 
     17 C6A       -35.3070    3.2520  -15.4950 C.ar      1 FAD501      0.0000 
     18 N6A       -35.7830    4.4720  -15.7570 N.pl3     1 FAD501      0.0000 
     19 N1A       -35.8200    2.2000  -16.1720 N.ar      1 FAD501      0.0000 
     20 C2A       -35.3480    0.9780  -15.9150 C.ar      1 FAD501      0.0000 
     21 N3A       -34.4000    0.6110  -15.0500 N.ar      1 FAD501      0.0000 
     22 C4A       -33.9110    1.6700  -14.3950 C.ar      1 FAD501      0.0000 
     23 N1        -25.0110   -0.7180    0.2890 N.2       1 FAD501      0.0000 
     24 C2        -24.8830   -1.4340    1.4450 C.2       1 FAD501      0.0000 
     25 O2        -25.8630   -1.7370    2.1330 O.2       1 FAD501      0.0000 
     26 N3        -23.6290   -1.8350    1.8670 N.am      1 FAD501      0.0000 
     27 C4        -22.4360   -1.5840    1.2250 C.2       1 FAD501      0.0000 
     28 O4        -21.3820   -1.9940    1.7050 O.2       1 FAD501      0.0000 
     29 C4X       -22.5800   -0.8230   -0.0020 C.2       1 FAD501      0.0000 
     30 N5        -21.5000   -0.5380   -0.6800 N.2       1 FAD501      0.0000 
     31 C5X       -21.6420    0.1890   -1.8530 C.ar      1 FAD501      0.0000 
     32 C6        -20.5020    0.5020   -2.5920 C.ar      1 FAD501      0.0000 
     33 C7        -20.5920    1.2300   -3.7740 C.ar      1 FAD501      0.0000 
     34 C7M       -19.3380    1.5510   -4.5440 C.3       1 FAD501      0.0000 
     35 C8        -21.8500    1.6540   -4.2330 C.ar      1 FAD501      0.0000 
     36 C8M       -21.9840    2.4420   -5.5100 C.3       1 FAD501      0.0000 
     37 C9        -22.9900    1.3420   -3.4990 C.ar      1 FAD501      0.0000 
     38 C9A       -22.8950    0.6160   -2.3180 C.ar      1 FAD501      0.0000 
     39 N10       -24.0320    0.2830   -1.5550 N.pl3     1 FAD501      0.0000 
     40 C10       -23.9110   -0.4330   -0.3890 C.2       1 FAD501      0.0000 
     41 C1'       -25.3720    0.7010   -1.9850 C.3       1 FAD501      0.0000 
     42 C2'       -26.1090   -0.3730   -2.7770 C.3       1 FAD501      0.0000 
     43 O2'       -25.3850   -0.7050   -3.9620 O.3       1 FAD501      0.0000 
     44 C3'       -27.4950    0.1460   -3.1600 C.3       1 FAD501      0.0000 
     45 O3'       -27.8520    1.2090   -2.2840 O.3       1 FAD501      0.0000 
     46 C4'       -28.5890   -0.9210   -3.1120 C.3       1 FAD501      0.0000 
     47 O4'       -28.4640   -1.7760   -4.2490 O.3       1 FAD501      0.0000 
     48 C5'       -29.9800   -0.3270   -3.0480 C.3       1 FAD501      0.0000 
     49 O5'       -30.7340   -0.7780   -4.1910 O.3       1 FAD501      0.0000 
     50 P         -32.1440   -0.1680   -4.5340 P.3       1 FAD501      0.0000 
     51 O1P       -33.2330   -1.0080   -3.8590 O.co2     1 FAD501      0.0000 
     52 O2P       -32.1910    1.2830   -4.2370 O.co2     1 FAD501      0.0000 
     53 O3P       -32.2520   -0.4050   -6.0960 O.3       1 FAD501      0.0000 
@<TRIPOS>BOND
     1    1    2 ar   
     2    1    3 ar   
     3    1    4 1    
     4    1   53 1    
     5    4    5 1    
     6    5    6 1    
     7    6    7 1    
     8    6    8 1    
     9    7   12 1    
    10    8    9 1    
    11    8   10 1    
    12   10   11 1    
    13   10   12 1    
    14   12   13 1    
    15   13   14 1    
    16   13   22 1    
    17   14   15 2    
    18   15   16 1    
    19   16   17 ar   
    20   16   22 ar   
    21   17   18 1    
    22   17   19 ar   
    23   19   20 ar   
    24   20   21 ar   
    25   21   22 ar   
    26   23   24 1    
    27   23   40 2    
    28   24   25 2    
    29   24   26 am   
    30   26   27 am   
    31   27   28 2    
    32   27   29 1    
    33   29   30 2    
    34   29   40 1    
    35   30   31 1    
    36   31   32 ar   
    37   31   38 ar   
    38   32   33 ar   
    39   33   34 1    
    40   33   35 ar   
    41   35   36 1    
    42   35   37 ar   
    43   37   38 ar   
    44   38   39 1    
    45   39   40 1    
    46   39   41 1    
    47   41   42 1    
    48   42   43 1    
    49   42   44 1    
    50   44   45 1    
    51   44   46 1    
    52   46   47 1    
    53   46   48 1    
    54   48   49 1    
    55   49   50 1    
    56   50   51 ar   
    57   50   52 ar   
    58   50   53 1    
@<TRIPOS>SUBSTRUCTURE
     1 FAD501      1 GROUP   
@<TRIPOS>SET
ATOM$ORANGE STATIC     ATOMS   COLORGROUP SYSTEM 
54 5 5 6 6 8 8 10 10 12 12 14 14 16 16 17 17 20 \
20 22 22 24 24 27 27 29 29 31 31 32 32 33 33 34 34 35 \
35 36 36 37 37 38 38 40 40 41 41 42 42 44 44 46 46 48 \
48 

