#    Name: 6opw_1_017
#    Modification time : Fri May 22 19:26:13 2020

@<TRIPOS>MOLECULE
6opw_1_017
   75    78     1     0     0
SMALL
NO_CHARGES


@<TRIPOS>ATOM
      1 N1         10.4710   15.6940   -2.8100 N.pl3     1 017101      0.0000 
      2 C2         10.2530   15.4220   -1.3580 C.ar      1 017101      0.0000 
      3 C3          9.3180   16.1520   -0.6600 C.ar      1 017101      0.0000 
      4 C4          9.1120   15.9070    0.6780 C.ar      1 017101      0.0000 
      5 C5          9.8510   14.9200    1.3320 C.ar      1 017101      0.0000 
      6 C6         10.7780   14.1920    0.6440 C.ar      1 017101      0.0000 
      7 C7         10.9890   14.4390   -0.7140 C.ar      1 017101      0.0000 
      8 S8          9.5450   14.6190    3.1210 S.o2      1 017101      0.0000 
      9 O9          9.4210   13.2080    3.3860 O.2       1 017101      0.0000 
     10 O10         8.1680   15.0520    3.4770 O.2       1 017101      0.0000 
     11 N11        10.6840   15.4890    4.1120 N.pl3     1 017101      0.0000 
     12 C12        11.5790   14.9310    5.1640 C.3       1 017101      0.0000 
     13 C13        12.1930   13.5240    5.0960 C.3       1 017101      0.0000 
     14 C14        13.2210   13.2930    3.9340 C.3       1 017101      0.0000 
     15 C15        11.1640   12.3690    5.2070 C.3       1 017101      0.0000 
     16 C16        10.2670   16.9740    4.2710 C.3       1 017101      0.0000 
     17 C17         9.9970   17.3750    5.7540 C.3       1 017101      0.0000 
     18 O18        10.0790   18.7590    5.8670 O.3       1 017101      0.0000 
     19 C19         8.6150   16.9290    6.2580 C.3       1 017101      0.0000 
     20 N20         8.6510   17.1100    7.7000 N.am      1 017101      0.0000 
     21 C21         8.1190   16.1200    8.6450 C.2       1 017101      0.0000 
     22 O22         7.9660   14.9880    8.3190 O.2       1 017101      0.0000 
     23 O23         7.8100   16.5900    9.9220 O.3       1 017101      0.0000 
     24 C24         7.4510   15.6490   10.9110 C.3       1 017101      0.0000 
     25 C25         8.6620   15.6200   12.0510 C.3       1 017101      0.0000 
     26 O26         8.5600   16.8170   12.6510 O.3       1 017101      0.0000 
     27 C27         7.0210   17.1590   12.5760 C.3       1 017101      0.0000 
     28 O28         6.8300   18.2530   11.9970 O.3       1 017101      0.0000 
     29 C29         5.4220   18.0640   11.1960 C.3       1 017101      0.0000 
     30 C30         5.4070   16.8240   10.7560 C.3       1 017101      0.0000 
     31 C31         6.3890   16.0780   11.5950 C.3       1 017101      0.0000 
     32 C32         7.4980   17.7970    5.7030 C.3       1 017101      0.0000 
     33 C33         5.4800   16.3400    6.0820 C.ar      1 017101      0.0000 
     34 C34         4.2230   16.0930    6.6590 C.ar      1 017101      0.0000 
     35 C35         3.6250   17.0510    7.4970 C.ar      1 017101      0.0000 
     36 C36         4.2730   18.2390    7.7510 C.ar      1 017101      0.0000 
     37 C37         5.5270   18.4880    7.1770 C.ar      1 017101      0.0000 
     38 C38         6.1300   17.5210    6.3380 C.ar      1 017101      0.0000 
     39 H11        11.2750   15.6940   -3.1360 H         1 017101      0.0000 
     40 H12         9.7940   15.8520   -3.3290 H         1 017101      0.0000 
     41 H3          8.8250   16.8100   -1.0930 H         1 017101      0.0000 
     42 H4          8.4800   16.4000    1.1480 H         1 017101      0.0000 
     43 H6         11.2680   13.5330    1.0790 H         1 017101      0.0000 
     44 H7         11.6200   13.9460   -1.1840 H         1 017101      0.0000 
     45 H121       11.0850   14.9590    5.9620 H         1 017101      0.0000 
     46 H122       12.3030   15.5260    5.2260 H         1 017101      0.0000 
     47 H13        12.7060   13.4950    5.8830 H         1 017101      0.0000 
     48 H141       13.9580   12.8110    4.2580 H         1 017101      0.0000 
     49 H142       12.8100   12.8080    3.2430 H         1 017101      0.0000 
     50 H143       13.5120   14.1220    3.6030 H         1 017101      0.0000 
     51 H151       11.1050   11.9220    4.3840 H         1 017101      0.0000 
     52 H152       10.3230   12.7190    5.4350 H         1 017101      0.0000 
     53 H153       11.4410   11.7650    5.8710 H         1 017101      0.0000 
     54 H161        9.4840   17.1210    3.7730 H         1 017101      0.0000 
     55 H162       10.9550   17.5170    3.9330 H         1 017101      0.0000 
     56 H17        10.6430   16.9430    6.2800 H         1 017101      0.0000 
     57 H18        10.8550   19.0060    5.6950 H         1 017101      0.0000 
     58 H19         8.4430   16.0460    5.9890 H         1 017101      0.0000 
     59 H20         9.0030   17.8370    8.0170 H         1 017101      0.0000 
     60 H24         7.2840   14.8060   10.5310 H         1 017101      0.0000 
     61 H251        9.5010   15.5270   11.6400 H         1 017101      0.0000 
     62 H252        8.5190   14.9280   12.6690 H         1 017101      0.0000 
     63 H27         6.6240   17.1340   13.4260 H         1 017101      0.0000 
     64 H291        5.3830   18.6610   10.4730 H         1 017101      0.0000 
     65 H292        4.7000   18.2060   11.7800 H         1 017101      0.0000 
     66 H301        4.5490   16.4560   10.8610 H         1 017101      0.0000 
     67 H302        5.6690   16.7990    9.8550 H         1 017101      0.0000 
     68 H31         5.9520   15.3750   12.0390 H         1 017101      0.0000 
     69 H321        7.7200   18.6970    5.8500 H         1 017101      0.0000 
     70 H322        7.4350   17.6460    4.7780 H         1 017101      0.0000 
     71 H33         5.8710   15.7050    5.5290 H         1 017101      0.0000 
     72 H34         3.7840   15.2930    6.4840 H         1 017101      0.0000 
     73 H35         2.7960   16.8830    7.8790 H         1 017101      0.0000 
     74 H36         3.8790   18.8730    8.3030 H         1 017101      0.0000 
     75 H37         5.9640   19.2900    7.3480 H         1 017101      0.0000 
@<TRIPOS>BOND
     1    1    2 1    
     2    2    3 ar   
     3    1   39 1    
     4    1   40 1    
     5    2    7 ar   
     6    3    4 ar   
     7    4    5 ar   
     8    3   41 1    
     9    5    6 ar   
    10    4   42 1    
    11    5    8 1    
    12    6    7 ar   
    13    8    9 2    
    14    6   43 1    
    15    7   44 1    
    16    8   10 2    
    17    8   11 1    
    18   11   12 1    
    19   11   16 1    
    20   12   13 1    
    21   13   14 1    
    22   12   45 1    
    23   12   46 1    
    24   13   15 1    
    25   16   17 1    
    26   13   47 1    
    27   14   48 1    
    28   14   49 1    
    29   14   50 1    
    30   15   51 1    
    31   15   52 1    
    32   15   53 1    
    33   17   18 1    
    34   16   54 1    
    35   16   55 1    
    36   17   19 1    
    37   19   20 1    
    38   17   56 1    
    39   18   57 1    
    40   19   32 1    
    41   20   21 am   
    42   19   58 1    
    43   21   22 2    
    44   20   59 1    
    45   21   23 1    
    46   23   24 1    
    47   24   25 1    
    48   24   31 1    
    49   25   26 1    
    50   24   60 1    
    51   31   68 1    
    52   26   27 1    
    53   25   61 1    
    54   25   62 1    
    55   27   28 1    
    56   27   31 1    
    57   28   29 1    
    58   27   63 1    
    59   29   30 1    
    60   30   66 1    
    61   30   31 1    
    62   29   64 1    
    63   29   65 1    
    64   30   67 1    
    65   32   38 1    
    66   33   34 ar   
    67   32   69 1    
    68   32   70 1    
    69   33   38 ar   
    70   34   35 ar   
    71   33   71 1    
    72   35   36 ar   
    73   34   72 1    
    74   36   37 ar   
    75   35   73 1    
    76   37   38 ar   
    77   36   74 1    
    78   37   75 1    
@<TRIPOS>SUBSTRUCTURE
     1 017101      1 GROUP   
@<TRIPOS>SET

