#    Name: 5omu_1_3DM
#    Modification time : Fri May 22 19:16:22 2020

@<TRIPOS>MOLECULE
5omu_1_3DM
   11    11     1     0     0
SMALL
NO_CHARGES


@<TRIPOS>ATOM
      1 O1         43.2870   77.8220   38.6060 O.3       1 3DM502      0.0000 
      2 C1         43.3020   79.2220   38.4430 C.ar      1 3DM502      0.0000 
      3 C2         43.8510   79.7880   37.3300 C.ar      1 3DM502      0.0000 
      4 O2         44.3790   78.9160   36.4020 O.3       1 3DM502      0.0000 
      5 C7         45.1180   79.4420   35.3390 C.3       1 3DM502      0.0000 
      6 C3         43.8740   81.1650   37.1710 C.ar      1 3DM502      0.0000 
      7 C4         43.3540   81.9690   38.1670 C.ar      1 3DM502      0.0000 
      8 C5         42.7940   81.4040   39.2990 C.ar      1 3DM502      0.0000 
      9 C6         42.7720   80.0180   39.4190 C.ar      1 3DM502      0.0000 
     10 O3         42.2500   79.3720   40.5290 O.3       1 3DM502      0.0000 
     11 C8         41.4330   80.1140   41.3900 C.3       1 3DM502      0.0000 
@<TRIPOS>BOND
     1    1    2 1    
     2    2    3 ar   
     3    2    9 ar   
     4    3    4 1    
     5    3    6 ar   
     6    4    5 1    
     7    6    7 ar   
     8    7    8 ar   
     9    8    9 ar   
    10    9   10 1    
    11   10   11 1    
@<TRIPOS>SUBSTRUCTURE
     1 3DM502      1 GROUP   
@<TRIPOS>SET

