#    Name: 6m83_1_SAH
#    Modification time : Fri May 22 19:27:14 2020

@<TRIPOS>MOLECULE
6m83_1_SAH
   26    28     1     0     0
SMALL
NO_CHARGES


@<TRIPOS>ATOM
      1 N         -17.4960  -18.1810  -16.9540 N.4       1 SAH301      0.0000 
      2 CA        -17.6830  -16.7340  -16.7200 C.3       1 SAH301      0.0000 
      3 CB        -18.9660  -16.4020  -15.9830 C.3       1 SAH301      0.0000 
      4 CG        -19.1290  -16.9840  -14.6030 C.3       1 SAH301      0.0000 
      5 SD        -20.5420  -16.2180  -13.6870 S.3       1 SAH301      0.0000 
      6 C         -16.4700  -16.1260  -16.0390 C.2       1 SAH301      0.0000 
      7 O         -15.5130  -16.8540  -15.7980 O.co2     1 SAH301      0.0000 
      8 OXT       -16.4550  -14.9100  -15.7570 O.co2     1 SAH301      0.0000 
      9 C5'       -21.7570  -17.5190  -13.8960 C.3       1 SAH301      0.0000 
     10 C4'       -22.4240  -17.5590  -15.2800 C.3       1 SAH301      0.0000 
     11 O4'       -23.2350  -18.7470  -15.3790 O.3       1 SAH301      0.0000 
     12 C3'       -23.3890  -16.3930  -15.5360 C.3       1 SAH301      0.0000 
     13 O3'       -23.0050  -15.7090  -16.7270 O.3       1 SAH301      0.0000 
     14 C2'       -24.7330  -17.0690  -15.6530 C.3       1 SAH301      0.0000 
     15 O2'       -25.6760  -16.3880  -16.4390 O.3       1 SAH301      0.0000 
     16 C1'       -24.3310  -18.4140  -16.2040 C.3       1 SAH301      0.0000 
     17 N9        -25.3140  -19.4730  -16.0140 N.pl3     1 SAH301      0.0000 
     18 C8        -25.9710  -19.8370  -14.8500 C.2       1 SAH301      0.0000 
     19 N7        -26.7720  -20.8950  -15.1000 N.2       1 SAH301      0.0000 
     20 C5        -26.6440  -21.2110  -16.4280 C.ar      1 SAH301      0.0000 
     21 C6        -27.1990  -22.2140  -17.2130 C.ar      1 SAH301      0.0000 
     22 N6        -28.0900  -23.0960  -16.7550 N.pl3     1 SAH301      0.0000 
     23 N1        -26.7960  -22.2620  -18.5160 N.ar      1 SAH301      0.0000 
     24 C2        -25.9020  -21.3520  -19.0410 C.ar      1 SAH301      0.0000 
     25 N3        -25.3360  -20.3640  -18.2840 N.ar      1 SAH301      0.0000 
     26 C4        -25.7100  -20.3370  -16.9920 C.ar      1 SAH301      0.0000 
@<TRIPOS>BOND
     1    1    2 1    
     2    2    3 1    
     3    2    6 1    
     4    3    4 1    
     5    4    5 1    
     6    5    9 1    
     7    6    7 ar   
     8    6    8 ar   
     9    9   10 1    
    10   10   11 1    
    11   10   12 1    
    12   11   16 1    
    13   12   13 1    
    14   12   14 1    
    15   14   15 1    
    16   14   16 1    
    17   16   17 1    
    18   17   18 1    
    19   17   26 1    
    20   18   19 2    
    21   19   20 1    
    22   20   21 ar   
    23   20   26 ar   
    24   21   22 1    
    25   21   23 ar   
    26   23   24 ar   
    27   24   25 ar   
    28   25   26 ar   
@<TRIPOS>SUBSTRUCTURE
     1 SAH301      1 GROUP   
@<TRIPOS>SET

