#    Name: 6cgc_1_NAP
#    Modification time : Fri May 22 19:27:01 2020

@<TRIPOS>MOLECULE
6cgc_1_NAP
   27    29     1     0     1
SMALL
NO_CHARGES


@<TRIPOS>ATOM
      1 PA          7.9060   13.0220    0.3630 P.3       1 NAP401      0.0000 
      2 O1A         8.2000   14.1940   -0.5550 O.co2     1 NAP401      0.0000 
      3 O2A         8.2830   11.6090   -0.0510 O.co2     1 NAP401      0.0000 
      4 O5B         8.6590   13.3670    1.7550 O.3       1 NAP401      0.0000 
      5 C5B         9.5880   12.4950    2.4100 C.3       1 NAP401      0.0000 
      6 C4B        10.5620   13.4310    3.1070 C.3       1 NAP401      0.0000 
      7 O4B        11.2900   12.6480    4.0480 O.3       1 NAP401      0.0000 
      8 C3B        11.5380   14.0260    2.0930 C.3       1 NAP401      0.0000 
      9 O3B        11.8260   15.4080    2.3150 O.3       1 NAP401      0.0000 
     10 C2B        12.7860   13.2100    2.3190 C.3       1 NAP401      0.0000 
     11 O2B        13.9700   13.9140    1.8690 O.3       1 NAP401      0.0000 
     12 C1B        12.6760   12.9540    3.8230 C.3       1 NAP401      0.0000 
     13 N9A        13.6100   11.9140    4.2900 N.pl3     1 NAP401      0.0000 
     14 C8A        13.7750   10.6780    3.8060 C.2       1 NAP401      0.0000 
     15 N7A        14.7440   10.0100    4.4890 N.2       1 NAP401      0.0000 
     16 C5A        15.2270   10.8330    5.4120 C.ar      1 NAP401      0.0000 
     17 C6A        16.2750   10.7830    6.4480 C.ar      1 NAP401      0.0000 
     18 N6A        17.0190    9.6880    6.6320 N.pl3     1 NAP401      0.0000 
     19 N1A        16.4340   11.8650    7.2290 N.ar      1 NAP401      0.0000 
     20 C2A        15.7040   12.9640    7.0500 C.ar      1 NAP401      0.0000 
     21 N3A        14.7460   13.0840    6.1200 N.ar      1 NAP401      0.0000 
     22 C4A        14.4650   12.0800    5.2850 C.ar      1 NAP401      0.0000 
     23 O3          6.3340   13.1290    0.7650 O.3       1 NAP401      0.0000 
     24 P2B        14.8580   13.1670    0.7140 P.3       1 NAP401      0.0000 
     25 O1X        13.9390   12.8960   -0.4830 O.co2     1 NAP401      0.0000 
     26 O2X        16.0270   14.1310    0.4610 O.co2     1 NAP401      0.0000 
     27 O3X        15.3330   11.8640    1.3440 O.co2     1 NAP401      0.0000 
@<TRIPOS>BOND
     1    1    2 ar   
     2    1    3 ar   
     3    1    4 1    
     4    1   23 1    
     5    4    5 1    
     6    5    6 1    
     7    6    7 1    
     8    6    8 1    
     9    7   12 1    
    10    8    9 1    
    11    8   10 1    
    12   10   11 1    
    13   10   12 1    
    14   11   24 1    
    15   12   13 1    
    16   13   14 1    
    17   13   22 1    
    18   14   15 2    
    19   15   16 1    
    20   16   17 ar   
    21   16   22 ar   
    22   17   18 1    
    23   17   19 ar   
    24   19   20 ar   
    25   20   21 ar   
    26   21   22 ar   
    27   24   25 ar   
    28   24   26 ar   
    29   24   27 ar   
@<TRIPOS>SUBSTRUCTURE
     1 NAP401      1 GROUP   
@<TRIPOS>SET
ATOM$ORANGE STATIC     ATOMS   COLORGROUP SYSTEM 
20 5 5 6 6 8 8 10 10 12 12 14 14 16 16 17 17 20 \
20 22 22 

