#    Name: 6cgc_1_NAP_CAVITY_N1_4
#    Modification time : Fri May 22 19:27:02 2020

@<TRIPOS>MOLECULE
6cgc_1_NAP_CAVITY_N1_4
   37     0     4     0     0
SMALL
NO_CHARGES


@<TRIPOS>ATOM
      1 OG          5.1100   11.3700   -1.4900 O.3       1 SER1        0.0000 
      2 OG          7.5500   14.1100   -1.5100 O.3       1 SER1        0.0000 
      3 OG          7.2900   13.5400   -0.1500 O.3       1 SER1        0.0000 
      4 OG          9.0900   14.4000    0.5700 O.3       1 SER1        0.0000 
      5 OG          8.8200   13.8200    1.9200 O.3       1 SER1        0.0000 
      6 N           7.4400    9.3100    1.4000 N.am      2 ALA2        0.0000 
      7 N           7.8100   10.6200    2.0300 N.am      2 ALA2        0.0000 
      8 N           7.5500   10.0400    3.3800 N.am      2 ALA2        0.0000 
      9 N           6.4900   11.8000    3.9300 N.am      2 ALA2        0.0000 
     10 N           8.1900   11.9300    2.6500 N.am      2 ALA2        0.0000 
     11 N           7.9200   11.3500    4.0100 N.am      2 ALA2        0.0000 
     12 O           7.6600   10.7800    5.3700 O.2       2 ALA2        0.0000 
     13 O           5.7000   14.1400    3.1100 O.2       2 ALA2        0.0000 
     14 N           5.4400   13.5600    4.4700 N.am      2 ALA2        0.0000 
     15 N           6.8700   13.1100    4.5600 N.am      2 ALA2        0.0000 
     16 N           8.5600   13.2400    3.2800 N.am      2 ALA2        0.0000 
     17 CA          3.6800   11.8200   -1.5800 C.3       3 GLY6        0.0000 
     18 CA          3.7900   12.5500    0.4100 C.3       3 GLY6        0.0000 
     19 CA          3.5300   11.9700    1.7700 C.3       3 GLY6        0.0000 
     20 CA          5.4800   12.6800   -0.8700 C.3       3 GLY6        0.0000 
     21 CA          4.1600   13.8600    1.0400 C.3       3 GLY6        0.0000 
     22 CA          3.9000   13.2800    2.3900 C.3       3 GLY6        0.0000 
     23 CA          5.8600   13.9800   -0.2400 C.3       3 GLY6        0.0000 
     24 CA          5.0700   12.2500    3.8400 C.3       3 GLY6        0.0000 
     25 DU          3.4200   11.2400   -0.2200 H         4 CUB7        0.0000 
     26 DU          4.8500   10.7900   -0.1400 H         4 CUB7        0.0000 
     27 DU          6.0100    9.7600    1.3100 H         4 CUB7        0.0000 
     28 DU          5.2200   12.1000    0.4900 H         4 CUB7        0.0000 
     29 DU          4.9600   11.5200    1.8500 H         4 CUB7        0.0000 
     30 DU          4.6900   10.9400    3.2100 H         4 CUB7        0.0000 
     31 DU          6.3800   11.0700    1.9400 H         4 CUB7        0.0000 
     32 DU          6.1200   10.4900    3.3000 H         4 CUB7        0.0000 
     33 DU          5.5900   13.4100    1.1200 H         4 CUB7        0.0000 
     34 DU          5.3300   12.8300    2.4800 H         4 CUB7        0.0000 
     35 DU          7.0200   12.9600    1.2100 H         4 CUB7        0.0000 
     36 DU          6.7600   12.3800    2.5700 H         4 CUB7        0.0000 
     37 DU          8.4500   12.5100    1.3000 H         4 CUB7        0.0000 
@<TRIPOS>BOND
@<TRIPOS>SUBSTRUCTURE
     1 SER1        1 GROUP   
     2 ALA2        6 GROUP   
     3 GLY6       17 GROUP   
     4 CUB7       25 GROUP   
@<TRIPOS>SET

