#    Name: 6cgc_2_NAP_CAVITY_N1_4
#    Modification time : Fri May 22 19:27:07 2020

@<TRIPOS>MOLECULE
6cgc_2_NAP_CAVITY_N1_4
   55     0     4     0     0
SMALL
NO_CHARGES


@<TRIPOS>ATOM
      1 OG         10.3300  -16.8800   25.6000 O.3       1 SER1        0.0000 
      2 OG          5.8900  -11.3100   23.7900 O.3       1 SER1        0.0000 
      3 OG          6.6400  -12.7600   29.9400 O.3       1 SER1        0.0000 
      4 O           6.9900  -18.0300   22.8100 O.2       2 ALA2        0.0000 
      5 N           6.2000  -15.6900   21.9900 N.am      2 ALA2        0.0000 
      6 O           7.6300  -16.1400   22.0800 O.2       2 ALA2        0.0000 
      7 O           7.3700  -16.7200   23.4400 O.2       2 ALA2        0.0000 
      8 O           7.1000  -17.2900   24.7900 O.2       2 ALA2        0.0000 
      9 O           9.0600  -16.5900   22.1600 O.2       2 ALA2        0.0000 
     10 N           6.8400  -13.8000   21.2600 N.am      2 ALA2        0.0000 
     11 N           6.5800  -14.3800   22.6200 N.am      2 ALA2        0.0000 
     12 N           8.2700  -14.2500   21.3500 N.am      2 ALA2        0.0000 
     13 N           8.0000  -14.8300   22.7100 N.am      2 ALA2        0.0000 
     14 O           9.7000  -14.7000   21.4300 O.2       2 ALA2        0.0000 
     15 N           9.4300  -15.2800   22.7900 N.am      2 ALA2        0.0000 
     16 N           8.3800  -13.5200   23.3300 N.am      2 ALA2        0.0000 
     17 N           9.8100  -13.9700   23.4200 N.am      2 ALA2        0.0000 
     18 N           5.1000  -13.0400   27.8700 N.am      2 ALA2        0.0000 
     19 N           8.7500  -12.2100   23.9600 N.am      2 ALA2        0.0000 
     20 O           7.7000  -10.4500   24.5100 O.2       2 ALA2        0.0000 
     21 O           9.1300  -10.9000   24.5900 O.2       2 ALA2        0.0000 
     22 CA          5.9400  -16.2700   23.3500 C.3       3 GLY6        0.0000 
     23 CA          5.6700  -16.8400   24.7100 C.3       3 GLY6        0.0000 
     24 CA          8.5300  -17.7400   24.8800 C.3       3 GLY6        0.0000 
     25 CA          5.1500  -13.9300   22.5300 C.3       3 GLY6        0.0000 
     26 CA          4.8800  -14.5100   23.8900 C.3       3 GLY6        0.0000 
     27 CA          4.6200  -15.0900   25.2500 C.3       3 GLY6        0.0000 
     28 CA          5.7800  -16.1100   26.7000 C.3       3 GLY6        0.0000 
     29 CA          7.2100  -16.5600   26.7800 C.3       3 GLY6        0.0000 
     30 CA          8.6400  -17.0100   26.8700 C.3       3 GLY6        0.0000 
     31 CA          4.9900  -13.7800   25.8800 C.3       3 GLY6        0.0000 
     32 CA          4.7300  -14.3500   27.2400 C.3       3 GLY6        0.0000 
     33 CA          7.2100  -12.4900   21.8900 C.3       3 GLY6        0.0000 
     34 CA          6.1600  -14.8000   27.3200 C.3       3 GLY6        0.0000 
     35 CA          7.5900  -11.1800   22.5200 C.3       3 GLY6        0.0000 
     36 CA          6.5300  -13.4900   27.9500 C.3       3 GLY6        0.0000 
     37 DU          8.7900  -17.1700   23.5200 H         4 CUB7        0.0000 
     38 DU          6.3100  -14.9600   23.9800 H         4 CUB7        0.0000 
     39 DU          6.0500  -15.5400   25.3400 H         4 CUB7        0.0000 
     40 DU          7.4800  -15.9800   25.4200 H         4 CUB7        0.0000 
     41 DU          9.1700  -15.8600   24.1500 H         4 CUB7        0.0000 
     42 DU          8.9000  -16.4300   25.5100 H         4 CUB7        0.0000 
     43 DU          5.5200  -12.6200   23.1600 H         4 CUB7        0.0000 
     44 DU          5.2600  -13.2000   24.5200 H         4 CUB7        0.0000 
     45 DU          6.9500  -13.0700   23.2500 H         4 CUB7        0.0000 
     46 DU          6.4200  -14.2300   25.9700 H         4 CUB7        0.0000 
     47 DU          8.1100  -14.1000   24.6900 H         4 CUB7        0.0000 
     48 DU          7.8500  -14.6800   26.0500 H         4 CUB7        0.0000 
     49 DU          9.5400  -14.5500   24.7800 H         4 CUB7        0.0000 
     50 DU          5.6300  -11.8900   25.1500 H         4 CUB7        0.0000 
     51 DU          5.3700  -12.4700   26.5100 H         4 CUB7        0.0000 
     52 DU          7.3200  -11.7600   23.8800 H         4 CUB7        0.0000 
     53 DU          6.7900  -12.9200   26.5900 H         4 CUB7        0.0000 
     54 DU          8.4900  -12.7900   25.3200 H         4 CUB7        0.0000 
     55 DU          7.4300  -11.0300   25.8600 H         4 CUB7        0.0000 
@<TRIPOS>BOND
@<TRIPOS>SUBSTRUCTURE
     1 SER1        1 GROUP   
     2 ALA2        4 GROUP   
     3 GLY6       22 GROUP   
     4 CUB7       37 GROUP   
@<TRIPOS>SET

