#    Name: 6cgc_1_NAP_CAVITY_N1_6
#    Modification time : Fri May 22 19:27:02 2020

@<TRIPOS>MOLECULE
6cgc_1_NAP_CAVITY_N1_6
   70     0     5     0     0
SMALL
NO_CHARGES


@<TRIPOS>ATOM
      1 OG          2.5200    8.7700    1.8700 O.3       1 SER1        0.0000 
      2 OG          3.9400    8.3200    1.9500 O.3       1 SER1        0.0000 
      3 OG          2.8900   10.0800    2.5000 O.3       1 SER1        0.0000 
      4 OG          5.1100   11.3700   -1.4900 O.3       1 SER1        0.0000 
      5 OG          4.3200    9.6300    2.5800 O.3       1 SER1        0.0000 
      6 OG          4.0500    9.0600    3.9400 O.3       1 SER1        0.0000 
      7 OG          7.5500   14.1100   -1.5100 O.3       1 SER1        0.0000 
      8 OG          7.2900   13.5400   -0.1500 O.3       1 SER1        0.0000 
      9 OG          9.0900   14.4000    0.5700 O.3       1 SER1        0.0000 
     10 OG          8.8200   13.8200    1.9200 O.3       1 SER1        0.0000 
     11 N           3.3100   10.5100   -2.2100 N.am      2 ALA2        0.0000 
     12 N           3.0400    9.9300   -0.8500 N.am      2 ALA2        0.0000 
     13 O           6.8000    7.4300    2.1300 O.2       2 ALA2        0.0000 
     14 N           7.4400    9.3100    1.4000 N.am      2 ALA2        0.0000 
     15 N           7.1700    8.7400    2.7600 N.am      2 ALA2        0.0000 
     16 N           7.8100   10.6200    2.0300 N.am      2 ALA2        0.0000 
     17 N           7.5500   10.0400    3.3800 N.am      2 ALA2        0.0000 
     18 N           6.4900   11.8000    3.9300 N.am      2 ALA2        0.0000 
     19 N           6.2300   11.2300    5.2900 N.am      2 ALA2        0.0000 
     20 N           5.9700   10.6500    6.6400 N.am      2 ALA2        0.0000 
     21 N           8.1900   11.9300    2.6500 N.am      2 ALA2        0.0000 
     22 N           7.9200   11.3500    4.0100 N.am      2 ALA2        0.0000 
     23 O           7.6600   10.7800    5.3700 O.2       2 ALA2        0.0000 
     24 O           5.7000   14.1400    3.1100 O.2       2 ALA2        0.0000 
     25 N           5.4400   13.5600    4.4700 N.am      2 ALA2        0.0000 
     26 N           6.8700   13.1100    4.5600 N.am      2 ALA2        0.0000 
     27 N           8.5600   13.2400    3.2800 N.am      2 ALA2        0.0000 
     28 CZ          5.3700    7.8700    2.0400 C.ar      3 PHE5        0.0000 
     29 CZ          5.4800    8.6100    4.0300 C.ar      3 PHE5        0.0000 
     30 CA          1.9900   11.6900   -0.3100 C.3       4 GLY6        0.0000 
     31 CA          1.7200   11.1100    1.0500 C.3       4 GLY6        0.0000 
     32 CA          1.4600   10.5300    2.4100 C.3       4 GLY6        0.0000 
     33 CA          3.6800   11.8200   -1.5800 C.3       4 GLY6        0.0000 
     34 CA          6.9100    8.1600    4.1100 C.3       4 GLY6        0.0000 
     35 CA          2.3600   13.0000    0.3200 C.3       4 GLY6        0.0000 
     36 CA          2.1000   12.4200    1.6800 C.3       4 GLY6        0.0000 
     37 CA          1.8300   11.8400    3.0400 C.3       4 GLY6        0.0000 
     38 CA          3.7900   12.5500    0.4100 C.3       4 GLY6        0.0000 
     39 CA          3.5300   11.9700    1.7700 C.3       4 GLY6        0.0000 
     40 CA          3.2600   11.3900    3.1200 C.3       4 GLY6        0.0000 
     41 CA          3.0000   10.8200    4.4800 C.3       4 GLY6        0.0000 
     42 CA          5.4800   12.6800   -0.8700 C.3       4 GLY6        0.0000 
     43 CA          4.4300   10.3700    4.5700 C.3       4 GLY6        0.0000 
     44 CA          7.2800    9.4700    4.7400 C.3       4 GLY6        0.0000 
     45 CA          7.0200    8.8900    6.1000 C.3       4 GLY6        0.0000 
     46 CA          4.1600   13.8600    1.0400 C.3       4 GLY6        0.0000 
     47 CA          3.9000   13.2800    2.3900 C.3       4 GLY6        0.0000 
     48 CA          3.6400   12.7000    3.7500 C.3       4 GLY6        0.0000 
     49 CA          5.8600   13.9800   -0.2400 C.3       4 GLY6        0.0000 
     50 CA          5.0700   12.2500    3.8400 C.3       4 GLY6        0.0000 
     51 CA          4.8000   11.6800    5.2000 C.3       4 GLY6        0.0000 
     52 DU          2.7800    9.3500    0.5100 H         5 CUB7        0.0000 
     53 DU          4.2100    8.9000    0.5900 H         5 CUB7        0.0000 
     54 DU          5.6400    8.4500    0.6800 H         5 CUB7        0.0000 
     55 DU          3.4200   11.2400   -0.2200 H         5 CUB7        0.0000 
     56 DU          3.1500   10.6600    1.1400 H         5 CUB7        0.0000 
     57 DU          4.8500   10.7900   -0.1400 H         5 CUB7        0.0000 
     58 DU          6.0100    9.7600    1.3100 H         5 CUB7        0.0000 
     59 DU          5.7500    9.1800    2.6700 H         5 CUB7        0.0000 
     60 DU          5.2200   12.1000    0.4900 H         5 CUB7        0.0000 
     61 DU          4.9600   11.5200    1.8500 H         5 CUB7        0.0000 
     62 DU          4.6900   10.9400    3.2100 H         5 CUB7        0.0000 
     63 DU          6.3800   11.0700    1.9400 H         5 CUB7        0.0000 
     64 DU          6.1200   10.4900    3.3000 H         5 CUB7        0.0000 
     65 DU          5.8600    9.9200    4.6600 H         5 CUB7        0.0000 
     66 DU          5.5900   13.4100    1.1200 H         5 CUB7        0.0000 
     67 DU          5.3300   12.8300    2.4800 H         5 CUB7        0.0000 
     68 DU          7.0200   12.9600    1.2100 H         5 CUB7        0.0000 
     69 DU          6.7600   12.3800    2.5700 H         5 CUB7        0.0000 
     70 DU          8.4500   12.5100    1.3000 H         5 CUB7        0.0000 
@<TRIPOS>BOND
@<TRIPOS>SUBSTRUCTURE
     1 SER1        1 GROUP   
     2 ALA2       11 GROUP   
     3 PHE5       28 GROUP   
     4 GLY6       30 GROUP   
     5 CUB7       52 GROUP   
@<TRIPOS>SET

