#    Name: 6cgc_2_NAP
#    Modification time : Fri May 22 19:27:05 2020

@<TRIPOS>MOLECULE
6cgc_2_NAP
   31    33     1     0     1
SMALL
NO_CHARGES


@<TRIPOS>ATOM
      1 PA         11.2430  -14.2460   25.1270 P.3       1 NAP401      0.0000 
      2 O1A        10.8210  -12.8080   25.3510 O.co2     1 NAP401      0.0000 
      3 O2A        12.6350  -14.6370   25.6070 O.co2     1 NAP401      0.0000 
      4 O5B        11.1910  -14.5040   23.5180 O.3       1 NAP401      0.0000 
      5 C5B        10.2290  -15.2980   22.7940 C.3       1 NAP401      0.0000 
      6 C4B        10.9150  -16.2820   21.8670 C.3       1 NAP401      0.0000 
      7 O4B        11.4960  -15.4840   20.8350 O.3       1 NAP401      0.0000 
      8 C3B        12.0160  -17.0610   22.5830 C.3       1 NAP401      0.0000 
      9 O3B        12.0230  -18.4810   22.3230 O.3       1 NAP401      0.0000 
     10 C2B        13.2490  -16.3570   22.0590 C.3       1 NAP401      0.0000 
     11 O2B        14.4220  -17.1470   22.1240 O.3       1 NAP401      0.0000 
     12 C1B        12.8140  -15.9890   20.6350 C.3       1 NAP401      0.0000 
     13 N9A        13.8170  -15.1160   19.9680 N.pl3     1 NAP401      0.0000 
     14 C8A        14.3090  -13.9690   20.4330 C.2       1 NAP401      0.0000 
     15 N7A        15.2350  -13.4620   19.5850 N.2       1 NAP401      0.0000 
     16 C5A        15.3740  -14.3110   18.5660 C.ar      1 NAP401      0.0000 
     17 C6A        16.2180  -14.3660   17.3470 C.ar      1 NAP401      0.0000 
     18 N6A        17.0750  -13.3610   17.1020 N.pl3     1 NAP401      0.0000 
     19 N1A        16.0540  -15.4190   16.4960 N.ar      1 NAP401      0.0000 
     20 C2A        15.1390  -16.4010   16.7800 C.ar      1 NAP401      0.0000 
     21 N3A        14.3460  -16.3970   17.8910 N.ar      1 NAP401      0.0000 
     22 C4A        14.4190  -15.3980   18.8120 C.ar      1 NAP401      0.0000 
     23 O3         10.1350  -15.2460   25.8050 O.3       1 NAP401      0.0000 
     24 PN          8.5040  -15.1290   25.7060 P.3       1 NAP401      0.0000 
     25 O1N         8.1490  -13.9950   24.7670 O.3       1 NAP401      0.0000 
     26 O2N         7.9120  -16.4930   25.4220 O.co2     1 NAP401      0.0000 
     27 O5D         8.0210  -14.7230   27.1920 O.co2     1 NAP401      0.0000 
     28 P2B        15.5870  -17.0230   23.2660 P.3       1 NAP401      0.0000 
     29 O1X        16.5280  -15.8940   22.8770 O.co2     1 NAP401      0.0000 
     30 O2X        14.9590  -16.8470   24.6460 O.co2     1 NAP401      0.0000 
     31 O3X        16.1680  -18.3980   23.0400 O.co2     1 NAP401      0.0000 
@<TRIPOS>BOND
     1    1    2 ar   
     2    1    3 ar   
     3    1    4 1    
     4    1   23 1    
     5    4    5 1    
     6    5    6 1    
     7    6    7 1    
     8    6    8 1    
     9    7   12 1    
    10    8    9 1    
    11    8   10 1    
    12   10   11 1    
    13   10   12 1    
    14   11   28 1    
    15   12   13 1    
    16   13   14 1    
    17   13   22 1    
    18   14   15 2    
    19   15   16 1    
    20   16   17 ar   
    21   16   22 ar   
    22   17   18 1    
    23   17   19 ar   
    24   19   20 ar   
    25   20   21 ar   
    26   21   22 ar   
    27   23   24 1    
    28   24   25 1    
    29   24   26 ar   
    30   24   27 ar   
    31   28   29 ar   
    32   28   30 ar   
    33   28   31 ar   
@<TRIPOS>SUBSTRUCTURE
     1 NAP401      1 GROUP   
@<TRIPOS>SET
ATOM$ORANGE STATIC     ATOMS   COLORGROUP SYSTEM 
20 5 5 6 6 8 8 10 10 12 12 14 14 16 16 17 17 20 \
20 22 22 

