#    Name: 6cgc_2_NAP_CAVITY_N1_12
#    Modification time : Fri May 22 19:27:07 2020

@<TRIPOS>MOLECULE
6cgc_2_NAP_CAVITY_N1_12
   80     0     5     0     0
SMALL
NO_CHARGES


@<TRIPOS>ATOM
      1 OG         10.3300  -16.8800   25.6000 O.3       1 SER1        0.0000 
      2 OG          4.0900  -12.1700   23.0700 O.3       1 SER1        0.0000 
      3 OG          2.7700  -10.9900   24.9800 O.3       1 SER1        0.0000 
      4 OG          4.4700  -10.8600   23.7000 O.3       1 SER1        0.0000 
      5 OG          4.2000  -11.4400   25.0600 O.3       1 SER1        0.0000 
      6 OG          6.1600  -10.7300   22.4300 O.3       1 SER1        0.0000 
      7 OG          5.8900  -11.3100   23.7900 O.3       1 SER1        0.0000 
      8 OG          6.2700  -10.0000   24.4200 O.3       1 SER1        0.0000 
      9 OG          6.0000  -10.5800   25.7800 O.3       1 SER1        0.0000 
     10 OG          6.6400  -12.7600   29.9400 O.3       1 SER1        0.0000 
     11 O           6.9900  -18.0300   22.8100 O.2       2 ALA2        0.0000 
     12 N           6.2000  -15.6900   21.9900 N.am      2 ALA2        0.0000 
     13 O           7.6300  -16.1400   22.0800 O.2       2 ALA2        0.0000 
     14 O           7.3700  -16.7200   23.4400 O.2       2 ALA2        0.0000 
     15 O           7.1000  -17.2900   24.7900 O.2       2 ALA2        0.0000 
     16 O           9.0600  -16.5900   22.1600 O.2       2 ALA2        0.0000 
     17 N           6.8400  -13.8000   21.2600 N.am      2 ALA2        0.0000 
     18 N           6.5800  -14.3800   22.6200 N.am      2 ALA2        0.0000 
     19 N           8.2700  -14.2500   21.3500 N.am      2 ALA2        0.0000 
     20 N           8.0000  -14.8300   22.7100 N.am      2 ALA2        0.0000 
     21 O           9.7000  -14.7000   21.4300 O.2       2 ALA2        0.0000 
     22 N           9.4300  -15.2800   22.7900 N.am      2 ALA2        0.0000 
     23 N           2.6600  -11.7200   22.9900 N.am      2 ALA2        0.0000 
     24 N           8.3800  -13.5200   23.3300 N.am      2 ALA2        0.0000 
     25 N           9.8100  -13.9700   23.4200 N.am      2 ALA2        0.0000 
     26 O           3.6700  -12.6000   27.7800 O.2       2 ALA2        0.0000 
     27 N           5.1000  -13.0400   27.8700 N.am      2 ALA2        0.0000 
     28 N           8.7500  -12.2100   23.9600 N.am      2 ALA2        0.0000 
     29 N           5.4800  -11.7400   28.5000 N.am      2 ALA2        0.0000 
     30 N           7.9600   -9.8700   23.1500 N.am      2 ALA2        0.0000 
     31 O           7.7000  -10.4500   24.5100 O.2       2 ALA2        0.0000 
     32 O           9.1300  -10.9000   24.5900 O.2       2 ALA2        0.0000 
     33 OD1         4.3600  -11.6000   21.7200 O.co2     3 ASP3        0.0000 
     34 OD1         5.7800  -12.0400   21.8000 O.co2     3 ASP3        0.0000 
     35 CA          5.9400  -16.2700   23.3500 C.3       4 GLY6        0.0000 
     36 CA          5.6700  -16.8400   24.7100 C.3       4 GLY6        0.0000 
     37 CA          8.5300  -17.7400   24.8800 C.3       4 GLY6        0.0000 
     38 CA          2.2900  -13.0300   22.3600 C.3       4 GLY6        0.0000 
     39 CA          2.0300  -13.6100   23.7200 C.3       4 GLY6        0.0000 
     40 CA          3.7200  -13.4800   22.4500 C.3       4 GLY6        0.0000 
     41 CA          3.4500  -14.0600   23.8000 C.3       4 GLY6        0.0000 
     42 CA          3.1900  -14.6400   25.1600 C.3       4 GLY6        0.0000 
     43 CA          5.4100  -13.3500   21.1700 C.3       4 GLY6        0.0000 
     44 CA          5.1500  -13.9300   22.5300 C.3       4 GLY6        0.0000 
     45 CA          4.8800  -14.5100   23.8900 C.3       4 GLY6        0.0000 
     46 CA          4.6200  -15.0900   25.2500 C.3       4 GLY6        0.0000 
     47 CA          5.7800  -16.1100   26.7000 C.3       4 GLY6        0.0000 
     48 CA          7.2100  -16.5600   26.7800 C.3       4 GLY6        0.0000 
     49 CA          8.6400  -17.0100   26.8700 C.3       4 GLY6        0.0000 
     50 CA          2.4000  -12.3000   24.3500 C.3       4 GLY6        0.0000 
     51 CA          2.1400  -12.8800   25.7100 C.3       4 GLY6        0.0000 
     52 CA          3.5600  -13.3300   25.7900 C.3       4 GLY6        0.0000 
     53 CA          4.9900  -13.7800   25.8800 C.3       4 GLY6        0.0000 
     54 CA          4.7300  -14.3500   27.2400 C.3       4 GLY6        0.0000 
     55 CA          7.2100  -12.4900   21.8900 C.3       4 GLY6        0.0000 
     56 CA          6.1600  -14.8000   27.3200 C.3       4 GLY6        0.0000 
     57 CA          3.9400  -12.0200   26.4200 C.3       4 GLY6        0.0000 
     58 CA          7.5900  -11.1800   22.5200 C.3       4 GLY6        0.0000 
     59 CA          6.5300  -13.4900   27.9500 C.3       4 GLY6        0.0000 
     60 CA          8.0700   -9.1400   25.1300 C.3       4 GLY6        0.0000 
     61 DU          8.7900  -17.1700   23.5200 H         5 CUB7        0.0000 
     62 DU          6.3100  -14.9600   23.9800 H         5 CUB7        0.0000 
     63 DU          6.0500  -15.5400   25.3400 H         5 CUB7        0.0000 
     64 DU          7.4800  -15.9800   25.4200 H         5 CUB7        0.0000 
     65 DU          9.1700  -15.8600   24.1500 H         5 CUB7        0.0000 
     66 DU          8.9000  -16.4300   25.5100 H         5 CUB7        0.0000 
     67 DU          3.8300  -12.7500   24.4300 H         5 CUB7        0.0000 
     68 DU          5.5200  -12.6200   23.1600 H         5 CUB7        0.0000 
     69 DU          5.2600  -13.2000   24.5200 H         5 CUB7        0.0000 
     70 DU          6.9500  -13.0700   23.2500 H         5 CUB7        0.0000 
     71 DU          6.4200  -14.2300   25.9700 H         5 CUB7        0.0000 
     72 DU          8.1100  -14.1000   24.6900 H         5 CUB7        0.0000 
     73 DU          7.8500  -14.6800   26.0500 H         5 CUB7        0.0000 
     74 DU          9.5400  -14.5500   24.7800 H         5 CUB7        0.0000 
     75 DU          5.6300  -11.8900   25.1500 H         5 CUB7        0.0000 
     76 DU          5.3700  -12.4700   26.5100 H         5 CUB7        0.0000 
     77 DU          7.3200  -11.7600   23.8800 H         5 CUB7        0.0000 
     78 DU          6.7900  -12.9200   26.5900 H         5 CUB7        0.0000 
     79 DU          8.4900  -12.7900   25.3200 H         5 CUB7        0.0000 
     80 DU          7.4300  -11.0300   25.8600 H         5 CUB7        0.0000 
@<TRIPOS>BOND
@<TRIPOS>SUBSTRUCTURE
     1 SER1        1 GROUP   
     2 ALA2       11 GROUP   
     3 ASP3       33 GROUP   
     4 GLY6       35 GROUP   
     5 CUB7       61 GROUP   
@<TRIPOS>SET

