#    Name: 6nnc_4_NDP
#    Modification time : Fri May 22 19:31:26 2020

@<TRIPOS>MOLECULE
6nnc_4_NDP
   48    52     1     0     1
SMALL
NO_CHARGES


@<TRIPOS>ATOM
      1 PA         45.9850   -0.3740   10.6380 P.3       1 NDP201      0.0000 
      2 O1A        45.0280   -1.3180   10.0050 O.co2     1 NDP201      0.0000 
      3 O2A        45.5040    0.5450   11.7170 O.co2     1 NDP201      0.0000 
      4 O5B        46.6070    0.4600    9.3440 O.3       1 NDP201      0.0000 
      5 C5B        47.6750    1.2750    9.7910 C.3       1 NDP201      0.0000 
      6 C4B        48.0050    2.1560    8.5450 C.3       1 NDP201      0.0000 
      7 O4B        46.9650    3.0690    8.3430 O.3       1 NDP201      0.0000 
      8 C3B        49.3320    2.9560    8.5990 C.3       1 NDP201      0.0000 
      9 O3B        50.4020    2.1320    8.2380 O.3       1 NDP201      0.0000 
     10 C2B        49.0320    3.9540    7.4380 C.3       1 NDP201      0.0000 
     11 O2B        48.9890    3.3800    6.2360 O.3       1 NDP201      0.0000 
     12 C1B        47.5410    4.2730    7.7750 C.3       1 NDP201      0.0000 
     13 N9A        47.3840    5.3160    8.7470 N.pl3     1 NDP201      0.0000 
     14 C8A        47.4900    5.2290   10.1340 C.2       1 NDP201      0.0000 
     15 N7A        47.2800    6.4110   10.7540 N.2       1 NDP201      0.0000 
     16 C5A        47.0240    7.3040    9.6900 C.ar      1 NDP201      0.0000 
     17 C6A        46.7340    8.6780    9.6610 C.ar      1 NDP201      0.0000 
     18 N6A        46.6520    9.3970   10.8300 N.pl3     1 NDP201      0.0000 
     19 N1A        46.5200    9.3340    8.4810 N.ar      1 NDP201      0.0000 
     20 C2A        46.6190    8.5600    7.3510 C.ar      1 NDP201      0.0000 
     21 N3A        46.8980    7.2490    7.2080 N.ar      1 NDP201      0.0000 
     22 C4A        47.0880    6.6330    8.4350 C.ar      1 NDP201      0.0000 
     23 O3         47.2880   -1.3070   11.0660 O.3       1 NDP201      0.0000 
     24 PN         47.3120   -2.1110   12.4720 P.3       1 NDP201      0.0000 
     25 O1N        48.5280   -2.9400   12.3480 O.co2     1 NDP201      0.0000 
     26 O2N        47.0750   -1.3150   13.7390 O.co2     1 NDP201      0.0000 
     27 O5D        46.0290   -3.2550   12.5100 O.3       1 NDP201      0.0000 
     28 C5D        46.2800   -4.2680   11.6070 C.3       1 NDP201      0.0000 
     29 C4D        46.0570   -5.5840   12.3560 C.3       1 NDP201      0.0000 
     30 O4D        44.7680   -5.5440   12.9610 O.3       1 NDP201      0.0000 
     31 C3D        46.0410   -6.8210   11.3960 C.3       1 NDP201      0.0000 
     32 O3D        46.5600   -7.9080   12.1150 O.3       1 NDP201      0.0000 
     33 C2D        44.5500   -7.0520   11.2020 C.3       1 NDP201      0.0000 
     34 O2D        44.2670   -8.3980   10.9590 O.3       1 NDP201      0.0000 
     35 C1D        44.0490   -6.7020   12.6190 C.3       1 NDP201      0.0000 
     36 N1N        42.6060   -6.3270   12.6490 N.pl3     1 NDP201      0.0000 
     37 C2N        41.7520   -6.9760   13.5430 C.2       1 NDP201      0.0000 
     38 C3N        40.4810   -6.5200   13.7260 C.2       1 NDP201      0.0000 
     39 C7N        39.6080   -7.1530   14.7050 C.2       1 NDP201      0.0000 
     40 O7N        38.4820   -6.7090   14.9540 O.2       1 NDP201      0.0000 
     41 N7N        40.0630   -8.2510   15.4080 N.am      1 NDP201      0.0000 
     42 C4N        39.9370   -5.3550   12.9880 C.3       1 NDP201      0.0000 
     43 C5N        40.8810   -4.7770   12.0140 C.2       1 NDP201      0.0000 
     44 C6N        42.1320   -5.2510   11.8690 C.2       1 NDP201      0.0000 
     45 P2B        50.4520    3.6320    5.2060 P.3       1 NDP201      0.0000 
     46 O1X        49.9030    3.0280    3.9540 O.co2     1 NDP201      0.0000 
     47 O2X        50.6710    5.1490    5.2040 O.co2     1 NDP201      0.0000 
     48 O3X        51.4070    2.7950    6.0140 O.co2     1 NDP201      0.0000 
@<TRIPOS>BOND
     1    1    2 ar   
     2    1    3 ar   
     3    1    4 1    
     4    1   23 1    
     5    4    5 1    
     6    5    6 1    
     7    6    7 1    
     8    6    8 1    
     9    7   12 1    
    10    8    9 1    
    11    8   10 1    
    12   10   11 1    
    13   10   12 1    
    14   11   45 1    
    15   12   13 1    
    16   13   14 1    
    17   13   22 1    
    18   14   15 2    
    19   15   16 1    
    20   16   17 ar   
    21   16   22 ar   
    22   17   18 1    
    23   17   19 ar   
    24   19   20 ar   
    25   20   21 ar   
    26   21   22 ar   
    27   23   24 1    
    28   24   25 ar   
    29   24   26 ar   
    30   24   27 1    
    31   27   28 1    
    32   28   29 1    
    33   29   30 1    
    34   29   31 1    
    35   30   35 1    
    36   31   32 1    
    37   31   33 1    
    38   33   34 1    
    39   33   35 1    
    40   35   36 1    
    41   36   37 1    
    42   36   44 1    
    43   37   38 2    
    44   38   39 1    
    45   38   42 1    
    46   39   40 2    
    47   39   41 am   
    48   42   43 1    
    49   43   44 2    
    50   45   46 ar   
    51   45   47 ar   
    52   45   48 ar   
@<TRIPOS>SUBSTRUCTURE
     1 NDP201      1 GROUP   
@<TRIPOS>SET
ATOM$ORANGE STATIC     ATOMS   COLORGROUP SYSTEM 
42 5 5 6 6 8 8 10 10 12 12 14 14 16 16 17 17 20 \
20 22 22 28 28 29 29 31 31 33 33 35 35 37 37 38 38 39 \
39 42 42 43 43 44 44 

