#    Name: 6gkd_2_ATP
#    Modification time : Fri May 22 19:23:46 2020

@<TRIPOS>MOLECULE
6gkd_2_ATP
   31    33     1     0     1
SMALL
NO_CHARGES


@<TRIPOS>ATOM
      1 PG        -50.4030   13.1200   99.6490 P.3       1 ATP701      0.0000 
      2 O1G       -51.0340   12.4150   98.4300 O.co2     1 ATP701      0.0000 
      3 O2G       -49.2170   12.4240  100.1480 O.co2     1 ATP701      0.0000 
      4 O3G       -50.2160   14.5850   99.3990 O.co2     1 ATP701      0.0000 
      5 PB        -51.6920   11.4810  101.3140 P.3       1 ATP701      0.0000 
      6 O1B       -51.7140   10.5140  100.1650 O.co2     1 ATP701      0.0000 
      7 O2B       -52.8720   11.4790  102.1340 O.co2     1 ATP701      0.0000 
      8 O3B       -51.4940   12.9540  100.7820 O.3       1 ATP701      0.0000 
      9 PA        -49.4290    9.9180  102.0350 P.3       1 ATP701      0.0000 
     10 O1A       -48.8260    9.8380  100.6840 O.co2     1 ATP701      0.0000 
     11 O2A       -50.3020    8.6940  102.4210 O.co2     1 ATP701      0.0000 
     12 O3A       -50.4000   11.1730  102.1770 O.3       1 ATP701      0.0000 
     13 O5'       -48.3370   10.1550  103.0790 O.3       1 ATP701      0.0000 
     14 C5'       -48.5270    9.7680  104.4460 C.3       1 ATP701      0.0000 
     15 C4'       -47.1520    9.6710  105.0780 C.3       1 ATP701      0.0000 
     16 O4'       -46.7050    8.3070  105.0910 O.3       1 ATP701      0.0000 
     17 C3'       -46.0720   10.5260  104.4210 C.3       1 ATP701      0.0000 
     18 O3'       -45.5610   11.5010  105.3350 O.3       1 ATP701      0.0000 
     19 C2'       -45.0100    9.5300  103.9390 C.3       1 ATP701      0.0000 
     20 O2'       -43.6790    9.8820  104.3370 O.3       1 ATP701      0.0000 
     21 C1'       -45.4100    8.1770  104.5420 C.3       1 ATP701      0.0000 
     22 N9        -45.4490    7.1160  103.5570 N.pl3     1 ATP701      0.0000 
     23 C8        -46.1430    7.1070  102.3910 C.2       1 ATP701      0.0000 
     24 N7        -45.9740    6.0420  101.6460 N.2       1 ATP701      0.0000 
     25 C5        -45.0920    5.2750  102.3810 C.ar      1 ATP701      0.0000 
     26 C6        -44.5230    4.0180  102.1450 C.ar      1 ATP701      0.0000 
     27 N6        -44.7760    3.3030  101.0600 N.pl3     1 ATP701      0.0000 
     28 N1        -43.6940    3.5530  103.0820 N.ar      1 ATP701      0.0000 
     29 C2        -43.4290    4.2710  104.1770 C.ar      1 ATP701      0.0000 
     30 N3        -43.9110    5.4720  104.4960 N.ar      1 ATP701      0.0000 
     31 C4        -44.7570    5.9410  103.5640 C.ar      1 ATP701      0.0000 
@<TRIPOS>BOND
     1    1    2 ar   
     2    1    3 ar   
     3    1    4 ar   
     4    1    8 1    
     5    5    6 ar   
     6    5    7 ar   
     7    5    8 1    
     8    5   12 1    
     9    9   10 ar   
    10    9   11 ar   
    11    9   12 1    
    12    9   13 1    
    13   13   14 1    
    14   14   15 1    
    15   15   16 1    
    16   15   17 1    
    17   16   21 1    
    18   17   18 1    
    19   17   19 1    
    20   19   20 1    
    21   19   21 1    
    22   21   22 1    
    23   22   23 1    
    24   22   31 1    
    25   23   24 2    
    26   24   25 1    
    27   25   26 ar   
    28   25   31 ar   
    29   26   27 1    
    30   26   28 ar   
    31   28   29 ar   
    32   29   30 ar   
    33   30   31 ar   
@<TRIPOS>SUBSTRUCTURE
     1 ATP701      1 GROUP   
@<TRIPOS>SET
ATOM$ORANGE STATIC     ATOMS   COLORGROUP SYSTEM 
20 14 14 15 15 17 17 19 19 21 21 23 23 25 25 26 26 29 \
29 31 31 

