#    Name: 6gkd_1_ATP
#    Modification time : Fri May 22 19:23:40 2020

@<TRIPOS>MOLECULE
6gkd_1_ATP
   31    33     1     0     1
SMALL
NO_CHARGES


@<TRIPOS>ATOM
      1 PG         -7.9110  -21.4590   49.7440 P.3       1 ATP701      0.0000 
      2 O1G        -8.1080  -22.0950   48.3850 O.co2     1 ATP701      0.0000 
      3 O2G        -8.6420  -20.0630   49.7720 O.co2     1 ATP701      0.0000 
      4 O3G        -8.1860  -22.3030   50.8340 O.co2     1 ATP701      0.0000 
      5 PB         -5.6540  -19.8830   49.0120 P.3       1 ATP701      0.0000 
      6 O1B        -5.3380  -20.2810   47.6230 O.co2     1 ATP701      0.0000 
      7 O2B        -6.5520  -18.6280   49.0950 O.co2     1 ATP701      0.0000 
      8 O3B        -6.3730  -21.0540   49.8140 O.3       1 ATP701      0.0000 
      9 PA         -4.1220  -18.4010   50.8860 P.3       1 ATP701      0.0000 
     10 O1A        -4.0990  -17.0370   50.1380 O.co2     1 ATP701      0.0000 
     11 O2A        -5.1640  -18.4830   51.9500 O.co2     1 ATP701      0.0000 
     12 O3A        -4.3360  -19.5840   49.8400 O.3       1 ATP701      0.0000 
     13 O5'        -2.6950  -18.6290   51.3430 O.3       1 ATP701      0.0000 
     14 C5'        -2.7240  -18.9490   52.7240 C.3       1 ATP701      0.0000 
     15 C4'        -1.3270  -19.1960   53.2470 C.3       1 ATP701      0.0000 
     16 O4'        -0.7720  -17.9830   53.7790 O.3       1 ATP701      0.0000 
     17 C3'        -1.3670  -20.1070   54.4520 C.3       1 ATP701      0.0000 
     18 O3'        -0.0600  -20.5570   54.8380 O.3       1 ATP701      0.0000 
     19 C2'        -1.9230  -19.1530   55.4970 C.3       1 ATP701      0.0000 
     20 O2'        -1.6340  -19.5830   56.8230 O.3       1 ATP701      0.0000 
     21 C1'        -1.1600  -17.8640   55.1440 C.3       1 ATP701      0.0000 
     22 N9         -1.9430  -16.6410   55.3070 N.pl3     1 ATP701      0.0000 
     23 C8         -3.0620  -16.2650   54.6570 C.2       1 ATP701      0.0000 
     24 N7         -3.5600  -15.1030   55.0250 N.2       1 ATP701      0.0000 
     25 C5         -2.6990  -14.6990   56.0070 C.ar      1 ATP701      0.0000 
     26 C6         -2.6580  -13.5290   56.8020 C.ar      1 ATP701      0.0000 
     27 N6         -3.5570  -12.5580   56.7030 N.pl3     1 ATP701      0.0000 
     28 N1         -1.6580  -13.4350   57.6750 N.ar      1 ATP701      0.0000 
     29 C2         -0.7460  -14.4070   57.7770 C.ar      1 ATP701      0.0000 
     30 N3         -0.6840  -15.5410   57.0800 N.ar      1 ATP701      0.0000 
     31 C4         -1.6830  -15.6390   56.2070 C.ar      1 ATP701      0.0000 
@<TRIPOS>BOND
     1    1    2 ar   
     2    1    3 ar   
     3    1    4 ar   
     4    1    8 1    
     5    5    6 ar   
     6    5    7 ar   
     7    5    8 1    
     8    5   12 1    
     9    9   10 ar   
    10    9   11 ar   
    11    9   12 1    
    12    9   13 1    
    13   13   14 1    
    14   14   15 1    
    15   15   16 1    
    16   15   17 1    
    17   16   21 1    
    18   17   18 1    
    19   17   19 1    
    20   19   20 1    
    21   19   21 1    
    22   21   22 1    
    23   22   23 1    
    24   22   31 1    
    25   23   24 2    
    26   24   25 1    
    27   25   26 ar   
    28   25   31 ar   
    29   26   27 1    
    30   26   28 ar   
    31   28   29 ar   
    32   29   30 ar   
    33   30   31 ar   
@<TRIPOS>SUBSTRUCTURE
     1 ATP701      1 GROUP   
@<TRIPOS>SET
ATOM$ORANGE STATIC     ATOMS   COLORGROUP SYSTEM 
20 14 14 15 15 17 17 19 19 21 21 23 23 25 25 26 26 29 \
29 31 31 

