#    Name: 6gkd_5_ATP_CAVITY_N1_4
#    Modification time : Fri May 22 19:24:04 2020

@<TRIPOS>MOLECULE
6gkd_5_ATP_CAVITY_N1_4
  135     0     7     0     0
SMALL
NO_CHARGES


@<TRIPOS>ATOM
      1 OG        -18.7300   29.4700   56.1300 O.3       1 SER1        0.0000 
      2 OG        -12.1300   25.8400   60.8300 O.3       1 SER1        0.0000 
      3 OG        -13.7700   27.1300   61.2500 O.3       1 SER1        0.0000 
      4 OG        -11.2400   26.7000   61.6800 O.3       1 SER1        0.0000 
      5 OG        -11.8100   27.9300   61.0400 O.3       1 SER1        0.0000 
      6 OG        -10.3500   27.5600   62.5300 O.3       1 SER1        0.0000 
      7 OG        -10.9200   28.7900   61.8900 O.3       1 SER1        0.0000 
      8 OG         -9.8700   24.8500   67.4200 O.3       1 SER1        0.0000 
      9 OG         -8.4000   24.4700   68.9100 O.3       1 SER1        0.0000 
     10 OG        -11.1800   28.2200   68.0400 O.3       1 SER1        0.0000 
     11 N         -18.4100   31.5600   56.3400 N.am      2 ALA2        0.0000 
     12 N         -16.0400   24.2400   61.2500 N.am      2 ALA2        0.0000 
     13 N         -14.5700   23.8700   62.7400 N.am      2 ALA2        0.0000 
     14 N         -15.1500   25.1000   62.1000 N.am      2 ALA2        0.0000 
     15 O         -14.3400   28.3600   60.6000 O.2       2 ALA2        0.0000 
     16 N         -14.2600   25.9600   62.9400 N.am      2 ALA2        0.0000 
     17 N         -14.8300   27.1900   62.3000 N.am      2 ALA2        0.0000 
     18 O          -9.6100   25.4200   61.2600 O.2       2 ALA2        0.0000 
     19 O         -12.3800   29.1600   60.4000 O.2       2 ALA2        0.0000 
     20 O         -13.4500   29.2200   61.4500 O.2       2 ALA2        0.0000 
     21 N         -12.7900   25.5900   64.4300 N.am      2 ALA2        0.0000 
     22 N         -13.3600   26.8200   63.7900 N.am      2 ALA2        0.0000 
     23 N         -14.4300   26.8700   64.8500 N.am      2 ALA2        0.0000 
     24 N         -15.0000   28.1000   64.2100 N.am      2 ALA2        0.0000 
     25 N         -15.5700   29.3300   63.5700 N.am      2 ALA2        0.0000 
     26 O          -8.1400   25.0400   62.7500 O.2       2 ALA2        0.0000 
     27 O          -9.7800   26.3300   63.1700 O.2       2 ALA2        0.0000 
     28 N         -13.5400   27.7300   65.7000 N.am      2 ALA2        0.0000 
     29 N         -14.1100   28.9600   65.0600 N.am      2 ALA2        0.0000 
     30 N         -14.6800   30.1900   64.4200 N.am      2 ALA2        0.0000 
     31 N          -8.9700   29.5900   61.6800 N.am      2 ALA2        0.0000 
     32 O          -8.3100   25.9600   64.6600 O.2       2 ALA2        0.0000 
     33 N          -9.4600   28.4200   63.3800 N.am      2 ALA2        0.0000 
     34 N         -10.0300   29.6500   62.7300 N.am      2 ALA2        0.0000 
     35 N         -10.6000   30.8800   62.0900 N.am      2 ALA2        0.0000 
     36 O          -9.3800   26.0200   65.7200 O.2       2 ALA2        0.0000 
     37 N         -11.0900   29.7000   63.7900 N.am      2 ALA2        0.0000 
     38 O          -8.7200   22.3900   68.7000 O.2       2 ALA2        0.0000 
     39 O          -9.2900   23.6200   68.0600 O.2       2 ALA2        0.0000 
     40 O         -10.4400   26.0700   66.7700 O.2       2 ALA2        0.0000 
     41 N         -13.2200   29.8200   65.9100 N.am      2 ALA2        0.0000 
     42 N         -13.7900   31.0500   65.2600 N.am      2 ALA2        0.0000 
     43 N          -9.7100   31.7300   62.9400 N.am      2 ALA2        0.0000 
     44 O          -7.9100   25.6500   67.2100 O.2       2 ALA2        0.0000 
     45 OD1       -19.2200   28.3000   57.8300 O.co2     3 ASP3        0.0000 
     46 OD1       -19.7900   29.5300   57.1900 O.co2     3 ASP3        0.0000 
     47 OD1       -20.3600   30.7600   56.5500 O.co2     3 ASP3        0.0000 
     48 OD1       -18.3300   29.1600   58.6800 O.co2     3 ASP3        0.0000 
     49 OD1       -18.9000   30.3900   58.0400 O.co2     3 ASP3        0.0000 
     50 OD1       -19.4700   31.6200   57.4000 O.co2     3 ASP3        0.0000 
     51 OD1       -17.4400   30.0200   59.5300 O.co2     3 ASP3        0.0000 
     52 OD1       -18.0100   31.2500   58.8900 O.co2     3 ASP3        0.0000 
     53 OD1       -16.5400   30.8800   60.3800 O.co2     3 ASP3        0.0000 
     54 OD1       -11.1600   24.3000   64.0200 O.co2     3 ASP3        0.0000 
     55 OD1       -12.2200   24.3600   65.0800 O.co2     3 ASP3        0.0000 
     56 OD1        -9.2000   25.1000   63.8100 O.co2     3 ASP3        0.0000 
     57 OD1       -10.2700   25.1600   64.8700 O.co2     3 ASP3        0.0000 
     58 OD1       -10.7600   23.9900   66.5700 O.co2     3 ASP3        0.0000 
     59 OD1       -11.3300   25.2200   65.9300 O.co2     3 ASP3        0.0000 
     60 OD1        -7.7400   24.7300   65.3000 O.co2     3 ASP3        0.0000 
     61 OD1        -8.2300   23.5600   67.0000 O.co2     3 ASP3        0.0000 
     62 OD1        -8.8000   24.7900   66.3600 O.co2     3 ASP3        0.0000 
     63 OD1       -10.3600   23.6700   69.1100 O.co2     3 ASP3        0.0000 
     64 OD1       -10.9300   24.9000   68.4700 O.co2     3 ASP3        0.0000 
     65 OD1       -12.0700   27.3600   67.1900 O.co2     3 ASP3        0.0000 
     66 OD1        -7.3400   24.4200   67.8500 O.co2     3 ASP3        0.0000 
     67 NZ        -16.1400   30.5600   62.9300 N.4       4 LYS4        0.0000 
     68 CZ        -17.5800   27.0200   57.4200 C.ar      5 PHE5        0.0000 
     69 CZ        -18.1600   28.2500   56.7800 C.ar      5 PHE5        0.0000 
     70 CZ        -15.5500   25.4200   59.5500 C.ar      5 PHE5        0.0000 
     71 CZ        -16.1200   26.6400   58.9100 C.ar      5 PHE5        0.0000 
     72 CZ        -16.6900   27.8700   58.2700 C.ar      5 PHE5        0.0000 
     73 CZ        -17.2600   29.1000   57.6200 C.ar      5 PHE5        0.0000 
     74 CZ        -13.5900   26.2200   59.3400 C.ar      5 PHE5        0.0000 
     75 CZ        -14.6600   26.2700   60.4000 C.ar      5 PHE5        0.0000 
     76 CZ        -15.2300   27.5000   59.7600 C.ar      5 PHE5        0.0000 
     77 CZ        -15.8000   28.7300   59.1100 C.ar      5 PHE5        0.0000 
     78 CZ        -16.3700   29.9600   58.4700 C.ar      5 PHE5        0.0000 
     79 CZ        -14.9100   29.5900   59.9600 C.ar      5 PHE5        0.0000 
     80 CZ        -15.4800   30.8200   59.3200 C.ar      5 PHE5        0.0000 
     81 CZ        -14.0200   30.4500   60.8100 C.ar      5 PHE5        0.0000 
     82 CZ        -14.5900   31.6800   60.1700 C.ar      5 PHE5        0.0000 
     83 CA        -14.9800   24.1900   60.1900 C.3       6 GLY6        0.0000 
     84 CA        -17.8400   30.3300   56.9800 C.3       6 GLY6        0.0000 
     85 CA        -16.6100   25.4700   60.6100 C.3       6 GLY6        0.0000 
     86 CA        -17.1800   26.7000   59.9600 C.3       6 GLY6        0.0000 
     87 CA        -13.5100   23.8200   61.6800 C.3       6 GLY6        0.0000 
     88 CA        -17.5200   32.4200   57.1900 C.3       6 GLY6        0.0000 
     89 CA        -15.7200   26.3300   61.4500 C.3       6 GLY6        0.0000 
     90 CA        -16.2900   27.5600   60.8100 C.3       6 GLY6        0.0000 
     91 CA        -16.8600   28.7900   60.1700 C.3       6 GLY6        0.0000 
     92 CA        -12.6200   24.6700   62.5300 C.3       6 GLY6        0.0000 
     93 CA        -15.4000   28.4200   61.6600 C.3       6 GLY6        0.0000 
     94 CA        -15.9700   29.6500   61.0200 C.3       6 GLY6        0.0000 
     95 CA        -15.8900   27.2500   63.3600 C.3       6 GLY6        0.0000 
     96 CA        -10.6700   25.4700   62.3200 C.3       6 GLY6        0.0000 
     97 CA        -11.7300   25.5300   63.3800 C.3       6 GLY6        0.0000 
     98 CA         -8.7100   26.2700   62.1100 C.3       6 GLY6        0.0000 
     99 CA         -9.2900   27.5000   61.4700 C.3       6 GLY6        0.0000 
    100 CA         -9.8600   28.7300   60.8300 C.3       6 GLY6        0.0000 
    101 CA        -11.4900   30.0200   61.2400 C.3       6 GLY6        0.0000 
    102 CA        -12.0700   31.2500   60.6000 C.3       6 GLY6        0.0000 
    103 CA         -9.5400   30.8200   61.0400 C.3       6 GLY6        0.0000 
    104 CA         -8.8900   27.1900   64.0200 C.3       6 GLY6        0.0000 
    105 CA        -11.1700   32.1100   61.4500 C.3       6 GLY6        0.0000 
    106 CA         -9.9500   27.2500   65.0700 C.3       6 GLY6        0.0000 
    107 CA        -10.5200   28.4800   64.4300 C.3       6 GLY6        0.0000 
    108 CA        -11.0100   27.3000   66.1300 C.3       6 GLY6        0.0000 
    109 CA        -11.5800   28.5300   65.4900 C.3       6 GLY6        0.0000 
    110 CA        -12.1500   29.7600   64.8500 C.3       6 GLY6        0.0000 
    111 CA        -11.2600   30.6200   65.7000 C.3       6 GLY6        0.0000 
    112 DU        -14.0800   25.0400   61.0400 H         7 CUB7        0.0000 
    113 DU        -13.1900   25.9000   61.8900 H         7 CUB7        0.0000 
    114 DU        -12.3000   26.7600   62.7400 H         7 CUB7        0.0000 
    115 DU        -12.8700   27.9900   62.0900 H         7 CUB7        0.0000 
    116 DU        -13.9400   28.0500   63.1500 H         7 CUB7        0.0000 
    117 DU        -14.5100   29.2800   62.5100 H         7 CUB7        0.0000 
    118 DU        -15.0800   30.5000   61.8700 H         7 CUB7        0.0000 
    119 DU        -15.6500   31.7300   61.2300 H         7 CUB7        0.0000 
    120 DU        -10.8400   26.3900   64.2300 H         7 CUB7        0.0000 
    121 DU        -11.4100   27.6200   63.5800 H         7 CUB7        0.0000 
    122 DU        -11.9800   28.8500   62.9400 H         7 CUB7        0.0000 
    123 DU        -12.5600   30.0800   62.3000 H         7 CUB7        0.0000 
    124 DU        -13.1300   31.3100   61.6600 H         7 CUB7        0.0000 
    125 DU        -13.7000   32.5300   61.0200 H         7 CUB7        0.0000 
    126 DU        -11.9000   26.4500   65.2800 H         7 CUB7        0.0000 
    127 DU        -12.4700   27.6800   64.6400 H         7 CUB7        0.0000 
    128 DU        -13.0500   28.9000   64.0000 H         7 CUB7        0.0000 
    129 DU        -13.6200   30.1300   63.3600 H         7 CUB7        0.0000 
    130 DU        -14.1900   31.3600   62.7200 H         7 CUB7        0.0000 
    131 DU        -11.6600   30.9300   63.1500 H         7 CUB7        0.0000 
    132 DU        -12.7300   30.9900   64.2100 H         7 CUB7        0.0000 
    133 DU        -12.6400   28.5900   66.5500 H         7 CUB7        0.0000 
    134 DU         -7.8300   23.2400   69.5500 H         7 CUB7        0.0000 
    135 DU        -11.8400   31.8500   65.0600 H         7 CUB7        0.0000 
@<TRIPOS>BOND
@<TRIPOS>SUBSTRUCTURE
     1 SER1        1 GROUP   
     2 ALA2       11 GROUP   
     3 ASP3       45 GROUP   
     4 LYS4       67 GROUP   
     5 PHE5       68 GROUP   
     6 GLY6       83 GROUP   
     7 CUB7      112 GROUP   
@<TRIPOS>SET

