#    Name: 6gkd_4_ATP_CAVITY_N1_4
#    Modification time : Fri May 22 19:23:59 2020

@<TRIPOS>MOLECULE
6gkd_4_ATP_CAVITY_N1_4
  115     0     7     0     0
SMALL
NO_CHARGES


@<TRIPOS>ATOM
      1 OG        -31.1700   -3.6100   28.4000 O.3       1 SER1        0.0000 
      2 OG        -40.7500    8.6000   28.7700 O.3       1 SER1        0.0000 
      3 OG        -34.4600    6.7700   26.6700 O.3       1 SER1        0.0000 
      4 OG        -34.3800    4.3700   29.0100 O.3       1 SER1        0.0000 
      5 OG        -34.9500    5.6000   28.3700 O.3       1 SER1        0.0000 
      6 OG        -35.5200    6.8300   27.7300 O.3       1 SER1        0.0000 
      7 OG        -39.8500    9.4600   29.6100 O.3       1 SER1        0.0000 
      8 OG        -33.4900    5.2300   29.8600 O.3       1 SER1        0.0000 
      9 OG        -34.0600    6.4600   29.2200 O.3       1 SER1        0.0000 
     10 OG        -34.6300    7.6900   28.5700 O.3       1 SER1        0.0000 
     11 N         -37.7100    5.4300   23.4800 N.am      2 ALA2        0.0000 
     12 N         -38.6900    3.0800   26.8800 N.am      2 ALA2        0.0000 
     13 N         -39.2600    4.3100   26.2400 N.am      2 ALA2        0.0000 
     14 N         -39.8300    5.5400   25.6000 N.am      2 ALA2        0.0000 
     15 N         -40.8900    5.6000   26.6500 N.am      2 ALA2        0.0000 
     16 N         -35.7500    6.2300   23.2700 N.am      2 ALA2        0.0000 
     17 N         -36.8100    6.2800   24.3300 N.am      2 ALA2        0.0000 
     18 N         -37.8000    3.9400   27.7300 N.am      2 ALA2        0.0000 
     19 N         -38.3700    5.1700   27.0900 N.am      2 ALA2        0.0000 
     20 O         -38.2900    2.7700   29.4300 O.2       2 ALA2        0.0000 
     21 N         -38.8600    4.0000   28.7800 N.am      2 ALA2        0.0000 
     22 N         -39.4300    5.2300   28.1400 N.am      2 ALA2        0.0000 
     23 N         -40.0000    6.4600   27.5000 N.am      2 ALA2        0.0000 
     24 O         -34.7800    4.6800   26.4600 O.2       2 ALA2        0.0000 
     25 N         -35.9200    7.1400   25.1800 N.am      2 ALA2        0.0000 
     26 O         -35.2700    3.5100   28.1600 O.2       2 ALA2        0.0000 
     27 N         -37.9700    4.8600   29.6300 N.am      2 ALA2        0.0000 
     28 O         -39.6800    8.5400   27.7100 O.2       2 ALA2        0.0000 
     29 N         -35.4400    4.4300   30.0700 N.am      2 ALA2        0.0000 
     30 N         -37.0800    5.7100   30.4800 N.am      2 ALA2        0.0000 
     31 N         -37.6500    6.9400   29.8400 N.am      2 ALA2        0.0000 
     32 O         -38.7900    9.4000   28.5600 O.2       2 ALA2        0.0000 
     33 O         -35.2000    8.9100   27.9300 O.2       2 ALA2        0.0000 
     34 O         -35.7800   10.1400   27.2900 O.2       2 ALA2        0.0000 
     35 O         -36.8400   10.2000   28.3500 O.2       2 ALA2        0.0000 
     36 O         -37.4100   11.4300   27.7100 O.2       2 ALA2        0.0000 
     37 N         -35.0400    4.1100   32.6100 N.am      2 ALA2        0.0000 
     38 O         -38.4700   11.4900   28.7600 O.2       2 ALA2        0.0000 
     39 OD1       -35.7400   -1.5800   25.8400 O.co2     3 ASP3        0.0000 
     40 OD1       -35.6500   -3.9800   28.1800 O.co2     3 ASP3        0.0000 
     41 OD1       -33.1300   -4.4100   28.6100 O.co2     3 ASP3        0.0000 
     42 OD1       -33.7000   -3.1800   27.9700 O.co2     3 ASP3        0.0000 
     43 OD1       -34.2700   -1.9500   27.3300 O.co2     3 ASP3        0.0000 
     44 OD1       -34.8400   -0.7200   26.6900 O.co2     3 ASP3        0.0000 
     45 OD1       -36.4800    0.5700   27.1000 O.co2     3 ASP3        0.0000 
     46 OD1       -32.8100   -2.3200   28.8200 O.co2     3 ASP3        0.0000 
     47 OD1       -33.3800   -1.0900   28.1800 O.co2     3 ASP3        0.0000 
     48 OD1       -35.0200    0.2000   28.5900 O.co2     3 ASP3        0.0000 
     49 OD1       -33.5500   -0.1800   30.0800 O.co2     3 ASP3        0.0000 
     50 OD1       -40.1700    7.3700   29.4100 O.co2     3 ASP3        0.0000 
     51 OD1       -33.7200    0.7400   31.9900 O.co2     3 ASP3        0.0000 
     52 OD1       -39.2800    8.2300   30.2600 O.co2     3 ASP3        0.0000 
     53 OD1       -36.2700    8.9700   28.9900 O.co2     3 ASP3        0.0000 
     54 OD1       -37.9000   10.2600   29.4100 O.co2     3 ASP3        0.0000 
     55 OD1       -38.9600   10.3200   30.4600 O.co2     3 ASP3        0.0000 
     56 NZ        -37.0500    1.8000   26.4600 N.4       4 LYS4        0.0000 
     57 NZ        -38.1100    1.8500   27.5200 N.4       4 LYS4        0.0000 
     58 CZ        -35.4200    0.5100   26.0500 C.ar      5 PHE5        0.0000 
     59 CZ        -31.7500   -2.3800   27.7600 C.ar      5 PHE5        0.0000 
     60 CZ        -32.3200   -1.1500   27.1200 C.ar      5 PHE5        0.0000 
     61 CZ        -33.9500    0.1400   27.5400 C.ar      5 PHE5        0.0000 
     62 CZ        -34.5300    1.3700   26.9000 C.ar      5 PHE5        0.0000 
     63 CZ        -35.1000    2.6000   26.2500 C.ar      5 PHE5        0.0000 
     64 CZ        -35.6700    3.8300   25.6100 C.ar      5 PHE5        0.0000 
     65 CZ        -31.9200   -1.4600   29.6700 C.ar      5 PHE5        0.0000 
     66 CZ        -32.4900   -0.2300   29.0300 C.ar      5 PHE5        0.0000 
     67 CZ        -33.0600    1.0000   28.3900 C.ar      5 PHE5        0.0000 
     68 CZ        -32.6600    0.6800   30.9300 C.ar      5 PHE5        0.0000 
     69 CZ        -33.2300    1.9100   30.2900 C.ar      5 PHE5        0.0000 
     70 CZ        -33.8100    3.1400   29.6500 C.ar      5 PHE5        0.0000 
     71 CZ        -32.9100    4.0000   30.5000 C.ar      5 PHE5        0.0000 
     72 CA        -33.2100   -2.0100   26.2700 C.3       6 GLY6        0.0000 
     73 CA        -34.3500    0.4500   24.9900 C.3       6 GLY6        0.0000 
     74 CA        -35.1800    5.0000   23.9100 C.3       6 GLY6        0.0000 
     75 CA        -35.5900    1.4200   27.9500 C.3       6 GLY6        0.0000 
     76 CA        -37.8800    6.3400   25.3900 C.3       6 GLY6        0.0000 
     77 CA        -37.2200    2.7100   28.3700 C.3       6 GLY6        0.0000 
     78 CA        -38.9400    6.4000   26.4400 C.3       6 GLY6        0.0000 
     79 CA        -35.3500    5.9100   25.8200 C.3       6 GLY6        0.0000 
     80 CA        -34.1200    1.0500   29.4400 C.3       6 GLY6        0.0000 
     81 CA        -34.7000    2.2800   28.8000 C.3       6 GLY6        0.0000 
     82 CA        -36.9900    7.2000   26.2300 C.3       6 GLY6        0.0000 
     83 CA        -36.3300    3.5700   29.2200 C.3       6 GLY6        0.0000 
     84 CA        -38.0500    7.2600   27.2900 C.3       6 GLY6        0.0000 
     85 CA        -37.3900    3.6300   30.2700 C.3       6 GLY6        0.0000 
     86 CA        -35.0300    8.0000   26.0300 C.3       6 GLY6        0.0000 
     87 CA        -36.1000    8.0600   27.0800 C.3       6 GLY6        0.0000 
     88 CA        -34.3000    1.9700   31.3500 C.3       6 GLY6        0.0000 
     89 CA        -34.8700    3.2000   30.7100 C.3       6 GLY6        0.0000 
     90 CA        -37.1600    8.1100   28.1400 C.3       6 GLY6        0.0000 
     91 CA        -37.7300    9.3400   27.5000 C.3       6 GLY6        0.0000 
     92 CA        -32.8300    1.6000   32.8400 C.3       6 GLY6        0.0000 
     93 CA        -33.4000    2.8300   32.2000 C.3       6 GLY6        0.0000 
     94 CA        -33.9800    4.0600   31.5600 C.3       6 GLY6        0.0000 
     95 CA        -34.5500    5.2800   30.9100 C.3       6 GLY6        0.0000 
     96 CA        -35.1200    6.5100   30.2700 C.3       6 GLY6        0.0000 
     97 CA        -33.9000    1.6500   33.9000 C.3       6 GLY6        0.0000 
     98 CA        -34.4700    2.8800   33.2500 C.3       6 GLY6        0.0000 
     99 CA        -33.0900    4.9100   32.4000 C.3       6 GLY6        0.0000 
    100 DU        -37.6200    3.0300   25.8200 H         7 CUB7        0.0000 
    101 DU        -38.2000    4.2500   25.1800 H         7 CUB7        0.0000 
    102 DU        -41.4700    6.8300   26.0100 H         7 CUB7        0.0000 
    103 DU        -36.2400    5.0600   24.9700 H         7 CUB7        0.0000 
    104 DU        -36.1600    2.6500   27.3100 H         7 CUB7        0.0000 
    105 DU        -36.7300    3.8800   26.6700 H         7 CUB7        0.0000 
    106 DU        -37.3100    5.1100   26.0300 H         7 CUB7        0.0000 
    107 DU        -35.8400    4.7400   27.5200 H         7 CUB7        0.0000 
    108 DU        -36.4100    5.9700   26.8800 H         7 CUB7        0.0000 
    109 DU        -36.9000    4.8000   28.5800 H         7 CUB7        0.0000 
    110 DU        -37.4800    6.0300   27.9300 H         7 CUB7        0.0000 
    111 DU        -38.5400    6.0900   28.9900 H         7 CUB7        0.0000 
    112 DU        -39.1100    7.3100   28.3500 H         7 CUB7        0.0000 
    113 DU        -36.0100    5.6600   29.4200 H         7 CUB7        0.0000 
    114 DU        -36.5900    6.8900   28.7800 H         7 CUB7        0.0000 
    115 DU        -38.2200    8.1700   29.2000 H         7 CUB7        0.0000 
@<TRIPOS>BOND
@<TRIPOS>SUBSTRUCTURE
     1 SER1        1 GROUP   
     2 ALA2       11 GROUP   
     3 ASP3       39 GROUP   
     4 LYS4       56 GROUP   
     5 PHE5       58 GROUP   
     6 GLY6       72 GROUP   
     7 CUB7      100 GROUP   
@<TRIPOS>SET

