#    Name: 6gkd_3_ATP
#    Modification time : Fri May 22 19:23:51 2020

@<TRIPOS>MOLECULE
6gkd_3_ATP
   31    33     1     0     1
SMALL
NO_CHARGES


@<TRIPOS>ATOM
      1 PG        -74.9500   -8.2390   63.0970 P.3       1 ATP701      0.0000 
      2 O1G       -75.0150   -9.4620   62.2250 O.co2     1 ATP701      0.0000 
      3 O2G       -73.8140   -8.3540   64.0960 O.co2     1 ATP701      0.0000 
      4 O3G       -74.9510   -6.9550   62.4020 O.co2     1 ATP701      0.0000 
      5 PB        -76.5000   -7.7790   65.4190 P.3       1 ATP701      0.0000 
      6 O1B       -77.7310   -8.3310   66.0060 O.co2     1 ATP701      0.0000 
      7 O2B       -75.2430   -8.0460   66.2720 O.co2     1 ATP701      0.0000 
      8 O3B       -76.2840   -8.3650   63.9600 O.3       1 ATP701      0.0000 
      9 PA        -76.3660   -5.2280   66.4980 P.3       1 ATP701      0.0000 
     10 O1A       -74.9230   -4.9080   66.6450 O.co2     1 ATP701      0.0000 
     11 O2A       -76.9650   -5.9520   67.7570 O.co2     1 ATP701      0.0000 
     12 O3A       -76.6050   -6.2070   65.2680 O.3       1 ATP701      0.0000 
     13 O5'       -77.2430   -4.0050   66.1270 O.3       1 ATP701      0.0000 
     14 C5'       -78.4060   -3.6310   66.8690 C.3       1 ATP701      0.0000 
     15 C4'       -78.6140   -2.1540   66.5980 C.3       1 ATP701      0.0000 
     16 O4'       -77.9410   -1.3600   67.5890 O.3       1 ATP701      0.0000 
     17 C3'       -78.1500   -1.6520   65.2320 C.3       1 ATP701      0.0000 
     18 O3'       -79.1320   -0.7780   64.6710 O.3       1 ATP701      0.0000 
     19 C2'       -76.8440   -0.9220   65.5460 C.3       1 ATP701      0.0000 
     20 O2'       -76.5920    0.1630   64.6460 O.3       1 ATP701      0.0000 
     21 C1'       -77.1030   -0.4030   66.9650 C.3       1 ATP701      0.0000 
     22 N9        -75.9020   -0.2460   67.7600 N.pl3     1 ATP701      0.0000 
     23 C8        -74.8650   -1.1190   67.8950 C.2       1 ATP701      0.0000 
     24 N7        -73.8820   -0.7110   68.6520 N.2       1 ATP701      0.0000 
     25 C5        -74.3010    0.5480   69.0700 C.ar      1 ATP701      0.0000 
     26 C6        -73.7090    1.4980   69.9090 C.ar      1 ATP701      0.0000 
     27 N6        -72.5360    1.3120   70.5110 N.pl3     1 ATP701      0.0000 
     28 N1        -74.3940    2.6330   70.0970 N.ar      1 ATP701      0.0000 
     29 C2        -75.5740    2.8280   69.5040 C.ar      1 ATP701      0.0000 
     30 N3        -76.2210    1.9860   68.7010 N.ar      1 ATP701      0.0000 
     31 C4        -75.5410    0.8300   68.5080 C.ar      1 ATP701      0.0000 
@<TRIPOS>BOND
     1    1    2 ar   
     2    1    3 ar   
     3    1    4 ar   
     4    1    8 1    
     5    5    6 ar   
     6    5    7 ar   
     7    5    8 1    
     8    5   12 1    
     9    9   10 ar   
    10    9   11 ar   
    11    9   12 1    
    12    9   13 1    
    13   13   14 1    
    14   14   15 1    
    15   15   16 1    
    16   15   17 1    
    17   16   21 1    
    18   17   18 1    
    19   17   19 1    
    20   19   20 1    
    21   19   21 1    
    22   21   22 1    
    23   22   23 1    
    24   22   31 1    
    25   23   24 2    
    26   24   25 1    
    27   25   26 ar   
    28   25   31 ar   
    29   26   27 1    
    30   26   28 ar   
    31   28   29 ar   
    32   29   30 ar   
    33   30   31 ar   
@<TRIPOS>SUBSTRUCTURE
     1 ATP701      1 GROUP   
@<TRIPOS>SET
ATOM$ORANGE STATIC     ATOMS   COLORGROUP SYSTEM 
20 14 14 15 15 17 17 19 19 21 21 23 23 25 25 26 26 29 \
29 31 31 

