#    Name: 6gkd_5_ATP
#    Modification time : Fri May 22 19:24:03 2020

@<TRIPOS>MOLECULE
6gkd_5_ATP
   31    33     1     0     1
SMALL
NO_CHARGES


@<TRIPOS>ATOM
      1 PG         -9.0680   24.3820   66.6500 P.3       1 ATP701      0.0000 
      2 O1G        -9.5710   25.7720   66.8210 O.co2     1 ATP701      0.0000 
      3 O2G       -10.0040   23.3780   67.1570 O.co2     1 ATP701      0.0000 
      4 O3G        -7.6990   24.2200   67.2240 O.co2     1 ATP701      0.0000 
      5 PB         -8.3780   25.4080   64.2760 P.3       1 ATP701      0.0000 
      6 O1B        -7.8270   25.0280   62.9620 O.co2     1 ATP701      0.0000 
      7 O2B        -7.4140   26.1450   65.1270 O.co2     1 ATP701      0.0000 
      8 O3B        -8.8950   24.1480   65.0890 O.3       1 ATP701      0.0000 
      9 PA        -10.5510   26.5270   62.7440 P.3       1 ATP701      0.0000 
     10 O1A        -9.6840   26.2120   61.4920 O.co2     1 ATP701      0.0000 
     11 O2A       -11.8330   25.7860   62.8100 O.co2     1 ATP701      0.0000 
     12 O3A        -9.6980   26.2630   64.0570 O.3       1 ATP701      0.0000 
     13 O5'       -10.7890   28.0210   62.8390 O.3       1 ATP701      0.0000 
     14 C5'       -10.5230   28.9320   61.7750 C.3       1 ATP701      0.0000 
     15 C4'       -11.3840   30.1600   62.0000 C.3       1 ATP701      0.0000 
     16 O4'       -12.4160   30.2460   61.0090 O.3       1 ATP701      0.0000 
     17 C3'       -12.0450   30.3240   63.3630 C.3       1 ATP701      0.0000 
     18 O3'       -11.8940   31.6760   63.8090 O.3       1 ATP701      0.0000 
     19 C2'       -13.5090   29.9550   63.1120 C.3       1 ATP701      0.0000 
     20 O2'       -14.4360   30.7640   63.8420 O.3       1 ATP701      0.0000 
     21 C1'       -13.7030   30.1970   61.6060 C.3       1 ATP701      0.0000 
     22 N9        -14.4500   29.1260   60.9790 N.pl3     1 ATP701      0.0000 
     23 C8        -14.2170   27.8050   61.1160 C.2       1 ATP701      0.0000 
     24 N7        -14.9990   27.0160   60.4160 N.2       1 ATP701      0.0000 
     25 C5        -15.8270   27.9120   59.7660 C.ar      1 ATP701      0.0000 
     26 C6        -16.8780   27.7070   58.8440 C.ar      1 ATP701      0.0000 
     27 N6        -17.2770   26.5040   58.4430 N.pl3     1 ATP701      0.0000 
     28 N1        -17.4780   28.8070   58.3820 N.ar      1 ATP701      0.0000 
     29 C2        -17.0820   30.0170   58.7790 C.ar      1 ATP701      0.0000 
     30 N3        -16.0990   30.3140   59.6270 N.ar      1 ATP701      0.0000 
     31 C4        -15.4990   29.2160   60.1070 C.ar      1 ATP701      0.0000 
@<TRIPOS>BOND
     1    1    2 ar   
     2    1    3 ar   
     3    1    4 ar   
     4    1    8 1    
     5    5    6 ar   
     6    5    7 ar   
     7    5    8 1    
     8    5   12 1    
     9    9   10 ar   
    10    9   11 ar   
    11    9   12 1    
    12    9   13 1    
    13   13   14 1    
    14   14   15 1    
    15   15   16 1    
    16   15   17 1    
    17   16   21 1    
    18   17   18 1    
    19   17   19 1    
    20   19   20 1    
    21   19   21 1    
    22   21   22 1    
    23   22   23 1    
    24   22   31 1    
    25   23   24 2    
    26   24   25 1    
    27   25   26 ar   
    28   25   31 ar   
    29   26   27 1    
    30   26   28 ar   
    31   28   29 ar   
    32   29   30 ar   
    33   30   31 ar   
@<TRIPOS>SUBSTRUCTURE
     1 ATP701      1 GROUP   
@<TRIPOS>SET
ATOM$ORANGE STATIC     ATOMS   COLORGROUP SYSTEM 
20 14 14 15 15 17 17 19 19 21 21 23 23 25 25 26 26 29 \
29 31 31 

