#    Name: 6gkd_4_ATP
#    Modification time : Fri May 22 19:23:58 2020

@<TRIPOS>MOLECULE
6gkd_4_ATP
   31    33     1     0     1
SMALL
NO_CHARGES


@<TRIPOS>ATOM
      1 PG        -38.1970   11.2850   29.9190 P.3       1 ATP701      0.0000 
      2 O1G       -38.2940   12.6680   29.7300 O.co2     1 ATP701      0.0000 
      3 O2G       -39.4950   10.5670   30.0090 O.co2     1 ATP701      0.0000 
      4 O3G       -37.3000   10.8990   31.0810 O.co2     1 ATP701      0.0000 
      5 PB        -35.9370   10.6410   28.3600 P.3       1 ATP701      0.0000 
      6 O1B       -35.5310   11.8990   27.6990 O.co2     1 ATP701      0.0000 
      7 O2B       -35.1340   10.3070   29.6430 O.co2     1 ATP701      0.0000 
      8 O3B       -37.4960   10.6170   28.6620 O.3       1 ATP701      0.0000 
      9 PA        -35.2800    8.0280   27.9110 P.3       1 ATP701      0.0000 
     10 O1A       -33.7180    8.0830   27.8580 O.co2     1 ATP701      0.0000 
     11 O2A       -35.8320    7.7500   29.2650 O.co2     1 ATP701      0.0000 
     12 O3A       -35.7840    9.4270   27.3690 O.3       1 ATP701      0.0000 
     13 O5'       -35.8230    7.1430   26.8160 O.3       1 ATP701      0.0000 
     14 C5'       -34.8930    6.3640   26.0730 C.3       1 ATP701      0.0000 
     15 C4'       -35.6430    5.2300   25.4140 C.3       1 ATP701      0.0000 
     16 O4'       -34.8730    4.0190   25.4940 O.3       1 ATP701      0.0000 
     17 C3'       -37.0390    4.9590   25.9640 C.3       1 ATP701      0.0000 
     18 O3'       -38.0400    5.2040   24.9700 O.3       1 ATP701      0.0000 
     19 C2'       -37.0170    3.4900   26.4040 C.3       1 ATP701      0.0000 
     20 O2'       -37.9630    2.6380   25.7580 O.3       1 ATP701      0.0000 
     21 C1'       -35.5820    3.0020   26.1740 C.3       1 ATP701      0.0000 
     22 N9        -34.8880    2.7030   27.4210 N.pl3     1 ATP701      0.0000 
     23 C8        -34.7130    3.5420   28.4700 C.2       1 ATP701      0.0000 
     24 N7        -34.1110    3.0020   29.5000 N.2       1 ATP701      0.0000 
     25 C5        -33.8730    1.7200   29.1120 C.ar      1 ATP701      0.0000 
     26 C6        -33.2390    0.6350   29.7440 C.ar      1 ATP701      0.0000 
     27 N6        -32.7330    0.7240   30.9740 N.pl3     1 ATP701      0.0000 
     28 N1        -33.1600   -0.5030   29.0610 N.ar      1 ATP701      0.0000 
     29 C2        -33.6690   -0.5980   27.8310 C.ar      1 ATP701      0.0000 
     30 N3        -34.2860    0.3560   27.1360 N.ar      1 ATP701      0.0000 
     31 C4        -34.3590    1.5000   27.8070 C.ar      1 ATP701      0.0000 
@<TRIPOS>BOND
     1    1    2 ar   
     2    1    3 ar   
     3    1    4 ar   
     4    1    8 1    
     5    5    6 ar   
     6    5    7 ar   
     7    5    8 1    
     8    5   12 1    
     9    9   10 ar   
    10    9   11 ar   
    11    9   12 1    
    12    9   13 1    
    13   13   14 1    
    14   14   15 1    
    15   15   16 1    
    16   15   17 1    
    17   16   21 1    
    18   17   18 1    
    19   17   19 1    
    20   19   20 1    
    21   19   21 1    
    22   21   22 1    
    23   22   23 1    
    24   22   31 1    
    25   23   24 2    
    26   24   25 1    
    27   25   26 ar   
    28   25   31 ar   
    29   26   27 1    
    30   26   28 ar   
    31   28   29 ar   
    32   29   30 ar   
    33   30   31 ar   
@<TRIPOS>SUBSTRUCTURE
     1 ATP701      1 GROUP   
@<TRIPOS>SET
ATOM$ORANGE STATIC     ATOMS   COLORGROUP SYSTEM 
20 14 14 15 15 17 17 19 19 21 21 23 23 25 25 26 26 29 \
29 31 31 

