#    Name: 6gkd_6_ATP
#    Modification time : Fri May 22 19:24:09 2020

@<TRIPOS>MOLECULE
6gkd_6_ATP
   31    33     1     0     1
SMALL
NO_CHARGES


@<TRIPOS>ATOM
      1 PG        -41.8970  -33.3910   88.9550 P.3       1 ATP701      0.0000 
      2 O1G       -42.2240  -31.9860   88.3620 O.co2     1 ATP701      0.0000 
      3 O2G       -40.8390  -34.0880   88.3920 O.co2     1 ATP701      0.0000 
      4 O3G       -41.8390  -33.2780   90.4370 O.co2     1 ATP701      0.0000 
      5 PB        -44.5530  -33.7450   89.5250 P.3       1 ATP701      0.0000 
      6 O1B       -44.7940  -32.2950   89.0920 O.co2     1 ATP701      0.0000 
      7 O2B       -44.4080  -33.9380   90.9880 O.co2     1 ATP701      0.0000 
      8 O3B       -43.2510  -34.1750   88.7340 O.3       1 ATP701      0.0000 
      9 PA        -46.4170  -34.3170   87.5830 P.3       1 ATP701      0.0000 
     10 O1A       -45.3770  -33.9020   86.6020 O.co2     1 ATP701      0.0000 
     11 O2A       -47.4520  -33.2130   87.8960 O.co2     1 ATP701      0.0000 
     12 O3A       -45.7040  -34.6690   88.9540 O.3       1 ATP701      0.0000 
     13 O5'       -47.1650  -35.5850   87.2110 O.3       1 ATP701      0.0000 
     14 C5'       -46.3180  -36.5800   86.6410 C.3       1 ATP701      0.0000 
     15 C4'       -47.1230  -37.5170   85.7590 C.3       1 ATP701      0.0000 
     16 O4'       -48.2340  -36.8430   85.1370 O.3       1 ATP701      0.0000 
     17 C3'       -46.2950  -38.0990   84.6190 C.3       1 ATP701      0.0000 
     18 O3'       -46.6810  -39.4330   84.2780 O.3       1 ATP701      0.0000 
     19 C2'       -46.6200  -37.1590   83.4660 C.3       1 ATP701      0.0000 
     20 O2'       -46.4490  -37.7240   82.1680 O.3       1 ATP701      0.0000 
     21 C1'       -48.1020  -36.8820   83.7260 C.3       1 ATP701      0.0000 
     22 N9        -48.4860  -35.5670   83.1930 N.pl3     1 ATP701      0.0000 
     23 C8        -47.8810  -34.4070   83.4840 C.2       1 ATP701      0.0000 
     24 N7        -48.3270  -33.4090   82.7500 N.2       1 ATP701      0.0000 
     25 C5        -49.2560  -33.9290   81.9770 C.ar      1 ATP701      0.0000 
     26 C6        -50.1430  -33.4040   80.9820 C.ar      1 ATP701      0.0000 
     27 N6        -50.1470  -32.1030   80.6750 N.pl3     1 ATP701      0.0000 
     28 N1        -50.9590  -34.2360   80.3630 N.ar      1 ATP701      0.0000 
     29 C2        -50.9400  -35.5410   80.6480 C.ar      1 ATP701      0.0000 
     30 N3        -50.1880  -36.1670   81.5580 N.ar      1 ATP701      0.0000 
     31 C4        -49.4070  -35.3480   82.1870 C.ar      1 ATP701      0.0000 
@<TRIPOS>BOND
     1    1    2 ar   
     2    1    3 ar   
     3    1    4 ar   
     4    1    8 1    
     5    5    6 ar   
     6    5    7 ar   
     7    5    8 1    
     8    5   12 1    
     9    9   10 ar   
    10    9   11 ar   
    11    9   12 1    
    12    9   13 1    
    13   13   14 1    
    14   14   15 1    
    15   15   16 1    
    16   15   17 1    
    17   16   21 1    
    18   17   18 1    
    19   17   19 1    
    20   19   20 1    
    21   19   21 1    
    22   21   22 1    
    23   22   23 1    
    24   22   31 1    
    25   23   24 2    
    26   24   25 1    
    27   25   26 ar   
    28   25   31 ar   
    29   26   27 1    
    30   26   28 ar   
    31   28   29 ar   
    32   29   30 ar   
    33   30   31 ar   
@<TRIPOS>SUBSTRUCTURE
     1 ATP701      1 GROUP   
@<TRIPOS>SET
ATOM$ORANGE STATIC     ATOMS   COLORGROUP SYSTEM 
20 14 14 15 15 17 17 19 19 21 21 23 23 25 25 26 26 29 \
29 31 31 

