#    Name: 6gkd_6_ATP_CAVITY_N1_4
#    Modification time : Fri May 22 19:24:10 2020

@<TRIPOS>MOLECULE
6gkd_6_ATP_CAVITY_N1_4
  121     0     7     0     0
SMALL
NO_CHARGES


@<TRIPOS>ATOM
      1 OG        -47.4500  -35.9600   86.1500 O.3       1 SER1        0.0000 
      2 OG        -48.0200  -34.7300   85.5100 O.3       1 SER1        0.0000 
      3 OG        -48.6000  -33.5000   84.8700 O.3       1 SER1        0.0000 
      4 OG        -46.5600  -35.1000   87.0000 O.3       1 SER1        0.0000 
      5 OG        -47.1300  -33.8700   86.3600 O.3       1 SER1        0.0000 
      6 OG        -47.7100  -32.6400   85.7200 O.3       1 SER1        0.0000 
      7 OG        -47.6200  -35.0400   88.0600 O.3       1 SER1        0.0000 
      8 OG        -41.3400  -36.8700   85.9600 O.3       1 SER1        0.0000 
      9 OG        -39.3900  -36.0700   85.7500 O.3       1 SER1        0.0000 
     10 OG        -44.2900  -32.2100   87.0000 O.3       1 SER1        0.0000 
     11 OG        -44.8600  -30.9800   86.3600 O.3       1 SER1        0.0000 
     12 OG        -41.1900  -33.8700   88.0700 O.3       1 SER1        0.0000 
     13 N         -45.4800  -39.0700   81.9200 N.am      2 ALA2        0.0000 
     14 O         -49.3200  -35.2700   82.1100 O.2       2 ALA2        0.0000 
     15 N         -44.0100  -39.4500   83.4100 N.am      2 ALA2        0.0000 
     16 N         -44.5800  -38.2200   82.7700 N.am      2 ALA2        0.0000 
     17 N         -45.1600  -36.9900   82.1300 N.am      2 ALA2        0.0000 
     18 O         -47.8500  -35.6400   83.6000 O.2       2 ALA2        0.0000 
     19 O         -48.4300  -34.4100   82.9600 O.2       2 ALA2        0.0000 
     20 O         -48.9200  -35.5900   84.6600 O.2       2 ALA2        0.0000 
     21 N         -43.1200  -38.5900   84.2600 N.am      2 ALA2        0.0000 
     22 N         -43.6900  -37.3600   83.6200 N.am      2 ALA2        0.0000 
     23 N         -44.2700  -36.1300   82.9800 N.am      2 ALA2        0.0000 
     24 O         -44.8400  -34.9000   82.3400 O.2       2 ALA2        0.0000 
     25 N         -45.2500  -38.4700   86.3800 N.am      2 ALA2        0.0000 
     26 N         -46.8800  -37.1900   86.7900 N.am      2 ALA2        0.0000 
     27 N         -42.8000  -36.5000   84.4700 N.am      2 ALA2        0.0000 
     28 N         -43.9500  -34.0400   83.1900 N.am      2 ALA2        0.0000 
     29 N         -45.0100  -33.9900   84.2400 N.am      2 ALA2        0.0000 
     30 N         -46.7300  -30.3000   82.3200 N.am      2 ALA2        0.0000 
     31 N         -46.6400  -32.7000   84.6600 N.am      2 ALA2        0.0000 
     32 N         -47.2200  -31.4700   84.0200 N.am      2 ALA2        0.0000 
     33 N         -45.9900  -36.3300   87.6400 N.am      2 ALA2        0.0000 
     34 O         -47.0500  -36.2700   88.7000 O.2       2 ALA2        0.0000 
     35 O         -47.3000  -32.9600   88.2600 O.2       2 ALA2        0.0000 
     36 O         -42.0800  -34.7300   87.2200 O.2       2 ALA2        0.0000 
     37 N         -43.8000  -31.0400   85.3000 N.am      2 ALA2        0.0000 
     38 O         -43.1400  -34.6700   88.2800 O.2       2 ALA2        0.0000 
     39 O         -44.2100  -34.6100   89.3400 O.2       2 ALA2        0.0000 
     40 O         -45.8400  -33.3300   89.7500 O.2       2 ALA2        0.0000 
     41 O         -42.2500  -33.8100   89.1300 O.2       2 ALA2        0.0000 
     42 N         -40.8700  -31.7800   88.2800 N.am      2 ALA2        0.0000 
     43 OD1       -50.0400  -37.0400   79.3600 O.co2     3 ASP3        0.0000 
     44 OD1       -48.5700  -37.4200   80.8500 O.co2     3 ASP3        0.0000 
     45 OD1       -49.1500  -36.1900   80.2100 O.co2     3 ASP3        0.0000 
     46 OD1       -43.3700  -35.2700   83.8300 O.co2     3 ASP3        0.0000 
     47 OD1       -41.9100  -35.6400   85.3200 O.co2     3 ASP3        0.0000 
     48 OD1       -43.5500  -34.3600   85.7300 O.co2     3 ASP3        0.0000 
     49 OD1       -44.1200  -33.1300   85.0900 O.co2     3 ASP3        0.0000 
     50 OD1       -41.0200  -34.7900   86.1700 O.co2     3 ASP3        0.0000 
     51 OD1       -42.6500  -33.5000   86.5800 O.co2     3 ASP3        0.0000 
     52 OD1       -43.7200  -33.4400   87.6400 O.co2     3 ASP3        0.0000 
     53 OD1       -44.7800  -33.3800   88.7000 O.co2     3 ASP3        0.0000 
     54 OD1       -40.1300  -33.9300   87.0100 O.co2     3 ASP3        0.0000 
     55 OD1       -41.7600  -32.6400   87.4300 O.co2     3 ASP3        0.0000 
     56 OD1       -42.3400  -31.4100   86.7900 O.co2     3 ASP3        0.0000 
     57 OD1       -42.8300  -32.5800   88.4900 O.co2     3 ASP3        0.0000 
     58 OD1       -43.3200  -33.7600   90.1900 O.co2     3 ASP3        0.0000 
     59 OD1       -39.2400  -33.0700   87.8600 O.co2     3 ASP3        0.0000 
     60 OD1       -39.8100  -31.8400   87.2200 O.co2     3 ASP3        0.0000 
     61 OD1       -41.3600  -32.9500   89.9800 O.co2     3 ASP3        0.0000 
     62 NZ        -47.5100  -37.4700   79.7900 N.4       4 LYS4        0.0000 
     63 NZ        -48.0000  -38.6500   81.4900 N.4       4 LYS4        0.0000 
     64 NZ        -46.0500  -37.8400   81.2800 N.4       4 LYS4        0.0000 
     65 NZ        -46.6200  -36.6200   80.6400 N.4       4 LYS4        0.0000 
     66 CZ        -49.6400  -37.3600   81.9100 C.ar      5 PHE5        0.0000 
     67 CZ        -50.2100  -36.1300   81.2600 C.ar      5 PHE5        0.0000 
     68 CZ        -48.7400  -36.5000   82.7600 C.ar      5 PHE5        0.0000 
     69 CZ        -49.8900  -34.0400   81.4700 C.ar      5 PHE5        0.0000 
     70 CZ        -49.2300  -37.6700   84.4500 C.ar      5 PHE5        0.0000 
     71 CZ        -49.5700  -31.9600   81.6800 C.ar      5 PHE5        0.0000 
     72 CZ        -49.1700  -32.2700   84.2300 C.ar      5 PHE5        0.0000 
     73 CA        -50.5300  -38.2200   81.0600 C.3       6 GLY6        0.0000 
     74 CA        -47.6800  -36.5600   81.7000 C.3       6 GLY6        0.0000 
     75 CA        -48.2500  -35.3300   81.0600 C.3       6 GLY6        0.0000 
     76 CA        -45.7300  -35.7600   81.4900 C.3       6 GLY6        0.0000 
     77 CA        -46.7900  -35.7000   82.5500 C.3       6 GLY6        0.0000 
     78 CA        -47.3600  -34.4700   81.9000 C.3       6 GLY6        0.0000 
     79 CA        -49.0000  -33.1800   82.3200 C.3       6 GLY6        0.0000 
     80 CA        -47.7700  -38.0400   85.9400 C.3       6 GLY6        0.0000 
     81 CA        -48.3400  -36.8100   85.3000 C.3       6 GLY6        0.0000 
     82 CA        -44.1800  -38.5300   85.3200 C.3       6 GLY6        0.0000 
     83 CA        -46.4700  -33.6100   82.7500 C.3       6 GLY6        0.0000 
     84 CA        -47.0400  -32.3800   82.1100 C.3       6 GLY6        0.0000 
     85 CA        -47.6200  -31.1600   81.4700 C.3       6 GLY6        0.0000 
     86 CA        -45.8200  -37.2400   85.7400 C.3       6 GLY6        0.0000 
     87 CA        -48.6800  -31.1000   82.5300 C.3       6 GLY6        0.0000 
     88 CA        -47.9400  -37.1300   87.8500 C.3       6 GLY6        0.0000 
     89 CA        -43.2900  -37.6700   86.1700 C.3       6 GLY6        0.0000 
     90 CA        -43.8600  -36.4400   85.5300 C.3       6 GLY6        0.0000 
     91 CA        -44.9300  -36.3900   86.5800 C.3       6 GLY6        0.0000 
     92 CA        -47.7900  -30.2400   83.3800 C.3       6 GLY6        0.0000 
     93 CA        -48.2800  -31.4100   85.0800 C.3       6 GLY6        0.0000 
     94 CA        -42.9700  -35.5900   86.3800 C.3       6 GLY6        0.0000 
     95 CA        -44.0400  -35.5300   87.4300 C.3       6 GLY6        0.0000 
     96 CA        -45.1800  -33.0700   86.1500 C.3       6 GLY6        0.0000 
     97 CA        -45.7500  -31.8400   85.5100 C.3       6 GLY6        0.0000 
     98 CA        -46.3200  -30.6100   84.8700 C.3       6 GLY6        0.0000 
     99 CA        -45.1000  -35.4700   88.4900 C.3       6 GLY6        0.0000 
    100 CA        -46.2400  -33.0100   87.2100 C.3       6 GLY6        0.0000 
    101 CA        -46.7300  -34.1800   88.9100 C.3       6 GLY6        0.0000 
    102 DU        -49.0600  -38.5900   82.5500 H         7 CUB7        0.0000 
    103 DU        -46.5400  -39.0200   82.9800 H         7 CUB7        0.0000 
    104 DU        -47.1100  -37.7900   82.3400 H         7 CUB7        0.0000 
    105 DU        -48.1700  -37.7300   83.4000 H         7 CUB7        0.0000 
    106 DU        -45.6500  -38.1600   83.8300 H         7 CUB7        0.0000 
    107 DU        -46.2200  -36.9300   83.1900 H         7 CUB7        0.0000 
    108 DU        -46.7100  -38.1000   84.8900 H         7 CUB7        0.0000 
    109 DU        -47.2800  -36.8700   84.2500 H         7 CUB7        0.0000 
    110 DU        -44.7600  -37.3000   84.6800 H         7 CUB7        0.0000 
    111 DU        -45.3300  -36.0700   84.0400 H         7 CUB7        0.0000 
    112 DU        -45.9000  -34.8400   83.3900 H         7 CUB7        0.0000 
    113 DU        -46.3900  -36.0100   85.0900 H         7 CUB7        0.0000 
    114 DU        -46.9600  -34.7900   84.4500 H         7 CUB7        0.0000 
    115 DU        -47.5300  -33.5600   83.8100 H         7 CUB7        0.0000 
    116 DU        -48.1100  -32.3300   83.1700 H         7 CUB7        0.0000 
    117 DU        -44.4400  -35.2100   84.8800 H         7 CUB7        0.0000 
    118 DU        -45.5000  -35.1600   85.9400 H         7 CUB7        0.0000 
    119 DU        -46.0700  -33.9300   85.3000 H         7 CUB7        0.0000 
    120 DU        -44.6100  -34.3000   86.7900 H         7 CUB7        0.0000 
    121 DU        -45.6700  -34.2400   87.8500 H         7 CUB7        0.0000 
@<TRIPOS>BOND
@<TRIPOS>SUBSTRUCTURE
     1 SER1        1 GROUP   
     2 ALA2       13 GROUP   
     3 ASP3       43 GROUP   
     4 LYS4       62 GROUP   
     5 PHE5       66 GROUP   
     6 GLY6       73 GROUP   
     7 CUB7      102 GROUP   
@<TRIPOS>SET

