#    Name: 5oin_3_NAD
#    Modification time : Fri May 22 19:12:16 2020

@<TRIPOS>MOLECULE
5oin_3_NAD
   44    48     1     0     1
SMALL
NO_CHARGES


@<TRIPOS>ATOM
      1 PA        -52.6820    0.3870  -34.9340 P.3       1 NAD302      0.0000 
      2 O1A       -54.0620    0.3030  -35.4770 O.co2     1 NAD302      0.0000 
      3 O2A       -51.7720   -0.6970  -35.5570 O.co2     1 NAD302      0.0000 
      4 O5B       -52.6950    0.2750  -33.3280 O.3       1 NAD302      0.0000 
      5 C5B       -53.8130    0.5730  -32.4700 C.3       1 NAD302      0.0000 
      6 C4B       -54.0620   -0.6600  -31.6470 C.3       1 NAD302      0.0000 
      7 O4B       -55.1090   -0.4310  -30.6740 O.3       1 NAD302      0.0000 
      8 C3B       -54.4780   -1.8940  -32.4550 C.3       1 NAD302      0.0000 
      9 O3B       -53.6030   -2.9800  -32.1790 O.3       1 NAD302      0.0000 
     10 C2B       -55.9060   -2.1630  -31.9780 C.3       1 NAD302      0.0000 
     11 O2B       -56.3100   -3.5290  -32.0550 O.3       1 NAD302      0.0000 
     12 C1B       -55.8170   -1.6410  -30.5590 C.3       1 NAD302      0.0000 
     13 N9A       -57.1100   -1.4490  -29.9090 N.pl3     1 NAD302      0.0000 
     14 C8A       -58.2080   -0.7840  -30.3880 C.2       1 NAD302      0.0000 
     15 N7A       -59.2490   -0.8260  -29.5900 N.2       1 NAD302      0.0000 
     16 C5A       -58.8050   -1.5720  -28.5080 C.ar      1 NAD302      0.0000 
     17 C6A       -59.4390   -2.0010  -27.3250 C.ar      1 NAD302      0.0000 
     18 N6A       -60.7100   -1.7310  -27.0240 N.pl3     1 NAD302      0.0000 
     19 N1A       -58.7150   -2.7440  -26.4540 N.ar      1 NAD302      0.0000 
     20 C2A       -57.4410   -3.0310  -26.7560 C.ar      1 NAD302      0.0000 
     21 N3A       -56.7380   -2.6870  -27.8400 N.ar      1 NAD302      0.0000 
     22 C4A       -57.4830   -1.9570  -28.6860 C.ar      1 NAD302      0.0000 
     23 O3        -51.9940    1.7750  -35.2990 O.3       1 NAD302      0.0000 
     24 PN        -50.6750    2.4430  -34.6880 P.3       1 NAD302      0.0000 
     25 O1N       -49.6270    1.4150  -34.4780 O.co2     1 NAD302      0.0000 
     26 O2N       -50.3760    3.6450  -35.4950 O.co2     1 NAD302      0.0000 
     27 O5D       -51.2270    2.9590  -33.2920 O.3       1 NAD302      0.0000 
     28 C5D       -50.5540    2.6170  -32.0670 C.3       1 NAD302      0.0000 
     29 C4D       -50.5520    3.7870  -31.1130 C.3       1 NAD302      0.0000 
     30 O4D       -49.5810    4.7800  -31.5270 O.3       1 NAD302      0.0000 
     31 C3D       -51.8770    4.5300  -30.9590 C.3       1 NAD302      0.0000 
     32 O3D       -51.9960    4.9750  -29.6100 O.3       1 NAD302      0.0000 
     33 C2D       -51.6990    5.7000  -31.9200 C.3       1 NAD302      0.0000 
     34 O2D       -52.5570    6.7600  -31.5440 O.3       1 NAD302      0.0000 
     35 C1D       -50.2190    6.0120  -31.7000 C.3       1 NAD302      0.0000 
     36 N1N       -49.5060    6.7670  -32.8130 N.pl3     1 NAD302      0.0000 
     37 C2N       -49.5820    6.4870  -34.1280 C.ar      1 NAD302      0.0000 
     38 C3N       -48.8780    7.2510  -35.0400 C.ar      1 NAD302      0.0000 
     39 C7N       -48.9110    6.9960  -36.5190 C.2       1 NAD302      0.0000 
     40 O7N       -48.5900    7.9030  -37.2990 O.2       1 NAD302      0.0000 
     41 N7N       -49.2870    5.7950  -36.9380 N.am      1 NAD302      0.0000 
     42 C4N       -48.0980    8.3080  -34.5650 C.ar      1 NAD302      0.0000 
     43 C5N       -48.0410    8.5710  -33.2090 C.ar      1 NAD302      0.0000 
     44 C6N       -48.7570    7.7840  -32.3370 C.ar      1 NAD302      0.0000 
@<TRIPOS>BOND
     1    1    2 ar   
     2    1    3 ar   
     3    1    4 1    
     4    1   23 1    
     5    4    5 1    
     6    5    6 1    
     7    6    7 1    
     8    6    8 1    
     9    7   12 1    
    10    8    9 1    
    11    8   10 1    
    12   10   11 1    
    13   10   12 1    
    14   12   13 1    
    15   13   14 1    
    16   13   22 1    
    17   14   15 2    
    18   15   16 1    
    19   16   17 ar   
    20   16   22 ar   
    21   17   18 1    
    22   17   19 ar   
    23   19   20 ar   
    24   20   21 ar   
    25   21   22 ar   
    26   23   24 1    
    27   24   25 ar   
    28   24   26 ar   
    29   24   27 1    
    30   27   28 1    
    31   28   29 1    
    32   29   30 1    
    33   29   31 1    
    34   30   35 1    
    35   31   32 1    
    36   31   33 1    
    37   33   34 1    
    38   33   35 1    
    39   35   36 1    
    40   36   37 ar   
    41   36   44 ar   
    42   37   38 ar   
    43   38   39 1    
    44   38   42 ar   
    45   39   40 2    
    46   39   41 am   
    47   42   43 ar   
    48   43   44 ar   
@<TRIPOS>SUBSTRUCTURE
     1 NAD302      1 GROUP   
@<TRIPOS>SET
ATOM$ORANGE STATIC     ATOMS   COLORGROUP SYSTEM 
42 5 5 6 6 8 8 10 10 12 12 14 14 16 16 17 17 20 \
20 22 22 28 28 29 29 31 31 33 33 35 35 37 37 38 38 39 \
39 42 42 43 43 44 44 

