#    Name: 5oin_4_NAD
#    Modification time : Fri May 22 19:12:21 2020

@<TRIPOS>MOLECULE
5oin_4_NAD
   44    48     1     0     1
SMALL
NO_CHARGES


@<TRIPOS>ATOM
      1 PA        -38.4570   49.2280  -35.4720 P.3       1 NAD302      0.0000 
      2 O1A       -37.1510   49.3090  -36.1640 O.co2     1 NAD302      0.0000 
      3 O2A       -39.3860   50.3710  -35.9030 O.co2     1 NAD302      0.0000 
      4 O5B       -38.2840   49.1970  -33.8650 O.3       1 NAD302      0.0000 
      5 C5B       -37.0690   48.9180  -33.1320 C.3       1 NAD302      0.0000 
      6 C4B       -36.6990   50.1310  -32.3150 C.3       1 NAD302      0.0000 
      7 O4B       -35.5010   49.8990  -31.5420 O.3       1 NAD302      0.0000 
      8 C3B       -36.4490   51.4190  -33.1120 C.3       1 NAD302      0.0000 
      9 O3B       -37.4270   52.3920  -32.7720 O.3       1 NAD302      0.0000 
     10 C2B       -35.0560   51.8730  -32.6530 C.3       1 NAD302      0.0000 
     11 O2B       -34.9550   53.2920  -32.5710 O.3       1 NAD302      0.0000 
     12 C1B       -34.9530   51.1700  -31.3080 C.3       1 NAD302      0.0000 
     13 N9A       -33.6060   51.0470  -30.7690 N.pl3     1 NAD302      0.0000 
     14 C8A       -32.5250   50.4290  -31.3410 C.2       1 NAD302      0.0000 
     15 N7A       -31.4300   50.4920  -30.6230 N.2       1 NAD302      0.0000 
     16 C5A       -31.8160   51.2020  -29.4960 C.ar      1 NAD302      0.0000 
     17 C6A       -31.1140   51.6140  -28.3440 C.ar      1 NAD302      0.0000 
     18 N6A       -29.8150   51.3600  -28.1330 N.pl3     1 NAD302      0.0000 
     19 N1A       -31.7980   52.3080  -27.4010 N.ar      1 NAD302      0.0000 
     20 C2A       -33.0960   52.5680  -27.6080 C.ar      1 NAD302      0.0000 
     21 N3A       -33.8600   52.2340  -28.6560 N.ar      1 NAD302      0.0000 
     22 C4A       -33.1570   51.5490  -29.5710 C.ar      1 NAD302      0.0000 
     23 O3        -39.2270   47.8830  -35.8390 O.3       1 NAD302      0.0000 
     24 PN        -40.4700   47.1920  -35.1070 P.3       1 NAD302      0.0000 
     25 O1N       -41.4420   48.2420  -34.7120 O.co2     1 NAD302      0.0000 
     26 O2N       -40.9170   46.0560  -35.9440 O.co2     1 NAD302      0.0000 
     27 O5D       -39.7680   46.5510  -33.8300 O.3       1 NAD302      0.0000 
     28 C5D       -40.2090   46.9230  -32.5080 C.3       1 NAD302      0.0000 
     29 C4D       -40.1600   45.7380  -31.5790 C.3       1 NAD302      0.0000 
     30 O4D       -41.1960   44.8020  -31.9430 O.3       1 NAD302      0.0000 
     31 C3D       -38.8520   44.9460  -31.5630 C.3       1 NAD302      0.0000 
     32 O3D       -38.5700   44.5480  -30.2280 O.3       1 NAD302      0.0000 
     33 C2D       -39.1760   43.7360  -32.4360 C.3       1 NAD302      0.0000 
     34 O2D       -38.3590   42.6260  -32.0940 O.3       1 NAD302      0.0000 
     35 C1D       -40.6480   43.5250  -32.0950 C.3       1 NAD302      0.0000 
     36 N1N       -41.4870   42.7680  -33.1110 N.pl3     1 NAD302      0.0000 
     37 C2N       -41.4750   42.9940  -34.4390 C.ar      1 NAD302      0.0000 
     38 C3N       -42.2950   42.2570  -35.2780 C.ar      1 NAD302      0.0000 
     39 C7N       -42.3150   42.4880  -36.7630 C.2       1 NAD302      0.0000 
     40 O7N       -42.7020   41.5810  -37.5140 O.2       1 NAD302      0.0000 
     41 N7N       -41.9120   43.6680  -37.2160 N.am      1 NAD302      0.0000 
     42 C4N       -43.1230   41.2820  -34.7190 C.ar      1 NAD302      0.0000 
     43 C5N       -43.1130   41.0700  -33.3530 C.ar      1 NAD302      0.0000 
     44 C6N       -42.2800   41.8310  -32.5550 C.ar      1 NAD302      0.0000 
@<TRIPOS>BOND
     1    1   23 1    
     2    4    5 1    
     3    5    6 1    
     4    6    7 1    
     5    6    8 1    
     6    7   12 1    
     7    8    9 1    
     8    8   10 1    
     9   10   11 1    
    10   10   12 1    
    11   12   13 1    
    12   13   14 1    
    13   13   22 1    
    14   14   15 2    
    15   15   16 1    
    16   16   17 ar   
    17   16   22 ar   
    18   17   18 1    
    19   17   19 ar   
    20   19   20 ar   
    21   20   21 ar   
    22   21   22 ar   
    23   23   24 1    
    24   24   25 ar   
    25   24   26 ar   
    26   24   27 1    
    27   27   28 1    
    28   28   29 1    
    29   29   30 1    
    30   29   31 1    
    31   30   35 1    
    32   31   32 1    
    33   31   33 1    
    34   33   34 1    
    35   33   35 1    
    36   35   36 1    
    37   36   37 ar   
    38   36   44 ar   
    39   37   38 ar   
    40   38   39 1    
    41   38   42 ar   
    42   39   40 2    
    43   39   41 am   
    44   42   43 ar   
    45   43   44 ar   
    46    1    2 ar   
    47    1    3 ar   
    48    1    4 1    
@<TRIPOS>SUBSTRUCTURE
     1 NAD302      1 GROUP   
@<TRIPOS>SET
ATOM$ORANGE STATIC     ATOMS   COLORGROUP SYSTEM 
42 5 5 6 6 8 8 10 10 12 12 14 14 16 16 17 17 20 \
20 22 22 28 28 29 29 31 31 33 33 35 35 37 37 38 38 39 \
39 42 42 43 43 44 44 

