#    Name: 5oin_2_NAD
#    Modification time : Fri May 22 19:12:11 2020

@<TRIPOS>MOLECULE
5oin_2_NAD
   44    48     1     0     1
SMALL
NO_CHARGES


@<TRIPOS>ATOM
      1 PA        -70.0630   26.6010  -10.3380 P.3       1 NAD302      0.0000 
      2 O1A       -70.6150   25.3260   -9.7980 O.co2     1 NAD302      0.0000 
      3 O2A       -70.7120   27.8340   -9.6850 O.co2     1 NAD302      0.0000 
      4 O5B       -70.2220   26.6880  -11.9500 O.3       1 NAD302      0.0000 
      5 C5B       -70.2780   25.5590  -12.8480 C.3       1 NAD302      0.0000 
      6 C4B       -71.6170   25.5610  -13.5380 C.3       1 NAD302      0.0000 
      7 O4B       -71.7860   24.3950  -14.3740 O.3       1 NAD302      0.0000 
      8 C3B       -72.8510   25.6240  -12.6300 C.3       1 NAD302      0.0000 
      9 O3B       -73.5030   26.8680  -12.8390 O.3       1 NAD302      0.0000 
     10 C2B       -73.6940   24.4230  -13.0750 C.3       1 NAD302      0.0000 
     11 O2B       -75.1110   24.5980  -13.0590 O.3       1 NAD302      0.0000 
     12 C1B       -73.1720   24.2100  -14.4820 C.3       1 NAD302      0.0000 
     13 N9A       -73.4660   22.8960  -15.0260 N.pl3     1 NAD302      0.0000 
     14 C8A       -73.1220   21.6730  -14.5120 C.2       1 NAD302      0.0000 
     15 N7A       -73.5570   20.6580  -15.2170 N.2       1 NAD302      0.0000 
     16 C5A       -74.2320   21.2530  -16.2710 C.ar      1 NAD302      0.0000 
     17 C6A       -74.9220   20.7250  -17.3760 C.ar      1 NAD302      0.0000 
     18 N6A       -75.0630   19.4170  -17.6040 N.pl3     1 NAD302      0.0000 
     19 N1A       -75.4770   21.5970  -18.2490 N.ar      1 NAD302      0.0000 
     20 C2A       -75.3450   22.9090  -18.0210 C.ar      1 NAD302      0.0000 
     21 N3A       -74.7220   23.5240  -17.0140 N.ar      1 NAD302      0.0000 
     22 C4A       -74.1830   22.6350  -16.1670 C.ar      1 NAD302      0.0000 
     23 O3        -68.5010   26.7350  -10.0250 O.3       1 NAD302      0.0000 
     24 PN        -67.3880   27.7890  -10.4950 P.3       1 NAD302      0.0000 
     25 O1N       -67.9620   29.1460  -10.6730 O.co2     1 NAD302      0.0000 
     26 O2N       -66.2160   27.6070   -9.6100 O.co2     1 NAD302      0.0000 
     27 O5D       -66.9880   27.1830  -11.9090 O.3       1 NAD302      0.0000 
     28 C5D       -67.3050   27.8250  -13.1560 C.3       1 NAD302      0.0000 
     29 C4D       -66.2490   27.4550  -14.1680 C.3       1 NAD302      0.0000 
     30 O4D       -64.9670   28.0070  -13.7870 O.3       1 NAD302      0.0000 
     31 C3D       -66.0260   25.9560  -14.3640 C.3       1 NAD302      0.0000 
     32 O3D       -65.8680   25.7230  -15.7590 O.3       1 NAD302      0.0000 
     33 C2D       -64.7510   25.6980  -13.5620 C.3       1 NAD302      0.0000 
     34 O2D       -64.0670   24.5530  -14.0400 O.3       1 NAD302      0.0000 
     35 C1D       -64.0000   26.9970  -13.8250 C.3       1 NAD302      0.0000 
     36 N1N       -62.9110   27.3490  -12.8600 N.pl3     1 NAD302      0.0000 
     37 C2N       -63.1350   27.5220  -11.5450 C.ar      1 NAD302      0.0000 
     38 C3N       -62.0920   27.8630  -10.6990 C.ar      1 NAD302      0.0000 
     39 C7N       -62.3640   28.0680   -9.2210 C.2       1 NAD302      0.0000 
     40 O7N       -61.3970   28.1740   -8.4180 O.2       1 NAD302      0.0000 
     41 N7N       -63.6390   28.1290   -8.8250 N.am      1 NAD302      0.0000 
     42 C4N       -60.8110   28.0170  -11.2450 C.ar      1 NAD302      0.0000 
     43 C5N       -60.6120   27.8300  -12.6040 C.ar      1 NAD302      0.0000 
     44 C6N       -61.6880   27.4920  -13.4080 C.ar      1 NAD302      0.0000 
@<TRIPOS>BOND
     1    1    2 ar   
     2    1    3 ar   
     3    1    4 1    
     4    1   23 1    
     5    4    5 1    
     6    5    6 1    
     7    6    7 1    
     8    6    8 1    
     9    7   12 1    
    10    8    9 1    
    11    8   10 1    
    12   10   11 1    
    13   10   12 1    
    14   12   13 1    
    15   13   14 1    
    16   13   22 1    
    17   14   15 2    
    18   15   16 1    
    19   16   17 ar   
    20   16   22 ar   
    21   17   18 1    
    22   17   19 ar   
    23   19   20 ar   
    24   20   21 ar   
    25   21   22 ar   
    26   23   24 1    
    27   24   25 ar   
    28   24   26 ar   
    29   24   27 1    
    30   27   28 1    
    31   28   29 1    
    32   29   30 1    
    33   29   31 1    
    34   30   35 1    
    35   31   32 1    
    36   31   33 1    
    37   33   34 1    
    38   33   35 1    
    39   35   36 1    
    40   36   37 ar   
    41   36   44 ar   
    42   37   38 ar   
    43   38   39 1    
    44   38   42 ar   
    45   39   40 2    
    46   39   41 am   
    47   42   43 ar   
    48   43   44 ar   
@<TRIPOS>SUBSTRUCTURE
     1 NAD302      1 GROUP   
@<TRIPOS>SET
ATOM$ORANGE STATIC     ATOMS   COLORGROUP SYSTEM 
42 5 5 6 6 8 8 10 10 12 12 14 14 16 16 17 17 20 \
20 22 22 28 28 29 29 31 31 33 33 35 35 37 37 38 38 39 \
39 42 42 43 43 44 44 

