#    Name: 5oin_1_NAD
#    Modification time : Fri May 22 19:12:05 2020

@<TRIPOS>MOLECULE
5oin_1_NAD
   44    48     1     0     1
SMALL
NO_CHARGES


@<TRIPOS>ATOM
      1 PA        -19.1440   22.6650  -12.3740 P.3       1 NAD301      0.0000 
      2 O1A       -18.4650   23.5340  -11.3810 O.co2     1 NAD301      0.0000 
      3 O2A       -18.4910   21.3140  -12.3550 O.co2     1 NAD301      0.0000 
      4 O5B       -19.1930   23.1960  -13.8590 O.3       1 NAD301      0.0000 
      5 C5B       -18.7880   24.4680  -14.3990 C.3       1 NAD301      0.0000 
      6 C4B       -17.7390   24.1750  -15.4400 C.3       1 NAD301      0.0000 
      7 O4B       -17.6900   25.2420  -16.4110 O.3       1 NAD301      0.0000 
      8 C3B       -16.3190   24.0240  -14.8730 C.3       1 NAD301      0.0000 
      9 O3B       -15.7480   22.7720  -15.2190 O.3       1 NAD301      0.0000 
     10 C2B       -15.5610   25.2080  -15.4770 C.3       1 NAD301      0.0000 
     11 O2B       -14.1720   24.9360  -15.6640 O.3       1 NAD301      0.0000 
     12 C1B       -16.3440   25.4210  -16.7700 C.3       1 NAD301      0.0000 
     13 N9A       -16.1530   26.7370  -17.3750 N.pl3     1 NAD301      0.0000 
     14 C8A       -16.5690   27.9530  -16.9000 C.2       1 NAD301      0.0000 
     15 N7A       -16.2160   28.9700  -17.6490 N.2       1 NAD301      0.0000 
     16 C5A       -15.5210   28.3820  -18.6960 C.ar      1 NAD301      0.0000 
     17 C6A       -14.8790   28.9150  -19.8350 C.ar      1 NAD301      0.0000 
     18 N6A       -14.8190   30.2220  -20.1160 N.pl3     1 NAD301      0.0000 
     19 N1A       -14.2820   28.0500  -20.6880 N.ar      1 NAD301      0.0000 
     20 C2A       -14.3260   26.7410  -20.4120 C.ar      1 NAD301      0.0000 
     21 N3A       -14.8940   26.1230  -19.3710 N.ar      1 NAD301      0.0000 
     22 C4A       -15.4780   27.0040  -18.5430 C.ar      1 NAD301      0.0000 
     23 O3        -20.6620   22.3910  -11.9660 O.3       1 NAD301      0.0000 
     24 PN        -21.8950   21.5710  -12.5730 P.3       1 NAD301      0.0000 
     25 O1N       -21.4790   20.1880  -12.9060 O.co2     1 NAD301      0.0000 
     26 O2N       -23.0510   21.7810  -11.6720 O.co2     1 NAD301      0.0000 
     27 O5D       -22.1740   22.3930  -13.9110 O.3       1 NAD301      0.0000 
     28 C5D       -22.0370   21.7780  -15.2110 C.3       1 NAD301      0.0000 
     29 C4D       -23.1820   22.1730  -16.1200 C.3       1 NAD301      0.0000 
     30 O4D       -24.4230   21.6190  -15.6240 O.3       1 NAD301      0.0000 
     31 C3D       -23.4350   23.6740  -16.2930 C.3       1 NAD301      0.0000 
     32 O3D       -23.8390   23.9430  -17.6320 O.3       1 NAD301      0.0000 
     33 C2D       -24.5900   23.9260  -15.3230 C.3       1 NAD301      0.0000 
     34 O2D       -25.3350   25.0910  -15.6430 O.3       1 NAD301      0.0000 
     35 C1D       -25.3770   22.6410  -15.5320 C.3       1 NAD301      0.0000 
     36 N1N       -26.3670   22.2770  -14.4590 N.pl3     1 NAD301      0.0000 
     37 C2N       -26.0830   22.1650  -13.1510 C.ar      1 NAD301      0.0000 
     38 C3N       -27.0770   21.8150  -12.2520 C.ar      1 NAD301      0.0000 
     39 C7N       -26.8070   21.6700  -10.7790 C.2       1 NAD301      0.0000 
     40 O7N       -27.7600   21.7140   -9.9780 O.2       1 NAD301      0.0000 
     41 N7N       -25.5400   21.5000  -10.3890 N.am      1 NAD301      0.0000 
     42 C4N       -28.3670   21.5860  -12.7400 C.ar      1 NAD301      0.0000 
     43 C5N       -28.6270   21.7090  -14.0910 C.ar      1 NAD301      0.0000 
     44 C6N       -27.6070   22.0580  -14.9450 C.ar      1 NAD301      0.0000 
@<TRIPOS>BOND
     1    1    2 ar   
     2    1    3 ar   
     3    1    4 1    
     4    1   23 1    
     5    4    5 1    
     6    5    6 1    
     7    6    7 1    
     8    6    8 1    
     9    7   12 1    
    10    8    9 1    
    11    8   10 1    
    12   10   11 1    
    13   10   12 1    
    14   12   13 1    
    15   13   14 1    
    16   13   22 1    
    17   14   15 2    
    18   15   16 1    
    19   16   17 ar   
    20   16   22 ar   
    21   17   18 1    
    22   17   19 ar   
    23   19   20 ar   
    24   20   21 ar   
    25   21   22 ar   
    26   23   24 1    
    27   24   25 ar   
    28   24   26 ar   
    29   24   27 1    
    30   27   28 1    
    31   28   29 1    
    32   29   30 1    
    33   29   31 1    
    34   30   35 1    
    35   31   32 1    
    36   31   33 1    
    37   33   34 1    
    38   33   35 1    
    39   35   36 1    
    40   36   37 ar   
    41   36   44 ar   
    42   37   38 ar   
    43   38   39 1    
    44   38   42 ar   
    45   39   40 2    
    46   39   41 am   
    47   42   43 ar   
    48   43   44 ar   
@<TRIPOS>SUBSTRUCTURE
     1 NAD301      1 GROUP   
@<TRIPOS>SET
ATOM$ORANGE STATIC     ATOMS   COLORGROUP SYSTEM 
42 5 5 6 6 8 8 10 10 12 12 14 14 16 16 17 17 20 \
20 22 22 28 28 29 29 31 31 33 33 35 35 37 37 38 38 39 \
39 42 42 43 43 44 44 

