#    Name: 5yjl_1_NAP
#    Modification time : Fri May 22 19:26:32 2020

@<TRIPOS>MOLECULE
5yjl_1_NAP
   48    52     1     0     1
SMALL
NO_CHARGES


@<TRIPOS>ATOM
      1 PA         53.0630  -43.7470  -25.7080 P.3       1 NAP601      0.0000 
      2 O1A        54.2350  -43.0560  -26.3030 O.co2     1 NAP601      0.0000 
      3 O2A        52.2910  -44.5260  -26.7160 O.co2     1 NAP601      0.0000 
      4 O5B        53.5730  -44.7690  -24.5730 O.3       1 NAP601      0.0000 
      5 C5B        52.8080  -45.0410  -23.4330 C.3       1 NAP601      0.0000 
      6 C4B        53.7100  -45.7200  -22.4230 C.3       1 NAP601      0.0000 
      7 O4B        52.9040  -46.4300  -21.5130 O.3       1 NAP601      0.0000 
      8 C3B        54.6380  -46.7250  -23.0810 C.3       1 NAP601      0.0000 
      9 O3B        55.8930  -46.6310  -22.4500 O.3       1 NAP601      0.0000 
     10 C2B        54.0210  -48.0830  -22.8120 C.3       1 NAP601      0.0000 
     11 O2B        55.0030  -49.0700  -22.5750 O.3       1 NAP601      0.0000 
     12 C1B        53.2350  -47.8040  -21.5490 C.3       1 NAP601      0.0000 
     13 N9A        51.9820  -48.5520  -21.4500 N.pl3     1 NAP601      0.0000 
     14 C8A        50.9950  -48.6710  -22.3970 C.2       1 NAP601      0.0000 
     15 N7A        50.0070  -49.4220  -21.8600 N.2       1 NAP601      0.0000 
     16 C5A        50.3540  -49.7650  -20.5980 C.ar      1 NAP601      0.0000 
     17 C6A        49.7190  -50.5100  -19.6200 C.ar      1 NAP601      0.0000 
     18 N6A        48.5270  -51.0420  -19.8760 N.pl3     1 NAP601      0.0000 
     19 N1A        50.3220  -50.6850  -18.3930 N.ar      1 NAP601      0.0000 
     20 C2A        51.5610  -50.1370  -18.1400 C.ar      1 NAP601      0.0000 
     21 N3A        52.1940  -49.4000  -19.1190 N.ar      1 NAP601      0.0000 
     22 C4A        51.5950  -49.2210  -20.3250 C.ar      1 NAP601      0.0000 
     23 O3         52.0960  -42.7290  -24.9260 O.3       1 NAP601      0.0000 
     24 PN         52.3020  -41.1990  -24.4570 P.3       1 NAP601      0.0000 
     25 O1N        53.5890  -41.1250  -23.7280 O.co2     1 NAP601      0.0000 
     26 O2N        52.0600  -40.2960  -25.5950 O.co2     1 NAP601      0.0000 
     27 O5D        51.0610  -40.9940  -23.4280 O.3       1 NAP601      0.0000 
     28 C5D        51.1330  -41.4810  -22.1000 C.3       1 NAP601      0.0000 
     29 C4D        50.0400  -40.9270  -21.1940 C.3       1 NAP601      0.0000 
     30 O4D        50.1670  -39.5200  -21.0160 O.3       1 NAP601      0.0000 
     31 C3D        48.6730  -41.1780  -21.7990 C.3       1 NAP601      0.0000 
     32 O3D        47.7560  -41.4260  -20.7480 O.3       1 NAP601      0.0000 
     33 C2D        48.3610  -39.8620  -22.4910 C.3       1 NAP601      0.0000 
     34 O2D        46.9690  -39.6750  -22.5900 O.3       1 NAP601      0.0000 
     35 C1D        49.0600  -38.8330  -21.5930 C.3       1 NAP601      0.0000 
     36 N1N        49.4720  -37.5780  -22.2930 N.pl3     1 NAP601      0.0000 
     37 C2N        49.5920  -37.5510  -23.6540 C.ar      1 NAP601      0.0000 
     38 C3N        49.9920  -36.3940  -24.3340 C.ar      1 NAP601      0.0000 
     39 C7N        50.6560  -36.5570  -25.6750 C.2       1 NAP601      0.0000 
     40 O7N        50.6760  -35.4600  -26.5470 O.2       1 NAP601      0.0000 
     41 N7N        51.2100  -37.7230  -26.0190 N.am      1 NAP601      0.0000 
     42 C4N        50.2480  -35.2260  -23.6210 C.ar      1 NAP601      0.0000 
     43 C5N        50.1260  -35.2510  -22.2320 C.ar      1 NAP601      0.0000 
     44 C6N        49.7540  -36.4320  -21.5820 C.ar      1 NAP601      0.0000 
     45 P2B        55.7630  -49.8000  -23.8020 P.3       1 NAP601      0.0000 
     46 O1X        56.5060  -51.0120  -23.2790 O.co2     1 NAP601      0.0000 
     47 O2X        56.7690  -48.8650  -24.4170 O.co2     1 NAP601      0.0000 
     48 O3X        54.7230  -50.2000  -24.8250 O.co2     1 NAP601      0.0000 
@<TRIPOS>BOND
     1    1    2 ar   
     2    1    3 ar   
     3    1    4 1    
     4    1   23 1    
     5    4    5 1    
     6    5    6 1    
     7    6    7 1    
     8    6    8 1    
     9    7   12 1    
    10    8    9 1    
    11    8   10 1    
    12   10   11 1    
    13   10   12 1    
    14   11   45 1    
    15   12   13 1    
    16   13   14 1    
    17   13   22 1    
    18   14   15 2    
    19   15   16 1    
    20   16   17 ar   
    21   16   22 ar   
    22   17   18 1    
    23   17   19 ar   
    24   19   20 ar   
    25   20   21 ar   
    26   21   22 ar   
    27   23   24 1    
    28   24   25 ar   
    29   24   26 ar   
    30   24   27 1    
    31   27   28 1    
    32   28   29 1    
    33   29   30 1    
    34   29   31 1    
    35   30   35 1    
    36   31   32 1    
    37   31   33 1    
    38   33   34 1    
    39   33   35 1    
    40   35   36 1    
    41   36   37 ar   
    42   36   44 ar   
    43   37   38 ar   
    44   38   39 1    
    45   38   42 ar   
    46   39   40 2    
    47   39   41 am   
    48   42   43 ar   
    49   43   44 ar   
    50   45   46 ar   
    51   45   47 ar   
    52   45   48 ar   
@<TRIPOS>SUBSTRUCTURE
     1 NAP601      1 GROUP   
@<TRIPOS>SET
ATOM$ORANGE STATIC     ATOMS   COLORGROUP SYSTEM 
42 5 5 6 6 8 8 10 10 12 12 14 14 16 16 17 17 20 \
20 22 22 28 28 29 29 31 31 33 33 35 35 37 37 38 38 39 \
39 42 42 43 43 44 44 

