#    Name: 5yjl_2_NAP
#    Modification time : Fri May 22 19:26:36 2020

@<TRIPOS>MOLECULE
5yjl_2_NAP
   48    52     1     0     1
SMALL
NO_CHARGES


@<TRIPOS>ATOM
      1 PA         -3.9130   21.5450  -81.0910 P.3       1 NAP601      0.0000 
      2 O1A        -5.0100   20.7700  -80.4690 O.co2     1 NAP601      0.0000 
      3 O2A        -3.0080   20.6590  -81.8570 O.co2     1 NAP601      0.0000 
      4 O5B        -4.5020   22.6790  -82.0850 O.3       1 NAP601      0.0000 
      5 C5B        -3.7340   23.8240  -82.3690 C.3       1 NAP601      0.0000 
      6 C4B        -4.5500   24.9950  -82.9050 C.3       1 NAP601      0.0000 
      7 O4B        -3.6600   25.9500  -83.4570 O.3       1 NAP601      0.0000 
      8 C3B        -5.4920   24.6020  -84.0330 C.3       1 NAP601      0.0000 
      9 O3B        -6.6750   25.3330  -83.8570 O.3       1 NAP601      0.0000 
     10 C2B        -4.7820   25.0470  -85.3120 C.3       1 NAP601      0.0000 
     11 O2B        -5.6640   25.4000  -86.3630 O.3       1 NAP601      0.0000 
     12 C1B        -3.9920   26.2380  -84.8070 C.3       1 NAP601      0.0000 
     13 N9A        -2.7820   26.4980  -85.6070 N.pl3     1 NAP601      0.0000 
     14 C8A        -1.7890   25.6060  -85.9330 C.2       1 NAP601      0.0000 
     15 N7A        -0.8560   26.2540  -86.6610 N.2       1 NAP601      0.0000 
     16 C5A        -1.2290   27.5500  -86.8040 C.ar      1 NAP601      0.0000 
     17 C6A        -0.6420   28.6310  -87.4580 C.ar      1 NAP601      0.0000 
     18 N6A         0.5250   28.4950  -88.0970 N.pl3     1 NAP601      0.0000 
     19 N1A        -1.2830   29.8580  -87.4310 N.ar      1 NAP601      0.0000 
     20 C2A        -2.4840   30.0000  -86.7510 C.ar      1 NAP601      0.0000 
     21 N3A        -3.0580   28.9170  -86.1080 N.ar      1 NAP601      0.0000 
     22 C4A        -2.4390   27.7160  -86.1410 C.ar      1 NAP601      0.0000 
     23 O3         -3.0770   22.4280  -80.0430 O.3       1 NAP601      0.0000 
     24 PN         -3.0560   22.4940  -78.4410 P.3       1 NAP601      0.0000 
     25 O1N        -4.3660   23.0550  -78.0240 O.co2     1 NAP601      0.0000 
     26 O2N        -2.6400   21.1770  -77.8850 O.co2     1 NAP601      0.0000 
     27 O5D        -1.9240   23.5970  -78.2250 O.3       1 NAP601      0.0000 
     28 C5D        -2.0880   24.9470  -78.6360 C.3       1 NAP601      0.0000 
     29 C4D        -0.9770   25.8220  -78.0550 C.3       1 NAP601      0.0000 
     30 O4D        -1.1110   25.8390  -76.6610 O.3       1 NAP601      0.0000 
     31 C3D         0.4190   25.2660  -78.3540 C.3       1 NAP601      0.0000 
     32 O3D         1.3650   26.3000  -78.5450 O.3       1 NAP601      0.0000 
     33 C2D         0.7870   24.4900  -77.1200 C.3       1 NAP601      0.0000 
     34 O2D         2.1820   24.5260  -76.9440 O.3       1 NAP601      0.0000 
     35 C1D         0.0290   25.2580  -76.0440 C.3       1 NAP601      0.0000 
     36 N1N        -0.2990   24.4550  -74.8340 N.pl3     1 NAP601      0.0000 
     37 C2N        -0.3680   23.0860  -74.8840 C.ar      1 NAP601      0.0000 
     38 C3N        -0.6650   22.3600  -73.7150 C.ar      1 NAP601      0.0000 
     39 C7N        -1.3520   21.0550  -73.8850 C.2       1 NAP601      0.0000 
     40 O7N        -1.3690   20.1580  -72.8120 O.2       1 NAP601      0.0000 
     41 N7N        -1.8980   20.7930  -75.0530 N.am      1 NAP601      0.0000 
     42 C4N        -0.8630   22.9960  -72.4940 C.ar      1 NAP601      0.0000 
     43 C5N        -0.7890   24.3910  -72.4650 C.ar      1 NAP601      0.0000 
     44 C6N        -0.5210   25.1050  -73.6400 C.ar      1 NAP601      0.0000 
     45 P2B        -6.5720   24.3340  -87.1650 P.3       1 NAP601      0.0000 
     46 O1X        -7.0510   24.9750  -88.4420 O.co2     1 NAP601      0.0000 
     47 O2X        -7.7750   23.9370  -86.3520 O.co2     1 NAP601      0.0000 
     48 O3X        -5.7550   23.0980  -87.4900 O.co2     1 NAP601      0.0000 
@<TRIPOS>BOND
     1    1    2 ar   
     2    1    3 ar   
     3    1    4 1    
     4    1   23 1    
     5    4    5 1    
     6    5    6 1    
     7    6    7 1    
     8    6    8 1    
     9    7   12 1    
    10    8    9 1    
    11    8   10 1    
    12   10   11 1    
    13   10   12 1    
    14   11   45 1    
    15   12   13 1    
    16   13   14 1    
    17   13   22 1    
    18   14   15 2    
    19   15   16 1    
    20   16   17 ar   
    21   16   22 ar   
    22   17   18 1    
    23   17   19 ar   
    24   19   20 ar   
    25   20   21 ar   
    26   21   22 ar   
    27   23   24 1    
    28   24   25 ar   
    29   24   26 ar   
    30   24   27 1    
    31   27   28 1    
    32   28   29 1    
    33   29   30 1    
    34   29   31 1    
    35   30   35 1    
    36   31   32 1    
    37   31   33 1    
    38   33   34 1    
    39   33   35 1    
    40   35   36 1    
    41   36   37 ar   
    42   36   44 ar   
    43   37   38 ar   
    44   38   39 1    
    45   38   42 ar   
    46   39   40 2    
    47   39   41 am   
    48   42   43 ar   
    49   43   44 ar   
    50   45   46 ar   
    51   45   47 ar   
    52   45   48 ar   
@<TRIPOS>SUBSTRUCTURE
     1 NAP601      1 GROUP   
@<TRIPOS>SET
ATOM$ORANGE STATIC     ATOMS   COLORGROUP SYSTEM 
42 5 5 6 6 8 8 10 10 12 12 14 14 16 16 17 17 20 \
20 22 22 28 28 29 29 31 31 33 33 35 35 37 37 38 38 39 \
39 42 42 43 43 44 44 

