#    Name: 5my2_1_COA
#    Modification time : Fri May 22 19:13:08 2020

@<TRIPOS>MOLECULE
5my2_1_COA
   48    50     1     0     1
SMALL
NO_CHARGES


@<TRIPOS>ATOM
      1 N1A        -2.1560   71.8000   39.8450 N.ar      1 COA900      0.0000 
      2 C2A        -1.0070   71.2480   39.4020 C.ar      1 COA900      0.0000 
      3 N3A        -0.3390   71.7850   38.3630 N.ar      1 COA900      0.0000 
      4 C4A        -0.8040   72.9040   37.7130 C.ar      1 COA900      0.0000 
      5 C5A        -2.0410   73.5600   38.1500 C.ar      1 COA900      0.0000 
      6 C6A        -2.7240   72.9240   39.2940 C.ar      1 COA900      0.0000 
      7 N6A        -3.8790   73.4860   39.7350 N.pl3     1 COA900      0.0000 
      8 N7A        -2.2470   74.6330   37.3550 N.2       1 COA900      0.0000 
      9 C8A        -1.2240   74.6780   36.4670 C.2       1 COA900      0.0000 
     10 N9A        -0.3790   73.6570   36.6980 N.pl3     1 COA900      0.0000 
     11 C1B         0.8560   73.3730   35.9630 C.3       1 COA900      0.0000 
     12 C2B         2.0390   73.4560   36.9270 C.3       1 COA900      0.0000 
     13 O2B         2.8640   74.5710   36.5510 O.3       1 COA900      0.0000 
     14 C3B         2.7130   72.0890   36.8480 C.3       1 COA900      0.0000 
     15 O3B         4.1050   72.2990   36.5670 O.3       1 COA900      0.0000 
     16 P3B         5.2070   71.1900   36.1460 P.3       1 COA900      0.0000 
     17 O7A         6.5050   71.8360   36.5890 O.co2     1 COA900      0.0000 
     18 O8A         4.8700   69.9380   36.9190 O.co2     1 COA900      0.0000 
     19 O9A         5.0380   71.0400   34.6510 O.co2     1 COA900      0.0000 
     20 C4B         1.9540   71.3120   35.7580 C.3       1 COA900      0.0000 
     21 O4B         0.7660   72.0430   35.4640 O.3       1 COA900      0.0000 
     22 C5B         1.5350   69.8770   36.0840 C.3       1 COA900      0.0000 
     23 O5B         1.2560   69.1910   34.8510 O.3       1 COA900      0.0000 
     24 P1A         0.3330   67.8560   34.6990 P.3       1 COA900      0.0000 
     25 O1A         0.9400   66.9400   33.6720 O.co2     1 COA900      0.0000 
     26 O2A        -1.0830   68.3200   34.4550 O.co2     1 COA900      0.0000 
     27 O3A         0.4490   67.1150   36.1520 O.3       1 COA900      0.0000 
     28 P2A         0.5500   65.5220   36.5290 P.3       1 COA900      0.0000 
     29 O4A         0.5910   64.6470   35.2950 O.co2     1 COA900      0.0000 
     30 O5A         1.6490   65.3950   37.5700 O.co2     1 COA900      0.0000 
     31 O6A        -0.8690   65.2120   37.2470 O.3       1 COA900      0.0000 
     32 CBP        -2.5330   66.2510   38.7100 C.3       1 COA900      0.0000 
     33 CCP        -1.1870   65.5250   38.6070 C.3       1 COA900      0.0000 
     34 CDP        -2.2420   67.7280   38.4740 C.3       1 COA900      0.0000 
     35 CEP        -3.5650   65.7170   37.7010 C.3       1 COA900      0.0000 
     36 CAP        -3.0800   66.1920   40.1290 C.3       1 COA900      0.0000 
     37 OAP        -4.2630   66.9880   40.2460 O.3       1 COA900      0.0000 
     38 C9P        -3.3850   64.8080   40.5730 C.2       1 COA900      0.0000 
     39 O9P        -2.4860   64.2390   41.1300 O.2       1 COA900      0.0000 
     40 N8P        -4.5980   64.2980   40.3780 N.am      1 COA900      0.0000 
     41 C7P        -5.0060   62.9800   40.8570 C.3       1 COA900      0.0000 
     42 C6P        -4.9270   62.7230   42.3830 C.3       1 COA900      0.0000 
     43 C5P        -6.2890   62.8850   43.0340 C.2       1 COA900      0.0000 
     44 O5P        -6.7210   64.0180   43.1380 O.2       1 COA900      0.0000 
     45 N4P        -7.0180   61.8600   43.4920 N.am      1 COA900      0.0000 
     46 C3P        -6.6440   60.4570   43.5500 C.3       1 COA900      0.0000 
     47 C2P        -7.5270   59.6950   44.5450 C.3       1 COA900      0.0000 
     48 S1P        -8.8370   58.7210   43.7440 S.3       1 COA900      0.0000 
@<TRIPOS>BOND
     1    1    2 ar   
     2    1    6 ar   
     3    2    3 ar   
     4    3    4 ar   
     5    4    5 ar   
     6    4   10 1    
     7    5    6 ar   
     8    5    8 1    
     9    6    7 1    
    10    8    9 2    
    11    9   10 1    
    12   10   11 1    
    13   11   12 1    
    14   11   21 1    
    15   12   13 1    
    16   12   14 1    
    17   14   15 1    
    18   14   20 1    
    19   15   16 1    
    20   16   17 ar   
    21   16   18 ar   
    22   16   19 ar   
    23   20   21 1    
    24   20   22 1    
    25   22   23 1    
    26   23   24 1    
    27   24   25 ar   
    28   24   26 ar   
    29   24   27 1    
    30   27   28 1    
    31   28   29 ar   
    32   28   30 ar   
    33   28   31 1    
    34   31   33 1    
    35   32   33 1    
    36   32   34 1    
    37   32   35 1    
    38   32   36 1    
    39   36   37 1    
    40   36   38 1    
    41   38   39 2    
    42   38   40 am   
    43   40   41 1    
    44   41   42 1    
    45   42   43 1    
    46   43   44 2    
    47   43   45 am   
    48   45   46 1    
    49   46   47 1    
    50   47   48 1    
@<TRIPOS>SUBSTRUCTURE
     1 COA900      1 GROUP   
@<TRIPOS>SET
ATOM$ORANGE STATIC     ATOMS   COLORGROUP SYSTEM 
42 2 2 4 4 5 5 6 6 9 9 11 11 12 12 14 14 20 \
20 22 22 32 32 33 33 34 34 35 35 36 36 38 38 41 41 42 \
42 43 43 46 46 47 47 

