#    Name: 6may_3_YNC
#    Modification time : Fri May 22 19:32:00 2020

@<TRIPOS>MOLECULE
6may_3_YNC
   63    65     1     0     0
SMALL
NO_CHARGES


@<TRIPOS>ATOM
      1 C          38.6810  -18.1430  -24.0720 C.ar      1 YNC501      0.0000 
      2 N          37.4170  -17.6700  -23.9960 N.pl3     1 YNC501      0.0000 
      3 O          43.3670  -17.9370  -28.1030 O.3       1 YNC501      0.0000 
      4 P          46.7480  -18.2520  -28.5950 P.3       1 YNC501      0.0000 
      5 S          34.1790  -18.5400  -22.0250 S.3       1 YNC501      0.0000 
      6 C1         40.2500  -19.8320  -23.6100 C.ar      1 YNC501      0.0000 
      7 N1         38.9960  -19.3420  -23.5310 N.ar      1 YNC501      0.0000 
      8 O1         45.9180  -17.8850  -27.2590 O.3       1 YNC501      0.0000 
      9 P1         45.5000  -12.6750  -23.8570 P.3       1 YNC501      0.0000 
     10 C2         41.1070  -17.9870  -24.7860 C.ar      1 YNC501      0.0000 
     11 N2         41.2800  -19.1980  -24.2060 N.ar      1 YNC501      0.0000 
     12 O2         47.0180  -19.7250  -28.3900 O.co2     1 YNC501      0.0000 
     13 P2         43.0040  -11.3110  -23.5290 P.3       1 YNC501      0.0000 
     14 C3         39.7630  -17.3780  -24.7520 C.ar      1 YNC501      0.0000 
     15 N3         39.8710  -16.1980  -25.3930 N.2       1 YNC501      0.0000 
     16 O3         45.8220  -17.9480  -29.7550 O.co2     1 YNC501      0.0000 
     17 C4         41.1640  -16.0660  -25.7950 C.2       1 YNC501      0.0000 
     18 N4         41.9050  -17.1350  -25.4380 N.pl3     1 YNC501      0.0000 
     19 O4         47.9700  -17.3560  -28.5240 O.co2     1 YNC501      0.0000 
     20 C5         43.3560  -17.3440  -25.7120 C.3       1 YNC501      0.0000 
     21 N5         36.8870  -11.3090  -22.5070 N.am      1 YNC501      0.0000 
     22 O5         45.5510  -14.2590  -24.1840 O.3       1 YNC501      0.0000 
     23 C6         43.7110  -16.9330  -27.1350 C.3       1 YNC501      0.0000 
     24 N6         35.6430  -14.8680  -21.5110 N.am      1 YNC501      0.0000 
     25 O6         45.6190  -12.4970  -22.3590 O.co2     1 YNC501      0.0000 
     26 C7         45.2050  -16.6700  -27.0500 C.3       1 YNC501      0.0000 
     27 O7         43.9680  -12.3750  -24.2680 O.3       1 YNC501      0.0000 
     28 C8         45.4270  -16.2390  -25.6050 C.3       1 YNC501      0.0000 
     29 O8         42.1190  -10.6730  -24.5780 O.co2     1 YNC501      0.0000 
     30 C9         45.7710  -14.7520  -25.5070 C.3       1 YNC501      0.0000 
     31 O9         42.1100  -12.3290  -22.6600 O.3       1 YNC501      0.0000 
     32 C10        40.9940  -12.9860  -23.2570 C.3       1 YNC501      0.0000 
     33 O10        34.8970  -18.2860  -19.6210 O.2       1 YNC501      0.0000 
     34 C11        39.8280  -12.9160  -22.2880 C.3       1 YNC501      0.0000 
     35 O11        34.9490  -13.6530  -23.2640 O.2       1 YNC501      0.0000 
     36 C12        38.7830  -13.9580  -22.6670 C.3       1 YNC501      0.0000 
     37 O12        37.9460  -11.0940  -20.5100 O.2       1 YNC501      0.0000 
     38 C13        40.3190  -13.1410  -20.8640 C.3       1 YNC501      0.0000 
     39 O13        39.1250  -11.2430  -23.8450 O.3       1 YNC501      0.0000 
     40 C14        39.2780  -11.5010  -22.4420 C.3       1 YNC501      0.0000 
     41 O14        43.7700  -10.4390  -22.5580 O.co2     1 YNC501      0.0000 
     42 C15        37.9720  -11.2910  -21.7230 C.2       1 YNC501      0.0000 
     43 O15        46.4170  -11.9210  -24.8010 O.co2     1 YNC501      0.0000 
     44 C16        35.5410  -11.2480  -21.9790 C.3       1 YNC501      0.0000 
     45 O16        44.2250  -16.5590  -24.8840 O.3       1 YNC501      0.0000 
     46 C17        35.2180  -12.5100  -21.1940 C.3       1 YNC501      0.0000 
     47 C18        35.2590  -13.7300  -22.0870 C.2       1 YNC501      0.0000 
     48 C19        35.4200  -16.1610  -22.1270 C.3       1 YNC501      0.0000 
     49 C20        34.1040  -16.8040  -21.7070 C.3       1 YNC501      0.0000 
     50 C21        34.8830  -19.0340  -20.5870 C.2       1 YNC501      0.0000 
     51 C22        35.5460  -20.3890  -20.4860 C.3       1 YNC501      0.0000 
     52 C23        37.0290  -20.1880  -20.8020 C.3       1 YNC501      0.0000 
     53 C24        37.8350  -21.4790  -20.6620 C.3       1 YNC501      0.0000 
     54 C25        39.3310  -21.1810  -20.6860 C.3       1 YNC501      0.0000 
     55 C26        40.1460  -22.4330  -20.9550 C.3       1 YNC501      0.0000 
     56 C27        40.0920  -23.4350  -19.8060 C.3       1 YNC501      0.0000 
     57 C28        40.9110  -24.6630  -20.2160 C.3       1 YNC501      0.0000 
     58 C29        40.8310  -25.7890  -19.1920 C.3       1 YNC501      0.0000 
     59 C30        41.7470  -25.4840  -18.0140 C.3       1 YNC501      0.0000 
     60 C31        41.6430  -26.5270  -16.9010 C.3       1 YNC501      0.0000 
     61 C32        42.2050  -27.8860  -17.3080 C.3       1 YNC501      0.0000 
     62 C33        42.1750  -28.7930  -16.0770 C.1       1 YNC501      0.0000 
     63 C34        42.6100  -30.2250  -16.3390 C.1       1 YNC501      0.0000 
@<TRIPOS>BOND
     1    1    2 1    
     2    1    7 ar   
     3    1   14 ar   
     4    3   23 1    
     5    4    8 1    
     6    4   12 ar   
     7    4   16 ar   
     8    4   19 ar   
     9    5   49 1    
    10    5   50 1    
    11    6    7 ar   
    12    6   11 ar   
    13    8   26 1    
    14    9   22 1    
    15    9   25 ar   
    16    9   27 1    
    17    9   43 ar   
    18   10   11 ar   
    19   10   14 ar   
    20   10   18 1    
    21   13   27 1    
    22   13   29 ar   
    23   13   31 1    
    24   13   41 ar   
    25   14   15 1    
    26   15   17 2    
    27   17   18 1    
    28   18   20 1    
    29   20   23 1    
    30   20   45 1    
    31   21   42 am   
    32   21   44 1    
    33   22   30 1    
    34   23   26 1    
    35   24   47 am   
    36   24   48 1    
    37   26   28 1    
    38   28   30 1    
    39   28   45 1    
    40   31   32 1    
    41   32   34 1    
    42   33   50 2    
    43   34   36 1    
    44   34   38 1    
    45   34   40 1    
    46   35   47 2    
    47   37   42 2    
    48   39   40 1    
    49   40   42 1    
    50   44   46 1    
    51   46   47 1    
    52   48   49 1    
    53   50   51 1    
    54   51   52 1    
    55   52   53 1    
    56   53   54 1    
    57   54   55 1    
    58   55   56 1    
    59   56   57 1    
    60   57   58 1    
    61   58   59 1    
    62   59   60 1    
    63   60   61 1    
    64   61   62 1    
    65   62   63 3    
@<TRIPOS>SUBSTRUCTURE
     1 YNC501      1 GROUP   
@<TRIPOS>SET

