#    Name: 6may_2_YNC
#    Modification time : Fri May 22 19:31:53 2020

@<TRIPOS>MOLECULE
6may_2_YNC
   63    65     1     0     0
SMALL
NO_CHARGES


@<TRIPOS>ATOM
      1 C          16.8770  -70.6180   -2.1280 C.ar      1 YNC501      0.0000 
      2 N          15.6240  -70.9550   -1.7340 N.pl3     1 YNC501      0.0000 
      3 O          21.7930  -67.3960    0.2710 O.3       1 YNC501      0.0000 
      4 P          24.9870  -66.9130    0.1100 P.3       1 YNC501      0.0000 
      5 S          12.5180  -71.9500   -3.5230 S.3       1 YNC501      0.0000 
      6 C1         18.3800  -70.0560   -3.8430 C.ar      1 YNC501      0.0000 
      7 N1         17.1410  -70.3950   -3.4340 N.ar      1 YNC501      0.0000 
      8 O1         24.3370  -68.3350   -0.2580 O.3       1 YNC501      0.0000 
      9 P1         23.6730  -73.9970    1.8950 P.3       1 YNC501      0.0000 
     10 C2         19.3280  -70.1020   -1.6780 C.ar      1 YNC501      0.0000 
     11 N2         19.4400  -69.9100   -3.0180 N.ar      1 YNC501      0.0000 
     12 O2         25.3580  -66.4390   -1.2680 O.co2     1 YNC501      0.0000 
     13 P2         21.0270  -74.6560    2.8440 P.3       1 YNC501      0.0000 
     14 C3         17.9990  -70.4770   -1.1520 C.ar      1 YNC501      0.0000 
     15 N3         18.1520  -70.6070    0.1810 N.2       1 YNC501      0.0000 
     16 O3         23.8610  -66.1480    0.7770 O.co2     1 YNC501      0.0000 
     17 C4         19.4530  -70.3440    0.4770 C.2       1 YNC501      0.0000 
     18 N4         20.1630  -70.0310   -0.6250 N.pl3     1 YNC501      0.0000 
     19 O4         26.1400  -67.2240    1.0390 O.co2     1 YNC501      0.0000 
     20 C5         21.6220  -69.6980   -0.6600 C.3       1 YNC501      0.0000 
     21 N5         15.0650  -75.6180    2.4830 N.am      1 YNC501      0.0000 
     22 O5         23.8760  -72.8140    0.8190 O.3       1 YNC501      0.0000 
     23 C6         22.0630  -68.7920    0.4920 C.3       1 YNC501      0.0000 
     24 N6         13.7320  -74.6580   -0.8470 N.am      1 YNC501      0.0000 
     25 O6         23.6170  -75.3130    1.1450 O.co2     1 YNC501      0.0000 
     26 C7         23.5500  -69.1030    0.6360 C.3       1 YNC501      0.0000 
     27 O7         22.1890  -73.6130    2.4250 O.3       1 YNC501      0.0000 
     28 C8         23.6960  -70.5200    0.1180 C.3       1 YNC501      0.0000 
     29 O8         20.1630  -73.9920    3.8910 O.co2     1 YNC501      0.0000 
     30 C9         24.0750  -71.4690    1.2450 C.3       1 YNC501      0.0000 
     31 O9         20.2080  -74.7380    1.4530 O.3       1 YNC501      0.0000 
     32 C10        19.0720  -73.9090    1.2130 C.3       1 YNC501      0.0000 
     33 O10        12.6910  -73.9760   -5.0360 O.2       1 YNC501      0.0000 
     34 C11        17.9170  -74.8040    0.7960 C.3       1 YNC501      0.0000 
     35 O11        12.8770  -73.7770    1.0370 O.2       1 YNC501      0.0000 
     36 C12        16.8220  -73.9710    0.1440 C.3       1 YNC501      0.0000 
     37 O12        16.1300  -77.3390    1.4420 O.2       1 YNC501      0.0000 
     38 C13        18.4070  -75.8590   -0.1860 C.3       1 YNC501      0.0000 
     39 O13        17.2450  -74.4150    3.0940 O.3       1 YNC501      0.0000 
     40 C14        17.4210  -75.4440    2.1020 C.3       1 YNC501      0.0000 
     41 O14        21.5830  -76.0340    3.1150 O.co2     1 YNC501      0.0000 
     42 C15        16.1390  -76.2270    1.9640 C.2       1 YNC501      0.0000 
     43 O15        24.6730  -73.7950    3.0130 O.co2     1 YNC501      0.0000 
     44 C16        13.7130  -76.1390    2.4100 C.3       1 YNC501      0.0000 
     45 O16        22.4490  -70.8660   -0.5130 O.3       1 YNC501      0.0000 
     46 C17        13.2000  -76.1400    0.9780 C.3       1 YNC501      0.0000 
     47 C18        13.2550  -74.7470    0.3930 C.2       1 YNC501      0.0000 
     48 C19        13.6430  -73.4320   -1.6130 C.3       1 YNC501      0.0000 
     49 C20        12.3530  -73.3140   -2.4180 C.3       1 YNC501      0.0000 
     50 C21        12.9490  -72.7840   -4.9120 C.2       1 YNC501      0.0000 
     51 C22        13.6840  -72.0580   -6.0180 C.3       1 YNC501      0.0000 
     52 C23        15.1730  -71.9500   -5.6820 C.3       1 YNC501      0.0000 
     53 C24        15.9150  -71.3600   -6.8740 C.3       1 YNC501      0.0000 
     54 C25        17.4090  -71.6310   -6.8380 C.3       1 YNC501      0.0000 
     55 C26        18.1110  -70.6350   -7.7470 C.3       1 YNC501      0.0000 
     56 C27        18.0780  -71.0110   -9.2270 C.3       1 YNC501      0.0000 
     57 C28        18.9900  -70.0420   -9.9810 C.3       1 YNC501      0.0000 
     58 C29        18.9400  -70.2140  -11.4950 C.3       1 YNC501      0.0000 
     59 C30        19.8180  -71.3720  -11.9400 C.3       1 YNC501      0.0000 
     60 C31        19.7300  -71.6540  -13.4350 C.3       1 YNC501      0.0000 
     61 C32        20.2770  -70.5110  -14.2960 C.3       1 YNC501      0.0000 
     62 C33        20.2590  -70.9280  -15.7670 C.1       1 YNC501      0.0000 
     63 C34        20.5880  -69.7650  -16.6970 C.1       1 YNC501      0.0000 
@<TRIPOS>BOND
     1    1    2 1    
     2    1    7 ar   
     3    1   14 ar   
     4    3   23 1    
     5    4    8 1    
     6    4   12 ar   
     7    4   16 ar   
     8    4   19 ar   
     9    5   49 1    
    10    5   50 1    
    11    6    7 ar   
    12    6   11 ar   
    13    8   26 1    
    14    9   22 1    
    15    9   25 ar   
    16    9   27 1    
    17    9   43 ar   
    18   10   11 ar   
    19   10   14 ar   
    20   10   18 1    
    21   13   27 1    
    22   13   29 ar   
    23   13   31 1    
    24   13   41 ar   
    25   14   15 1    
    26   15   17 2    
    27   17   18 1    
    28   18   20 1    
    29   20   23 1    
    30   20   45 1    
    31   21   42 am   
    32   21   44 1    
    33   22   30 1    
    34   23   26 1    
    35   24   47 am   
    36   24   48 1    
    37   26   28 1    
    38   28   30 1    
    39   28   45 1    
    40   31   32 1    
    41   32   34 1    
    42   33   50 2    
    43   34   36 1    
    44   34   38 1    
    45   34   40 1    
    46   35   47 2    
    47   37   42 2    
    48   39   40 1    
    49   40   42 1    
    50   44   46 1    
    51   46   47 1    
    52   48   49 1    
    53   50   51 1    
    54   51   52 1    
    55   52   53 1    
    56   53   54 1    
    57   54   55 1    
    58   55   56 1    
    59   56   57 1    
    60   57   58 1    
    61   58   59 1    
    62   59   60 1    
    63   60   61 1    
    64   61   62 1    
    65   62   63 3    
@<TRIPOS>SUBSTRUCTURE
     1 YNC501      1 GROUP   
@<TRIPOS>SET

