#    Name: 6may_1_YNC
#    Modification time : Fri May 22 19:31:45 2020

@<TRIPOS>MOLECULE
6may_1_YNC
   63    65     1     0     0
SMALL
NO_CHARGES


@<TRIPOS>ATOM
      1 C           1.4170  -37.8570  -55.2730 C.ar      1 YNC501      0.0000 
      2 N           2.6480  -37.7180  -55.8120 N.pl3     1 YNC501      0.0000 
      3 O          -3.4240  -34.1390  -53.6870 O.3       1 YNC501      0.0000 
      4 P          -6.6350  -34.0830  -53.1530 P.3       1 YNC501      0.0000 
      5 S           5.8460  -39.8880  -55.6980 S.3       1 YNC501      0.0000 
      6 C1         -0.0600  -38.9930  -53.8410 C.ar      1 YNC501      0.0000 
      7 N1          1.1680  -38.8400  -54.3830 N.ar      1 YNC501      0.0000 
      8 O1         -5.8690  -35.1860  -54.0330 O.3       1 YNC501      0.0000 
      9 P1         -5.2920  -35.9800  -60.1690 P.3       1 YNC501      0.0000 
     10 C2         -1.0040  -37.1840  -55.0050 C.ar      1 YNC501      0.0000 
     11 N2         -1.1180  -38.2040  -54.1230 N.ar      1 YNC501      0.0000 
     12 O2         -7.0020  -34.8120  -51.8820 O.co2     1 YNC501      0.0000 
     13 P2         -2.6870  -35.4510  -61.2530 P.3       1 YNC501      0.0000 
     14 C3          0.3010  -36.9470  -55.6410 C.ar      1 YNC501      0.0000 
     15 N3          0.1400  -35.8830  -56.4560 N.2       1 YNC501      0.0000 
     16 O3         -5.6070  -32.9920  -52.9850 O.co2     1 YNC501      0.0000 
     17 C4         -1.1540  -35.4800  -56.3530 C.2       1 YNC501      0.0000 
     18 N4         -1.8350  -36.2500  -55.4780 N.pl3     1 YNC501      0.0000 
     19 O4         -7.8050  -33.6910  -54.0250 O.co2     1 YNC501      0.0000 
     20 C5         -3.2730  -36.1260  -55.1150 C.3       1 YNC501      0.0000 
     21 N5          3.2160  -36.2370  -61.8620 N.am      1 YNC501      0.0000 
     22 O5         -5.4550  -36.3660  -58.6110 O.3       1 YNC501      0.0000 
     23 C6         -3.7130  -34.6800  -54.9780 C.3       1 YNC501      0.0000 
     24 N6          4.7920  -38.6890  -59.3550 N.am      1 YNC501      0.0000 
     25 O6         -5.2090  -37.2650  -60.9540 O.co2     1 YNC501      0.0000 
     26 C7         -5.2070  -34.7860  -55.2270 C.3       1 YNC501      0.0000 
     27 O7         -3.8310  -35.2870  -60.1210 O.3       1 YNC501      0.0000 
     28 C8         -5.3460  -35.9150  -56.2250 C.3       1 YNC501      0.0000 
     29 O8         -1.7350  -34.2730  -61.1250 O.co2     1 YNC501      0.0000 
     30 C9         -5.5820  -35.3470  -57.6210 C.3       1 YNC501      0.0000 
     31 O9         -1.8990  -36.7610  -60.7290 O.3       1 YNC501      0.0000 
     32 C10        -0.7810  -36.6130  -59.8560 C.3       1 YNC501      0.0000 
     33 O10         5.4520  -42.0810  -56.8430 O.2       1 YNC501      0.0000 
     34 C11         0.3900  -37.3970  -60.4320 C.3       1 YNC501      0.0000 
     35 O11         5.2700  -36.4960  -59.5620 O.2       1 YNC501      0.0000 
     36 C12         1.5020  -37.4940  -59.3850 C.3       1 YNC501      0.0000 
     37 O12         2.3010  -38.0270  -62.9170 O.2       1 YNC501      0.0000 
     38 C13        -0.0860  -38.7860  -60.8260 C.3       1 YNC501      0.0000 
     39 O13         0.8680  -35.2230  -61.3660 O.3       1 YNC501      0.0000 
     40 C14         0.8390  -36.6200  -61.6820 C.3       1 YNC501      0.0000 
     41 O14        -3.3120  -35.8030  -62.5860 O.co2     1 YNC501      0.0000 
     42 C15         2.1910  -37.0320  -62.2080 C.2       1 YNC501      0.0000 
     43 O15        -6.3480  -34.9430  -60.5130 O.co2     1 YNC501      0.0000 
     44 C16         4.5920  -36.4970  -62.2430 C.3       1 YNC501      0.0000 
     45 O16        -4.1250  -36.6640  -56.1420 O.3       1 YNC501      0.0000 
     46 C17         5.1070  -37.7580  -61.5690 C.3       1 YNC501      0.0000 
     47 C18         5.0630  -37.5900  -60.0660 C.2       1 YNC501      0.0000 
     48 C19         4.8660  -38.7140  -57.9070 C.3       1 YNC501      0.0000 
     49 C20         6.0380  -39.5530  -57.4170 C.3       1 YNC501      0.0000 
     50 C21         5.3430  -41.4840  -55.7850 C.2       1 YNC501      0.0000 
     51 C22         4.7130  -42.1740  -54.5870 C.3       1 YNC501      0.0000 
     52 C23         3.2090  -41.8790  -54.6330 C.3       1 YNC501      0.0000 
     53 C24         2.3920  -42.5290  -53.5100 C.3       1 YNC501      0.0000 
     54 C25         0.8960  -42.4510  -53.8170 C.3       1 YNC501      0.0000 
     55 C26         0.0100  -42.6980  -52.5990 C.3       1 YNC501      0.0000 
     56 C27         0.0830  -44.1410  -52.1170 C.3       1 YNC501      0.0000 
     57 C28        -0.8650  -44.3860  -50.9400 C.3       1 YNC501      0.0000 
     58 C29        -0.7380  -45.8050  -50.3840 C.3       1 YNC501      0.0000 
     59 C30        -1.5890  -46.7840  -51.1900 C.3       1 YNC501      0.0000 
     60 C31        -1.4210  -48.2300  -50.7280 C.3       1 YNC501      0.0000 
     61 C32        -1.9710  -48.4820  -49.3210 C.3       1 YNC501      0.0000 
     62 C33        -2.0230  -49.9680  -48.9690 C.1       1 YNC501      0.0000 
     63 C34        -2.4130  -50.2260  -47.5210 C.1       1 YNC501      0.0000 
@<TRIPOS>BOND
     1    1    2 1    
     2    1    7 ar   
     3    1   14 ar   
     4    3   23 1    
     5    4    8 1    
     6    4   12 ar   
     7    4   16 ar   
     8    4   19 ar   
     9    5   49 1    
    10    5   50 1    
    11    6    7 ar   
    12    6   11 ar   
    13    8   26 1    
    14    9   22 1    
    15    9   25 ar   
    16    9   27 1    
    17    9   43 ar   
    18   10   11 ar   
    19   10   14 ar   
    20   10   18 1    
    21   13   27 1    
    22   13   29 ar   
    23   13   31 1    
    24   13   41 ar   
    25   14   15 1    
    26   15   17 2    
    27   17   18 1    
    28   18   20 1    
    29   20   23 1    
    30   20   45 1    
    31   21   42 am   
    32   21   44 1    
    33   22   30 1    
    34   23   26 1    
    35   24   47 am   
    36   24   48 1    
    37   26   28 1    
    38   28   30 1    
    39   28   45 1    
    40   31   32 1    
    41   32   34 1    
    42   33   50 2    
    43   34   36 1    
    44   34   38 1    
    45   34   40 1    
    46   35   47 2    
    47   37   42 2    
    48   39   40 1    
    49   40   42 1    
    50   44   46 1    
    51   46   47 1    
    52   48   49 1    
    53   50   51 1    
    54   51   52 1    
    55   52   53 1    
    56   53   54 1    
    57   54   55 1    
    58   55   56 1    
    59   56   57 1    
    60   57   58 1    
    61   58   59 1    
    62   59   60 1    
    63   60   61 1    
    64   61   62 1    
    65   62   63 3    
@<TRIPOS>SUBSTRUCTURE
     1 YNC501      1 GROUP   
@<TRIPOS>SET

