#    Name: 6dju_10_AGS
#    Modification time : Fri May 22 19:39:25 2020

@<TRIPOS>MOLECULE
6dju_10_AGS
   31    33     1     0     0
SMALL
NO_CHARGES


@<TRIPOS>ATOM
      1 PG        131.0270  177.9270  160.7840 P.3       1 AGS901      0.0000 
      2 S1G       129.7090  176.5470  161.1550 S.2       1 AGS901      0.0000 
      3 O2G       131.2360  178.0470  159.2490 O.3       1 AGS901      0.0000 
      4 O3G       132.3710  177.5460  161.4660 O.3       1 AGS901      0.0000 
      5 PB        130.3790  180.4780  160.2830 P.3       1 AGS901      0.0000 
      6 O1B       131.4300  180.3870  159.2550 O.co2     1 AGS901      0.0000 
      7 O2B       130.4050  181.7730  161.0990 O.co2     1 AGS901      0.0000 
      8 O3B       130.5470  179.3030  161.3190 O.3       1 AGS901      0.0000 
      9 PA        128.8490  180.0010  158.0800 P.3       1 AGS901      0.0000 
     10 O1A       129.3010  181.2090  157.2560 O.co2     1 AGS901      0.0000 
     11 O2A       129.5580  178.7420  157.8010 O.co2     1 AGS901      0.0000 
     12 O3A       128.9630  180.3980  159.6020 O.3       1 AGS901      0.0000 
     13 O5'       127.3160  179.7240  157.9120 O.3       1 AGS901      0.0000 
     14 C5'       126.3980  180.2350  158.8910 C.3       1 AGS901      0.0000 
     15 C4'       125.1240  180.6080  158.1840 C.3       1 AGS901      0.0000 
     16 O4'       124.5730  181.8030  158.7830 O.3       1 AGS901      0.0000 
     17 C3'       125.2940  180.9300  156.7040 C.3       1 AGS901      0.0000 
     18 O3'       124.1180  180.5840  155.9810 O.3       1 AGS901      0.0000 
     19 C2'       125.5210  182.4390  156.7260 C.3       1 AGS901      0.0000 
     20 O2'       125.1670  183.0500  155.4910 O.3       1 AGS901      0.0000 
     21 C1'       124.5590  182.8540  157.8360 C.3       1 AGS901      0.0000 
     22 N9        124.9230  184.0910  158.5140 N.pl3     1 AGS901      0.0000 
     23 C8        125.3140  184.2290  159.8200 C.2       1 AGS901      0.0000 
     24 N7        125.5850  185.4620  160.1690 N.2       1 AGS901      0.0000 
     25 C5        125.3620  186.1890  159.0090 C.ar      1 AGS901      0.0000 
     26 C6        125.4740  187.5600  158.7120 C.ar      1 AGS901      0.0000 
     27 N6        125.8520  188.4830  159.5980 N.pl3     1 AGS901      0.0000 
     28 N1        125.1750  187.9550  157.4540 N.ar      1 AGS901      0.0000 
     29 C2        124.7940  187.0360  156.5630 C.ar      1 AGS901      0.0000 
     30 N3        124.6510  185.7200  156.7290 N.ar      1 AGS901      0.0000 
     31 C4        124.9520  185.3560  157.9830 C.ar      1 AGS901      0.0000 
@<TRIPOS>BOND
     1    1    2 2    
     2    1    3 1    
     3    1    4 1    
     4    1    8 1    
     5    5    6 ar   
     6    5    7 ar   
     7    5    8 1    
     8    5   12 1    
     9    9   10 ar   
    10    9   11 ar   
    11    9   12 1    
    12    9   13 1    
    13   13   14 1    
    14   14   15 1    
    15   15   16 1    
    16   15   17 1    
    17   16   21 1    
    18   17   18 1    
    19   17   19 1    
    20   19   20 1    
    21   19   21 1    
    22   21   22 1    
    23   22   23 1    
    24   22   31 1    
    25   23   24 2    
    26   24   25 1    
    27   25   26 ar   
    28   25   31 ar   
    29   26   27 1    
    30   26   28 ar   
    31   28   29 ar   
    32   29   30 ar   
    33   30   31 ar   
@<TRIPOS>SUBSTRUCTURE
     1 AGS901      1 GROUP   
@<TRIPOS>SET

