#    Name: 6dju_11_ADP
#    Modification time : Fri May 22 19:39:37 2020

@<TRIPOS>MOLECULE
6dju_11_ADP
   27    29     1     0     1
SMALL
NO_CHARGES


@<TRIPOS>ATOM
      1 PB        155.5600  196.8470  178.6320 P.3       1 ADP902      0.0000 
      2 O1B       154.2750  196.1110  178.3550 O.co2     1 ADP902      0.0000 
      3 O2B       155.5410  197.6430  179.9110 O.co2     1 ADP902      0.0000 
      4 O3B       156.8280  196.0580  178.4250 O.co2     1 ADP902      0.0000 
      5 PA        156.5190  197.6850  176.1670 P.3       1 ADP902      0.0000 
      6 O1A       156.0910  196.3500  175.6150 O.co2     1 ADP902      0.0000 
      7 O2A       157.9490  197.9840  176.5250 O.co2     1 ADP902      0.0000 
      8 O3A       155.6440  197.9660  177.4800 O.3       1 ADP902      0.0000 
      9 O5'       156.0400  198.8090  175.1250 O.3       1 ADP902      0.0000 
     10 C5'       156.5780  198.8350  173.8030 C.3       1 ADP902      0.0000 
     11 C4'       155.7530  199.7750  172.9270 C.3       1 ADP902      0.0000 
     12 O4'       155.3940  200.9480  173.6620 O.3       1 ADP902      0.0000 
     13 C3'       156.5130  200.2200  171.6900 C.3       1 ADP902      0.0000 
     14 O3'       155.8590  199.7540  170.5070 O.3       1 ADP902      0.0000 
     15 C2'       156.4860  201.7320  171.7200 C.3       1 ADP902      0.0000 
     16 O2'       155.6290  202.2170  170.6850 O.3       1 ADP902      0.0000 
     17 C1'       155.9120  202.1400  173.0670 C.3       1 ADP902      0.0000 
     18 N9        156.8940  202.6310  174.0740 N.pl3     1 ADP902      0.0000 
     19 C8        156.5580  202.6340  175.3730 C.2       1 ADP902      0.0000 
     20 N7        157.5510  203.1120  176.1490 N.2       1 ADP902      0.0000 
     21 C5        158.5690  203.4340  175.3430 C.ar      1 ADP902      0.0000 
     22 C6        159.9150  203.9960  175.5600 C.ar      1 ADP902      0.0000 
     23 N6        160.3490  204.2960  176.8040 N.pl3     1 ADP902      0.0000 
     24 N1        160.6870  204.1960  174.4790 N.ar      1 ADP902      0.0000 
     25 C2        160.2490  203.8950  173.2450 C.ar      1 ADP902      0.0000 
     26 N3        159.0380  203.3830  172.9810 N.ar      1 ADP902      0.0000 
     27 C4        158.1430  203.1270  173.9670 C.ar      1 ADP902      0.0000 
@<TRIPOS>BOND
     1    1    2 ar   
     2    1    3 ar   
     3    1    4 ar   
     4    1    8 1    
     5    5    6 ar   
     6    5    7 ar   
     7    5    8 1    
     8    5    9 1    
     9    9   10 1    
    10   10   11 1    
    11   11   12 1    
    12   11   13 1    
    13   12   17 1    
    14   13   14 1    
    15   13   15 1    
    16   15   16 1    
    17   15   17 1    
    18   17   18 1    
    19   18   19 1    
    20   18   27 1    
    21   19   20 2    
    22   20   21 1    
    23   21   22 ar   
    24   21   27 ar   
    25   22   23 1    
    26   22   24 ar   
    27   24   25 ar   
    28   25   26 ar   
    29   26   27 ar   
@<TRIPOS>SUBSTRUCTURE
     1 ADP902      1 GROUP   
@<TRIPOS>SET
ATOM$ORANGE STATIC     ATOMS   COLORGROUP SYSTEM 
20 10 10 11 11 13 13 15 15 17 17 19 19 21 21 22 22 25 \
25 27 27 

