#    Name: 6dju_4_AGS
#    Modification time : Fri May 22 19:38:25 2020

@<TRIPOS>MOLECULE
6dju_4_AGS
   31    33     1     0     0
SMALL
NO_CHARGES


@<TRIPOS>ATOM
      1 PG        143.7690  127.5740  181.2290 P.3       1 AGS902      0.0000 
      2 S1G       145.4700  127.6270  182.1650 S.2       1 AGS902      0.0000 
      3 O2G       144.0310  127.6260  179.7050 O.3       1 AGS902      0.0000 
      4 O3G       142.9030  128.7990  181.6150 O.3       1 AGS902      0.0000 
      5 PB        142.8790  125.1910  180.4490 P.3       1 AGS902      0.0000 
      6 O1B       142.8370  125.8330  179.1320 O.co2     1 AGS902      0.0000 
      7 O2B       141.6270  124.3720  180.7480 O.co2     1 AGS902      0.0000 
      8 O3B       143.0030  126.2730  181.5720 O.3       1 AGS902      0.0000 
      9 PA        143.8890  122.9580  179.4930 P.3       1 AGS902      0.0000 
     10 O1A       144.9450  122.9950  178.4750 O.co2     1 AGS902      0.0000 
     11 O2A       142.4530  123.0830  178.9920 O.co2     1 AGS902      0.0000 
     12 O3A       144.0360  124.1420  180.5070 O.3       1 AGS902      0.0000 
     13 O5'       144.0880  121.6410  180.3110 O.3       1 AGS902      0.0000 
     14 C5'       145.4290  121.2470  180.5920 C.3       1 AGS902      0.0000 
     15 C4'       145.5670  119.7470  180.6200 C.3       1 AGS902      0.0000 
     16 O4'       144.4990  119.1620  181.3940 O.3       1 AGS902      0.0000 
     17 C3'       145.5550  119.0570  179.2560 C.3       1 AGS902      0.0000 
     18 O3'       146.6600  118.1670  179.1540 O.3       1 AGS902      0.0000 
     19 C2'       144.2180  118.3110  179.2420 C.3       1 AGS902      0.0000 
     20 O2'       144.3230  117.0860  178.5300 O.3       1 AGS902      0.0000 
     21 C1'       144.0090  118.0260  180.7210 C.3       1 AGS902      0.0000 
     22 N9        142.6220  117.8510  181.1090 N.pl3     1 AGS902      0.0000 
     23 C8        141.9360  118.6310  181.9950 C.2       1 AGS902      0.0000 
     24 N7        140.6940  118.2630  182.1820 N.2       1 AGS902      0.0000 
     25 C5        140.5480  117.1670  181.3500 C.ar      1 AGS902      0.0000 
     26 C6        139.4590  116.3210  181.0840 C.ar      1 AGS902      0.0000 
     27 N6        138.2580  116.4570  181.6480 N.pl3     1 AGS902      0.0000 
     28 N1        139.6460  115.3160  180.2050 N.ar      1 AGS902      0.0000 
     29 C2        140.8460  115.1750  179.6390 C.ar      1 AGS902      0.0000 
     30 N3        141.9450  115.9100  179.8110 N.ar      1 AGS902      0.0000 
     31 C4        141.7280  116.9020  180.6810 C.ar      1 AGS902      0.0000 
@<TRIPOS>BOND
     1    1    2 2    
     2    1    3 1    
     3    1    4 1    
     4    1    8 1    
     5    5    6 ar   
     6    5    7 ar   
     7    5    8 1    
     8    5   12 1    
     9    9   10 ar   
    10    9   11 ar   
    11    9   12 1    
    12    9   13 1    
    13   13   14 1    
    14   14   15 1    
    15   15   16 1    
    16   15   17 1    
    17   16   21 1    
    18   17   18 1    
    19   17   19 1    
    20   19   20 1    
    21   19   21 1    
    22   21   22 1    
    23   22   23 1    
    24   22   31 1    
    25   23   24 2    
    26   24   25 1    
    27   25   26 ar   
    28   25   31 ar   
    29   26   27 1    
    30   26   28 ar   
    31   28   29 ar   
    32   29   30 ar   
    33   30   31 ar   
@<TRIPOS>SUBSTRUCTURE
     1 AGS902      1 GROUP   
@<TRIPOS>SET

