#    Name: 6dju_6_AGS
#    Modification time : Fri May 22 19:38:47 2020

@<TRIPOS>MOLECULE
6dju_6_AGS
   31    33     1     0     0
SMALL
NO_CHARGES


@<TRIPOS>ATOM
      1 PG        158.0950  124.9690  143.6660 P.3       1 AGS902      0.0000 
      2 S1G       159.9990  125.3850  143.7030 S.2       1 AGS902      0.0000 
      3 O2G       157.7250  124.4780  142.2450 O.3       1 AGS902      0.0000 
      4 O3G       157.2450  126.2260  143.9840 O.3       1 AGS902      0.0000 
      5 PB        157.3530  122.4610  144.0580 P.3       1 AGS902      0.0000 
      6 O1B       156.6310  122.5920  142.7860 O.co2     1 AGS902      0.0000 
      7 O2B       156.5970  121.6550  145.1100 O.co2     1 AGS902      0.0000 
      8 O3B       157.7210  123.8550  144.6700 O.3       1 AGS902      0.0000 
      9 PA        158.3710  120.2370  143.2140 P.3       1 AGS902      0.0000 
     10 O1A       158.7780  120.2190  141.8090 O.co2     1 AGS902      0.0000 
     11 O2A       156.8920  119.9990  143.5120 O.co2     1 AGS902      0.0000 
     12 O3A       158.6430  121.6340  143.8300 O.3       1 AGS902      0.0000 
     13 O5'       159.2730  119.2420  144.0080 O.3       1 AGS902      0.0000 
     14 C5'       158.6840  118.3560  144.9590 C.3       1 AGS902      0.0000 
     15 C4'       159.6490  117.2400  145.2380 C.3       1 AGS902      0.0000 
     16 O4'       158.9730  116.2140  145.9940 O.3       1 AGS902      0.0000 
     17 C3'       160.1880  116.5230  144.0060 C.3       1 AGS902      0.0000 
     18 O3'       161.4330  115.9060  144.3030 O.3       1 AGS902      0.0000 
     19 C2'       159.1150  115.4730  143.7480 C.3       1 AGS902      0.0000 
     20 O2'       159.6330  114.3430  143.0700 O.3       1 AGS902      0.0000 
     21 C1'       158.7310  115.0830  145.1750 C.3       1 AGS902      0.0000 
     22 N9        157.3400  114.7150  145.3250 N.pl3     1 AGS902      0.0000 
     23 C8        156.3670  115.4140  145.9840 C.2       1 AGS902      0.0000 
     24 N7        155.1930  114.8390  145.9670 N.2       1 AGS902      0.0000 
     25 C5        155.4070  113.6790  145.2440 C.ar      1 AGS902      0.0000 
     26 C6        154.5540  112.6280  144.8760 C.ar      1 AGS902      0.0000 
     27 N6        153.2560  112.5800  145.1850 N.pl3     1 AGS902      0.0000 
     28 N1        155.0850  111.6120  144.1550 N.ar      1 AGS902      0.0000 
     29 C2        156.3810  111.6550  143.8420 C.ar      1 AGS902      0.0000 
     30 N3        157.2790  112.5970  144.1370 N.ar      1 AGS902      0.0000 
     31 C4        156.7260  113.5880  144.8500 C.ar      1 AGS902      0.0000 
@<TRIPOS>BOND
     1    1    2 2    
     2    1    3 1    
     3    1    4 1    
     4    1    8 1    
     5    5    6 ar   
     6    5    7 ar   
     7    5    8 1    
     8    5   12 1    
     9    9   10 ar   
    10    9   11 ar   
    11    9   12 1    
    12    9   13 1    
    13   13   14 1    
    14   14   15 1    
    15   15   16 1    
    16   15   17 1    
    17   16   21 1    
    18   17   18 1    
    19   17   19 1    
    20   19   20 1    
    21   19   21 1    
    22   21   22 1    
    23   22   23 1    
    24   22   31 1    
    25   23   24 2    
    26   24   25 1    
    27   25   26 ar   
    28   25   31 ar   
    29   26   27 1    
    30   26   28 ar   
    31   28   29 ar   
    32   29   30 ar   
    33   30   31 ar   
@<TRIPOS>SUBSTRUCTURE
     1 AGS902      1 GROUP   
@<TRIPOS>SET

