#    Name: 6dju_12_ADP
#    Modification time : Fri May 22 19:39:48 2020

@<TRIPOS>MOLECULE
6dju_12_ADP
   27    29     1     0     1
SMALL
NO_CHARGES


@<TRIPOS>ATOM
      1 PB        168.5130  189.5070  127.5620 P.3       1 ADP902      0.0000 
      2 O1B       167.9640  188.5660  126.5170 O.co2     1 ADP902      0.0000 
      3 O2B       167.8090  189.4360  128.8960 O.co2     1 ADP902      0.0000 
      4 O3B       170.0200  189.5270  127.6520 O.co2     1 ADP902      0.0000 
      5 PA        169.0680  191.6860  125.9010 P.3       1 ADP902      0.0000 
      6 O1A       168.9170  190.9380  124.5970 O.co2     1 ADP902      0.0000 
      7 O2A       170.4400  191.8870  126.4990 O.co2     1 ADP902      0.0000 
      8 O3A       168.1380  190.9690  127.0030 O.3       1 ADP902      0.0000 
      9 O5'       168.3730  193.1290  125.7380 O.3       1 ADP902      0.0000 
     10 C5'       168.9840  194.1400  124.9400 C.3       1 ADP902      0.0000 
     11 C4'       167.9270  195.1430  124.4930 C.3       1 ADP902      0.0000 
     12 O4'       167.3870  195.8150  125.6340 O.3       1 ADP902      0.0000 
     13 C3'       168.5200  196.1930  123.5660 C.3       1 ADP902      0.0000 
     14 O3'       167.9170  196.0850  122.2690 O.3       1 ADP902      0.0000 
     15 C2'       168.2860  197.5390  124.2480 C.3       1 ADP902      0.0000 
     16 O2'       167.4990  198.4550  123.4720 O.3       1 ADP902      0.0000 
     17 C1'       167.5680  197.2310  125.5540 C.3       1 ADP902      0.0000 
     18 N9        168.3890  197.6960  126.6990 N.pl3     1 ADP902      0.0000 
     19 C8        168.2880  197.2590  127.9680 C.2       1 ADP902      0.0000 
     20 N7        169.1830  197.8850  128.7750 N.2       1 ADP902      0.0000 
     21 C5        169.8800  198.7470  128.0130 C.ar      1 ADP902      0.0000 
     22 C6        170.9750  199.7210  128.2310 C.ar      1 ADP902      0.0000 
     23 N6        171.5180  199.9010  129.4590 N.pl3     1 ADP902      0.0000 
     24 N1        171.4150  200.4230  127.1630 N.ar      1 ADP902      0.0000 
     25 C2        170.8840  200.2530  125.9380 C.ar      1 ADP902      0.0000 
     26 N3        169.8890  199.3880  125.6680 N.ar      1 ADP902      0.0000 
     27 C4        169.3530  198.6190  126.6450 C.ar      1 ADP902      0.0000 
@<TRIPOS>BOND
     1    1    2 ar   
     2    1    3 ar   
     3    1    4 ar   
     4    1    8 1    
     5    5    6 ar   
     6    5    7 ar   
     7    5    8 1    
     8    5    9 1    
     9    9   10 1    
    10   10   11 1    
    11   11   12 1    
    12   11   13 1    
    13   12   17 1    
    14   13   14 1    
    15   13   15 1    
    16   15   16 1    
    17   15   17 1    
    18   17   18 1    
    19   18   19 1    
    20   18   27 1    
    21   19   20 2    
    22   20   21 1    
    23   21   22 ar   
    24   21   27 ar   
    25   22   23 1    
    26   22   24 ar   
    27   24   25 ar   
    28   25   26 ar   
    29   26   27 ar   
@<TRIPOS>SUBSTRUCTURE
     1 ADP902      1 GROUP   
@<TRIPOS>SET
ATOM$ORANGE STATIC     ATOMS   COLORGROUP SYSTEM 
20 10 10 11 11 13 13 15 15 17 17 19 19 21 21 22 22 25 \
25 27 27 

