#    Name: 6dju_9_AGS
#    Modification time : Fri May 22 19:39:13 2020

@<TRIPOS>MOLECULE
6dju_9_AGS
   31    33     1     0     0
SMALL
NO_CHARGES


@<TRIPOS>ATOM
      1 PG        187.2640  171.0650  147.4390 P.3       1 AGS901      0.0000 
      2 S1G       185.3540  170.8470  147.7510 S.2       1 AGS901      0.0000 
      3 O2G       187.5020  172.1750  146.3760 O.3       1 AGS901      0.0000 
      4 O3G       187.8630  169.7290  146.9170 O.3       1 AGS901      0.0000 
      5 PB        189.5540  171.6370  148.7370 P.3       1 AGS901      0.0000 
      6 O1B       190.1930  170.4740  148.0900 O.co2     1 AGS901      0.0000 
      7 O2B       190.0200  171.8520  150.1780 O.co2     1 AGS901      0.0000 
      8 O3B       187.9840  171.4600  148.7610 O.3       1 AGS901      0.0000 
      9 PA        191.2850  172.8810  147.1730 P.3       1 AGS901      0.0000 
     10 O1A       191.0570  172.4420  145.7850 O.co2     1 AGS901      0.0000 
     11 O2A       192.1960  171.9830  148.0090 O.co2     1 AGS901      0.0000 
     12 O3A       189.9430  172.9500  147.9760 O.3       1 AGS901      0.0000 
     13 O5'       191.8030  174.3540  147.1630 O.3       1 AGS901      0.0000 
     14 C5'       191.7110  175.1100  148.3710 C.3       1 AGS901      0.0000 
     15 C4'       192.7790  176.1730  148.3700 C.3       1 AGS901      0.0000 
     16 O4'       193.5140  176.1140  149.6110 O.3       1 AGS901      0.0000 
     17 C3'       193.8100  176.0750  147.2450 C.3       1 AGS901      0.0000 
     18 O3'       194.0540  177.3590  146.6860 O.3       1 AGS901      0.0000 
     19 C2'       195.0560  175.5410  147.9520 C.3       1 AGS901      0.0000 
     20 O2'       196.2390  176.0560  147.3570 O.3       1 AGS901      0.0000 
     21 C1'       194.8950  176.1470  149.3360 C.3       1 AGS901      0.0000 
     22 N9        195.5950  175.4270  150.3880 N.pl3     1 AGS901      0.0000 
     23 C8        195.0440  174.6800  151.3950 C.2       1 AGS901      0.0000 
     24 N7        195.9250  174.1490  152.2080 N.2       1 AGS901      0.0000 
     25 C5        197.1400  174.5790  151.7000 C.ar      1 AGS901      0.0000 
     26 C6        198.4690  174.3600  152.1080 C.ar      1 AGS901      0.0000 
     27 N6        198.8090  173.6250  153.1680 N.pl3     1 AGS901      0.0000 
     28 N1        199.4510  174.9340  151.3790 N.ar      1 AGS901      0.0000 
     29 C2        199.1170  175.6750  150.3190 C.ar      1 AGS901      0.0000 
     30 N3        197.9030  175.9500  149.8410 N.ar      1 AGS901      0.0000 
     31 C4        196.9520  175.3650  150.5780 C.ar      1 AGS901      0.0000 
@<TRIPOS>BOND
     1    1    2 2    
     2    1    3 1    
     3    1    4 1    
     4    1    8 1    
     5    5    6 ar   
     6    5    7 ar   
     7    5    8 1    
     8    5   12 1    
     9    9   10 ar   
    10    9   11 ar   
    11    9   12 1    
    12    9   13 1    
    13   13   14 1    
    14   14   15 1    
    15   15   16 1    
    16   15   17 1    
    17   16   21 1    
    18   17   18 1    
    19   17   19 1    
    20   19   20 1    
    21   19   21 1    
    22   21   22 1    
    23   22   23 1    
    24   22   31 1    
    25   23   24 2    
    26   24   25 1    
    27   25   26 ar   
    28   25   31 ar   
    29   26   27 1    
    30   26   28 ar   
    31   28   29 ar   
    32   29   30 ar   
    33   30   31 ar   
@<TRIPOS>SUBSTRUCTURE
     1 AGS901      1 GROUP   
@<TRIPOS>SET

