#    Name: 6dju_5_AGS
#    Modification time : Fri May 22 19:38:37 2020

@<TRIPOS>MOLECULE
6dju_5_AGS
   31    33     1     0     0
SMALL
NO_CHARGES


@<TRIPOS>ATOM
      1 PG        171.1540  137.4770  193.5420 P.3       1 AGS901      0.0000 
      2 S1G       172.1480  139.1440  193.5120 S.2       1 AGS901      0.0000 
      3 O2G       170.7570  137.1080  192.0950 O.3       1 AGS901      0.0000 
      4 O3G       169.8820  137.6300  194.4090 O.3       1 AGS901      0.0000 
      5 PB        172.9330  135.5700  193.1570 P.3       1 AGS901      0.0000 
      6 O1B       172.7690  136.1130  191.8030 O.co2     1 AGS901      0.0000 
      7 O2B       172.6190  134.0850  193.3080 O.co2     1 AGS901      0.0000 
      8 O3B       172.0100  136.3440  194.1480 O.3       1 AGS901      0.0000 
      9 PA        175.3230  135.0300  192.4260 P.3       1 AGS901      0.0000 
     10 O1A       175.6990  136.0560  191.4510 O.co2     1 AGS901      0.0000 
     11 O2A       174.4650  133.8880  191.8900 O.co2     1 AGS901      0.0000 
     12 O3A       174.4340  135.6400  193.5430 O.3       1 AGS901      0.0000 
     13 O5'       176.6160  134.5080  193.1330 O.3       1 AGS901      0.0000 
     14 C5'       177.5790  135.4710  193.5520 C.3       1 AGS901      0.0000 
     15 C4'       178.9640  134.9470  193.2940 C.3       1 AGS901      0.0000 
     16 O4'       179.4800  134.3460  194.5000 O.3       1 AGS901      0.0000 
     17 C3'       179.0530  133.8640  192.2270 C.3       1 AGS901      0.0000 
     18 O3'       179.2970  134.4470  190.9540 O.3       1 AGS901      0.0000 
     19 C2'       180.2500  133.0440  192.6970 C.3       1 AGS901      0.0000 
     20 O2'       181.4660  133.6900  192.3490 O.3       1 AGS901      0.0000 
     21 C1'       180.0690  133.0940  194.2100 C.3       1 AGS901      0.0000 
     22 N9        179.1990  132.0600  194.7480 N.pl3     1 AGS901      0.0000 
     23 C8        178.0110  132.2600  195.3940 C.2       1 AGS901      0.0000 
     24 N7        177.4230  131.1570  195.7860 N.2       1 AGS901      0.0000 
     25 C5        178.2910  130.1610  195.3750 C.ar      1 AGS901      0.0000 
     26 C6        178.2460  128.7610  195.4910 C.ar      1 AGS901      0.0000 
     27 N6        177.2510  128.0960  196.0810 N.pl3     1 AGS901      0.0000 
     28 N1        179.2730  128.0560  194.9740 N.ar      1 AGS901      0.0000 
     29 C2        180.2720  128.7160  194.3820 C.ar      1 AGS901      0.0000 
     30 N3        180.4230  130.0310  194.2150 N.ar      1 AGS901      0.0000 
     31 C4        179.3890  130.7020  194.7330 C.ar      1 AGS901      0.0000 
@<TRIPOS>BOND
     1    1    2 2    
     2    1    3 1    
     3    1    4 1    
     4    1    8 1    
     5    5    6 ar   
     6    5    7 ar   
     7    5    8 1    
     8    5   12 1    
     9    9   10 ar   
    10    9   11 ar   
    11    9   12 1    
    12    9   13 1    
    13   13   14 1    
    14   14   15 1    
    15   15   16 1    
    16   15   17 1    
    17   16   21 1    
    18   17   18 1    
    19   17   19 1    
    20   19   20 1    
    21   19   21 1    
    22   21   22 1    
    23   22   23 1    
    24   22   31 1    
    25   23   24 2    
    26   24   25 1    
    27   25   26 ar   
    28   25   31 ar   
    29   26   27 1    
    30   26   28 ar   
    31   28   29 ar   
    32   29   30 ar   
    33   30   31 ar   
@<TRIPOS>SUBSTRUCTURE
     1 AGS901      1 GROUP   
@<TRIPOS>SET

