#    Name: 6dju_2_AGS
#    Modification time : Fri May 22 19:38:03 2020

@<TRIPOS>MOLECULE
6dju_2_AGS
   31    33     1     0     0
SMALL
NO_CHARGES


@<TRIPOS>ATOM
      1 PG        123.5760  147.4290  168.0230 P.3       1 AGS902      0.0000 
      2 S1G       124.3270  145.6430  167.8710 S.2       1 AGS902      0.0000 
      3 O2G       124.0700  148.3140  166.8530 O.3       1 AGS902      0.0000 
      4 O3G       123.9800  148.1000  169.3600 O.3       1 AGS902      0.0000 
      5 PB        121.5020  147.0920  166.5120 P.3       1 AGS902      0.0000 
      6 O1B       122.5520  147.3250  165.5170 O.co2     1 AGS902      0.0000 
      7 O2B       120.2610  147.9670  166.3660 O.co2     1 AGS902      0.0000 
      8 O3B       122.0420  147.3450  167.9400 O.3       1 AGS902      0.0000 
      9 PA        119.6610  145.5840  165.5610 P.3       1 AGS902      0.0000 
     10 O1A       119.8840  146.1400  164.2290 O.co2     1 AGS902      0.0000 
     11 O2A       118.6300  146.3100  166.4240 O.co2     1 AGS902      0.0000 
     12 O3A       120.9800  145.6400  166.3800 O.3       1 AGS902      0.0000 
     13 O5'       119.2930  144.0840  165.3830 O.3       1 AGS902      0.0000 
     14 C5'       118.4820  143.7810  164.2600 C.3       1 AGS902      0.0000 
     15 C4'       117.8160  142.4570  164.4840 C.3       1 AGS902      0.0000 
     16 O4'       116.7240  142.6290  165.4110 O.3       1 AGS902      0.0000 
     17 C3'       117.1790  141.8700  163.2340 C.3       1 AGS902      0.0000 
     18 O3'       117.0300  140.4640  163.3620 O.3       1 AGS902      0.0000 
     19 C2'       115.8140  142.5410  163.2330 C.3       1 AGS902      0.0000 
     20 O2'       114.8530  141.7600  162.5350 O.3       1 AGS902      0.0000 
     21 C1'       115.4870  142.5410  164.7270 C.3       1 AGS902      0.0000 
     22 N9        114.6480  143.6460  165.1750 N.pl3     1 AGS902      0.0000 
     23 C8        114.9440  144.5080  166.1940 C.2       1 AGS902      0.0000 
     24 N7        114.0220  145.4110  166.4150 N.2       1 AGS902      0.0000 
     25 C5        113.0540  145.1290  165.4670 C.ar      1 AGS902      0.0000 
     26 C6        111.8170  145.7300  165.1720 C.ar      1 AGS902      0.0000 
     27 N6        111.3310  146.7880  165.8240 N.pl3     1 AGS902      0.0000 
     28 N1        111.0860  145.2000  164.1670 N.ar      1 AGS902      0.0000 
     29 C2        111.5680  144.1430  163.5100 C.ar      1 AGS902      0.0000 
     30 N3        112.7150  143.4920  163.7020 N.ar      1 AGS902      0.0000 
     31 C4        113.4200  144.0400  164.6990 C.ar      1 AGS902      0.0000 
@<TRIPOS>BOND
     1    1    2 2    
     2    1    3 1    
     3    1    4 1    
     4    1    8 1    
     5    5    6 ar   
     6    5    7 ar   
     7    5    8 1    
     8    5   12 1    
     9    9   10 ar   
    10    9   11 ar   
    11    9   12 1    
    12    9   13 1    
    13   13   14 1    
    14   14   15 1    
    15   15   16 1    
    16   15   17 1    
    17   16   21 1    
    18   17   18 1    
    19   17   19 1    
    20   19   20 1    
    21   19   21 1    
    22   21   22 1    
    23   22   23 1    
    24   22   31 1    
    25   23   24 2    
    26   24   25 1    
    27   25   26 ar   
    28   25   31 ar   
    29   26   27 1    
    30   26   28 ar   
    31   28   29 ar   
    32   29   30 ar   
    33   30   31 ar   
@<TRIPOS>SUBSTRUCTURE
     1 AGS902      1 GROUP   
@<TRIPOS>SET

