#    Name: 6dju_1_AGS
#    Modification time : Fri May 22 19:37:50 2020

@<TRIPOS>MOLECULE
6dju_1_AGS
   31    33     1     0     0
SMALL
NO_CHARGES


@<TRIPOS>ATOM
      1 PG        140.3400  169.0320  122.5350 P.3       1 AGS901      0.0000 
      2 S1G       139.8020  167.1840  122.2710 S.2       1 AGS901      0.0000 
      3 O2G       140.7210  169.6820  121.1780 O.3       1 AGS901      0.0000 
      4 O3G       141.5630  169.0630  123.4880 O.3       1 AGS901      0.0000 
      5 PB        138.5110  170.9190  122.2570 P.3       1 AGS901      0.0000 
      6 O1B       139.5080  171.6020  121.4170 O.co2     1 AGS901      0.0000 
      7 O2B       137.6930  171.8790  123.1190 O.co2     1 AGS901      0.0000 
      8 O3B       139.1910  169.8490  123.1740 O.3       1 AGS901      0.0000 
      9 PA        136.8540  171.1360  120.2530 P.3       1 AGS901      0.0000 
     10 O1A       137.3080  170.7200  118.9250 O.co2     1 AGS901      0.0000 
     11 O2A       137.2830  172.5370  120.6850 O.co2     1 AGS901      0.0000 
     12 O3A       137.4530  170.2200  121.3560 O.3       1 AGS901      0.0000 
     13 O5'       135.3050  170.9570  120.3450 O.3       1 AGS901      0.0000 
     14 C5'       134.5320  171.9000  121.0910 C.3       1 AGS901      0.0000 
     15 C4'       133.0800  171.6050  120.8330 C.3       1 AGS901      0.0000 
     16 O4'       132.2690  172.6980  121.3190 O.3       1 AGS901      0.0000 
     17 C3'       132.7080  171.4510  119.3640 C.3       1 AGS901      0.0000 
     18 O3'       131.5740  170.6010  119.2570 O.3       1 AGS901      0.0000 
     19 C2'       132.3330  172.8760  118.9790 C.3       1 AGS901      0.0000 
     20 O2'       131.4630  172.9160  117.8560 O.3       1 AGS901      0.0000 
     21 C1'       131.5940  173.3100  120.2370 C.3       1 AGS901      0.0000 
     22 N9        131.5820  174.7470  120.4570 N.pl3     1 AGS901      0.0000 
     23 C8        132.2640  175.4400  121.4210 C.2       1 AGS901      0.0000 
     24 N7        132.0600  176.7330  121.3920 N.2       1 AGS901      0.0000 
     25 C5        131.1820  176.9040  120.3350 C.ar      1 AGS901      0.0000 
     26 C6        130.5770  178.0450  119.7830 C.ar      1 AGS901      0.0000 
     27 N6        130.7740  179.2820  120.2410 N.pl3     1 AGS901      0.0000 
     28 N1        129.7510  177.8680  118.7280 N.ar      1 AGS901      0.0000 
     29 C2        129.5510  176.6310  118.2670 C.ar      1 AGS901      0.0000 
     30 N3        130.0650  175.4820  118.7080 N.ar      1 AGS901      0.0000 
     31 C4        130.8810  175.6880  119.7490 C.ar      1 AGS901      0.0000 
@<TRIPOS>BOND
     1    1    2 2    
     2    1    3 1    
     3    1    4 1    
     4    1    8 1    
     5    5    6 ar   
     6    5    7 ar   
     7    5    8 1    
     8    5   12 1    
     9    9   10 ar   
    10    9   11 ar   
    11    9   12 1    
    12    9   13 1    
    13   13   14 1    
    14   14   15 1    
    15   15   16 1    
    16   15   17 1    
    17   16   21 1    
    18   17   18 1    
    19   17   19 1    
    20   19   20 1    
    21   19   21 1    
    22   21   22 1    
    23   22   23 1    
    24   22   31 1    
    25   23   24 2    
    26   24   25 1    
    27   25   26 ar   
    28   25   31 ar   
    29   26   27 1    
    30   26   28 ar   
    31   28   29 ar   
    32   29   30 ar   
    33   30   31 ar   
@<TRIPOS>SUBSTRUCTURE
     1 AGS901      1 GROUP   
@<TRIPOS>SET

