#    Name: 6dju_8_AGS
#    Modification time : Fri May 22 19:39:01 2020

@<TRIPOS>MOLECULE
6dju_8_AGS
   31    33     1     0     0
SMALL
NO_CHARGES


@<TRIPOS>ATOM
      1 PG        176.9190  168.8120  197.8010 P.3       1 AGS902      0.0000 
      2 S1G       175.8690  170.5780  197.5080 S.2       1 AGS902      0.0000 
      3 O2G       176.9010  167.9450  196.4450 O.3       1 AGS902      0.0000 
      4 O3G       176.2850  168.0370  198.8910 O.3       1 AGS902      0.0000 
      5 PB        179.6500  168.7810  197.2030 P.3       1 AGS902      0.0000 
      6 O1B       179.1630  168.9540  195.7850 O.co2     1 AGS902      0.0000 
      7 O2B       180.2350  167.4600  197.6430 O.co2     1 AGS902      0.0000 
      8 O3B       178.4410  169.1530  198.2000 O.3       1 AGS902      0.0000 
      9 PA        182.1060  170.0090  196.6820 P.3       1 AGS902      0.0000 
     10 O1A       181.8590  170.8080  195.4240 O.co2     1 AGS902      0.0000 
     11 O2A       182.6760  168.6140  196.5880 O.co2     1 AGS902      0.0000 
     12 O3A       180.7280  169.9360  197.5110 O.3       1 AGS902      0.0000 
     13 O5'       183.0540  170.8770  197.6510 O.3       1 AGS902      0.0000 
     14 C5'       182.7970  172.2640  197.8630 C.3       1 AGS902      0.0000 
     15 C4'       184.0200  173.0750  197.4540 C.3       1 AGS902      0.0000 
     16 O4'       184.9750  173.0790  198.5180 O.3       1 AGS902      0.0000 
     17 C3'       184.6900  172.4820  196.2230 C.3       1 AGS902      0.0000 
     18 O3'       184.6230  173.4230  195.1410 O.3       1 AGS902      0.0000 
     19 C2'       186.1120  172.1260  196.6460 C.3       1 AGS902      0.0000 
     20 O2'       187.1310  172.7760  195.8720 O.3       1 AGS902      0.0000 
     21 C1'       186.2350  172.5440  198.1050 C.3       1 AGS902      0.0000 
     22 N9        186.5750  171.3620  198.9370 N.pl3     1 AGS902      0.0000 
     23 C8        185.7330  170.7130  199.7620 C.2       1 AGS902      0.0000 
     24 N7        186.3540  169.6750  200.3780 N.2       1 AGS902      0.0000 
     25 C5        187.6270  169.6500  199.9430 C.ar      1 AGS902      0.0000 
     26 C6        188.8250  168.8130  200.1910 C.ar      1 AGS902      0.0000 
     27 N6        188.7820  167.7660  201.0500 N.pl3     1 AGS902      0.0000 
     28 N1        189.9600  169.1290  199.5300 N.ar      1 AGS902      0.0000 
     29 C2        190.0160  170.1650  198.6730 C.ar      1 AGS902      0.0000 
     30 N3        188.9690  170.9660  198.4010 N.ar      1 AGS902      0.0000 
     31 C4        187.7680  170.7640  198.9930 C.ar      1 AGS902      0.0000 
@<TRIPOS>BOND
     1    1    2 2    
     2    1    3 1    
     3    1    4 1    
     4    1    8 1    
     5    5    6 ar   
     6    5    7 ar   
     7    5    8 1    
     8    5   12 1    
     9    9   10 ar   
    10    9   11 ar   
    11    9   12 1    
    12    9   13 1    
    13   13   14 1    
    14   14   15 1    
    15   15   16 1    
    16   15   17 1    
    17   16   21 1    
    18   17   18 1    
    19   17   19 1    
    20   19   20 1    
    21   19   21 1    
    22   21   22 1    
    23   22   23 1    
    24   22   31 1    
    25   23   24 2    
    26   24   25 1    
    27   25   26 ar   
    28   25   31 ar   
    29   26   27 1    
    30   26   28 ar   
    31   28   29 ar   
    32   29   30 ar   
    33   30   31 ar   
@<TRIPOS>SUBSTRUCTURE
     1 AGS902      1 GROUP   
@<TRIPOS>SET

