#    Name: 6dju_7_AGS
#    Modification time : Fri May 22 19:38:56 2020

@<TRIPOS>MOLECULE
6dju_7_AGS
   31    33     1     0     0
SMALL
NO_CHARGES


@<TRIPOS>ATOM
      1 PG        182.9930  139.4230  154.5890 P.3       1 AGS901      0.0000 
      2 S1G       183.5440  141.2830  154.4740 S.2       1 AGS901      0.0000 
      3 O2G       183.3500  138.6860  153.2720 O.3       1 AGS901      0.0000 
      4 O3G       181.4650  139.3380  154.8290 O.3       1 AGS901      0.0000 
      5 PB        184.7140  137.5870  155.2500 P.3       1 AGS901      0.0000 
      6 O1B       184.0240  136.6830  154.3170 O.co2     1 AGS901      0.0000 
      7 O2B       185.2980  136.8910  156.4740 O.co2     1 AGS901      0.0000 
      8 O3B       183.7390  138.7050  155.7360 O.3       1 AGS901      0.0000 
      9 PA        186.9360  137.1990  153.9320 P.3       1 AGS901      0.0000 
     10 O1A       187.1060  137.4480  152.4950 O.co2     1 AGS901      0.0000 
     11 O2A       186.3370  135.8370  154.2750 O.co2     1 AGS901      0.0000 
     12 O3A       185.9500  138.2290  154.5570 O.3       1 AGS901      0.0000 
     13 O5'       188.2800  137.4000  154.6970 O.3       1 AGS901      0.0000 
     14 C5'       188.5530  136.5590  155.8230 C.3       1 AGS901      0.0000 
     15 C4'       189.9200  136.8950  156.3520 C.3       1 AGS901      0.0000 
     16 O4'       190.2760  135.9540  157.3880 O.3       1 AGS901      0.0000 
     17 C3'       191.0410  136.8070  155.3250 C.3       1 AGS901      0.0000 
     18 O3'       192.0950  137.6990  155.6630 O.3       1 AGS901      0.0000 
     19 C2'       191.4860  135.3550  155.4540 C.3       1 AGS901      0.0000 
     20 O2'       192.8430  135.1830  155.0750 O.3       1 AGS901      0.0000 
     21 C1'       191.3460  135.1350  156.9570 C.3       1 AGS901      0.0000 
     22 N9        191.0400  133.7630  157.3220 N.pl3     1 AGS901      0.0000 
     23 C8        189.8820  133.3070  157.8900 C.2       1 AGS901      0.0000 
     24 N7        189.8680  132.0170  158.1130 N.2       1 AGS901      0.0000 
     25 C5        191.1060  131.5940  157.6620 C.ar      1 AGS901      0.0000 
     26 C6        191.7140  130.3270  157.6170 C.ar      1 AGS901      0.0000 
     27 N6        191.1310  129.2100  158.0520 N.pl3     1 AGS901      0.0000 
     28 N1        192.9560  130.2470  157.0960 N.ar      1 AGS901      0.0000 
     29 C2        193.5440  131.3630  156.6570 C.ar      1 AGS901      0.0000 
     30 N3        193.0700  132.6100  156.6500 N.ar      1 AGS901      0.0000 
     31 C4        191.8360  132.6570  157.1650 C.ar      1 AGS901      0.0000 
@<TRIPOS>BOND
     1    1    2 2    
     2    1    3 1    
     3    1    4 1    
     4    1    8 1    
     5    5    6 ar   
     6    5    7 ar   
     7    5    8 1    
     8    5   12 1    
     9    9   10 ar   
    10    9   11 ar   
    11    9   12 1    
    12    9   13 1    
    13   13   14 1    
    14   14   15 1    
    15   15   16 1    
    16   15   17 1    
    17   16   21 1    
    18   17   18 1    
    19   17   19 1    
    20   19   20 1    
    21   19   21 1    
    22   21   22 1    
    23   22   23 1    
    24   22   31 1    
    25   23   24 2    
    26   24   25 1    
    27   25   26 ar   
    28   25   31 ar   
    29   26   27 1    
    30   26   28 ar   
    31   28   29 ar   
    32   29   30 ar   
    33   30   31 ar   
@<TRIPOS>SUBSTRUCTURE
     1 AGS901      1 GROUP   
@<TRIPOS>SET

