#    Name: 6dju_3_AGS
#    Modification time : Fri May 22 19:38:13 2020

@<TRIPOS>MOLECULE
6dju_3_AGS
   31    33     1     0     0
SMALL
NO_CHARGES


@<TRIPOS>ATOM
      1 PG        135.4250  140.6020  130.8670 P.3       1 AGS901      0.0000 
      2 S1G       136.1590  138.8290  131.0610 S.2       1 AGS901      0.0000 
      3 O2G       135.7230  141.0800  129.4250 O.3       1 AGS901      0.0000 
      4 O3G       136.0500  141.5530  131.9170 O.3       1 AGS901      0.0000 
      5 PB        133.1430  139.8330  129.8640 P.3       1 AGS901      0.0000 
      6 O1B       133.9060  139.9500  128.6140 O.co2     1 AGS901      0.0000 
      7 O2B       131.7630  140.4800  129.8540 O.co2     1 AGS901      0.0000 
      8 O3B       133.9020  140.5050  131.0490 O.3       1 AGS901      0.0000 
      9 PA        131.9840  137.6740  129.0300 P.3       1 AGS901      0.0000 
     10 O1A       132.7600  137.3900  127.8220 O.co2     1 AGS901      0.0000 
     11 O2A       130.8300  138.6480  128.8290 O.co2     1 AGS901      0.0000 
     12 O3A       132.8620  138.3390  130.1250 O.3       1 AGS901      0.0000 
     13 O5'       131.4880  136.3410  129.6690 O.3       1 AGS901      0.0000 
     14 C5'       130.1120  136.2110  129.9940 C.3       1 AGS901      0.0000 
     15 C4'       129.7580  134.7520  129.9380 C.3       1 AGS901      0.0000 
     16 O4'       128.4160  134.5700  130.4230 O.3       1 AGS901      0.0000 
     17 C3'       129.7500  134.1400  128.5460 C.3       1 AGS901      0.0000 
     18 O3'       129.9570  132.7350  128.6200 O.3       1 AGS901      0.0000 
     19 C2'       128.3420  134.4680  128.0490 C.3       1 AGS901      0.0000 
     20 O2'       127.8560  133.4680  127.1650 O.3       1 AGS901      0.0000 
     21 C1'       127.5200  134.4300  129.3380 C.3       1 AGS901      0.0000 
     22 N9        126.5350  135.4910  129.4400 N.pl3     1 AGS901      0.0000 
     23 C8        126.6400  136.6290  130.1900 C.2       1 AGS901      0.0000 
     24 N7        125.6000  137.4210  130.1090 N.2       1 AGS901      0.0000 
     25 C5        124.7490  136.7550  129.2440 C.ar      1 AGS901      0.0000 
     26 C6        123.4720  137.0670  128.7470 C.ar      1 AGS901      0.0000 
     27 N6        122.8050  138.1790  129.0620 N.pl3     1 AGS901      0.0000 
     28 N1        122.8980  136.1880  127.8980 N.ar      1 AGS901      0.0000 
     29 C2        123.5620  135.0730  127.5810 C.ar      1 AGS901      0.0000 
     30 N3        124.7700  134.6740  127.9860 N.ar      1 AGS901      0.0000 
     31 C4        125.3120  135.5640  128.8240 C.ar      1 AGS901      0.0000 
@<TRIPOS>BOND
     1    1    2 2    
     2    1    3 1    
     3    1    4 1    
     4    1    8 1    
     5    5    6 ar   
     6    5    7 ar   
     7    5    8 1    
     8    5   12 1    
     9    9   10 ar   
    10    9   11 ar   
    11    9   12 1    
    12    9   13 1    
    13   13   14 1    
    14   14   15 1    
    15   15   16 1    
    16   15   17 1    
    17   16   21 1    
    18   17   18 1    
    19   17   19 1    
    20   19   20 1    
    21   19   21 1    
    22   21   22 1    
    23   22   23 1    
    24   22   31 1    
    25   23   24 2    
    26   24   25 1    
    27   25   26 ar   
    28   25   31 ar   
    29   26   27 1    
    30   26   28 ar   
    31   28   29 ar   
    32   29   30 ar   
    33   30   31 ar   
@<TRIPOS>SUBSTRUCTURE
     1 AGS901      1 GROUP   
@<TRIPOS>SET

