#    Name: 5ywi_1_NTD
#    Modification time : Fri May 22 19:37:13 2020

@<TRIPOS>MOLECULE
5ywi_1_NTD
   23    24     1     0     0
SMALL
NO_CHARGES


@<TRIPOS>ATOM
      1 O1        -25.4570   -8.1340   23.6610 O.2       1 NTD502      0.0000 
      2 C5        -24.3640   -7.9530   23.2420 C.2       1 NTD502      0.0000 
      3 C2        -23.2060   -8.7660   23.8360 C.3       1 NTD502      0.0000 
      4 C3        -21.9020   -8.7560   22.9570 C.3       1 NTD502      0.0000 
      5 C4        -22.2280   -8.5480   21.4410 C.3       1 NTD502      0.0000 
      6 C1        -22.9210   -7.2000   21.3120 C.2       1 NTD502      0.0000 
      7 O5        -22.5080   -6.3560   20.5900 O.2       1 NTD502      0.0000 
      8 C6        -24.1240   -6.9750   22.1430 C.2       1 NTD502      0.0000 
      9 C7        -25.0730   -6.1800   21.6800 C.2       1 NTD502      0.0000 
     10 O7        -24.9420   -5.6580   20.3860 O.co2     1 NTD502      0.0000 
     11 C8        -26.0890   -5.5350   22.6220 C.ar      1 NTD502      0.0000 
     12 C13       -25.6830   -4.5240   23.4780 C.ar      1 NTD502      0.0000 
     13 C12       -26.5960   -3.9290   24.3330 C.ar      1 NTD502      0.0000 
     14 C11       -27.9170   -4.3430   24.3310 C.ar      1 NTD502      0.0000 
     15 C14       -28.9240   -3.6890   25.2730 C.3       1 NTD502      0.0000 
     16 F2        -28.2850   -3.2730   26.4050 F         1 NTD502      0.0000 
     17 F3        -29.4940   -2.6170   24.6500 F         1 NTD502      0.0000 
     18 F1        -29.8910   -4.5940   25.6020 F         1 NTD502      0.0000 
     19 C10       -28.3270   -5.3510   23.4750 C.ar      1 NTD502      0.0000 
     20 C9        -27.4150   -5.9480   22.6180 C.ar      1 NTD502      0.0000 
     21 N         -27.8600   -7.0050   21.7260 N.pl3     1 NTD502      0.0000 
     22 ON2       -27.7780   -6.8730   20.5610 O.2       1 NTD502      0.0000 
     23 ON1       -28.3960   -8.1870   22.2570 O.2       1 NTD502      0.0000 
@<TRIPOS>BOND
     1    1    2 2    
     2    2    3 1    
     3    2    8 1    
     4    3    4 1    
     5    4    5 1    
     6    5    6 1    
     7    6    7 2    
     8    6    8 1    
     9    8    9 2    
    10    9   10 ar   
    11    9   11 1    
    12   11   12 ar   
    13   11   20 ar   
    14   12   13 ar   
    15   13   14 ar   
    16   14   15 1    
    17   14   19 ar   
    18   15   16 1    
    19   15   17 1    
    20   15   18 1    
    21   19   20 ar   
    22   20   21 1    
    23   21   22 2    
    24   21   23 2    
@<TRIPOS>SUBSTRUCTURE
     1 NTD502      1 GROUP   
@<TRIPOS>SET

