#    Name: 5nhg_8_FAD
#    Modification time : Fri May 22 19:17:43 2020

@<TRIPOS>MOLECULE
5nhg_8_FAD
   84    89     1     0     1
SMALL
NO_CHARGES


@<TRIPOS>ATOM
      1 PA         -6.1120  112.9520  -72.4300 P.3       1 FAD500      0.0000 
      2 O1A        -6.1830  112.5240  -71.0120 O.co2     1 FAD500      0.0000 
      3 O2A        -6.8680  114.2120  -72.8510 O.co2     1 FAD500      0.0000 
      4 O5B        -4.5470  113.0770  -72.7160 O.3       1 FAD500      0.0000 
      5 C5B        -4.0240  114.0620  -73.6330 C.3       1 FAD500      0.0000 
      6 C4B        -2.5970  114.4270  -73.2750 C.3       1 FAD500      0.0000 
      7 O4B        -1.8040  114.4950  -74.4820 O.3       1 FAD500      0.0000 
      8 C3B        -2.4080  115.7670  -72.5580 C.3       1 FAD500      0.0000 
      9 O3B        -1.4700  115.6610  -71.4910 O.3       1 FAD500      0.0000 
     10 C2B        -1.8980  116.6990  -73.6660 C.3       1 FAD500      0.0000 
     11 O2B        -1.0200  117.6880  -73.1390 O.3       1 FAD500      0.0000 
     12 C1B        -1.1230  115.7320  -74.5600 C.3       1 FAD500      0.0000 
     13 N9A        -1.0820  116.1170  -75.9670 N.pl3     1 FAD500      0.0000 
     14 C8A        -2.1570  116.2740  -76.8040 C.2       1 FAD500      0.0000 
     15 N7A        -1.8340  116.5910  -78.0360 N.2       1 FAD500      0.0000 
     16 C5A        -0.4470  116.6360  -78.0090 C.ar      1 FAD500      0.0000 
     17 C6A         0.5110  116.9130  -79.0040 C.ar      1 FAD500      0.0000 
     18 N6A         0.1970  117.2140  -80.2690 N.pl3     1 FAD500      0.0000 
     19 N1A         1.8180  116.8750  -78.6460 N.ar      1 FAD500      0.0000 
     20 C2A         2.1360  116.5740  -77.3790 C.ar      1 FAD500      0.0000 
     21 N3A         1.3170  116.2930  -76.3580 N.ar      1 FAD500      0.0000 
     22 C4A         0.0320  116.3400  -76.7420 C.ar      1 FAD500      0.0000 
     23 N1        -13.1730  109.5250  -67.3250 N.2       1 FAD500      0.0000 
     24 C2        -13.3620  108.4310  -66.5280 C.2       1 FAD500      0.0000 
     25 O2        -13.1960  107.2800  -66.9540 O.2       1 FAD500      0.0000 
     26 N3        -13.7540  108.6000  -65.2120 N.am      1 FAD500      0.0000 
     27 C4        -13.9890  109.8050  -64.5890 C.2       1 FAD500      0.0000 
     28 O4        -14.3360  109.8370  -63.4090 O.2       1 FAD500      0.0000 
     29 C4X       -13.7830  110.9580  -65.4420 C.2       1 FAD500      0.0000 
     30 N5        -13.9800  112.1270  -64.9320 N.2       1 FAD500      0.0000 
     31 C5X       -13.7830  113.2350  -65.7380 C.ar      1 FAD500      0.0000 
     32 C6        -13.9900  114.5010  -65.1890 C.ar      1 FAD500      0.0000 
     33 C7        -13.8140  115.6520  -65.9510 C.ar      1 FAD500      0.0000 
     34 C7M       -14.0490  117.0000  -65.3210 C.3       1 FAD500      0.0000 
     35 C8        -13.4140  115.5400  -67.2920 C.ar      1 FAD500      0.0000 
     36 C8M       -13.2060  116.7680  -68.1400 C.3       1 FAD500      0.0000 
     37 C9        -13.2020  114.2770  -67.8400 C.ar      1 FAD500      0.0000 
     38 C9A       -13.3840  113.1240  -67.0800 C.ar      1 FAD500      0.0000 
     39 N10       -13.1840  111.8270  -67.6030 N.pl3     1 FAD500      0.0000 
     40 C10       -13.3690  110.7180  -66.8000 C.2       1 FAD500      0.0000 
     41 C1'       -12.7500  111.6240  -69.0050 C.3       1 FAD500      0.0000 
     42 C2'       -11.2890  111.1920  -69.1100 C.3       1 FAD500      0.0000 
     43 O2'       -10.4300  112.1720  -68.5270 O.3       1 FAD500      0.0000 
     44 C3'       -10.8930  110.9970  -70.5760 C.3       1 FAD500      0.0000 
     45 O3'       -11.7560  110.0570  -71.2080 O.3       1 FAD500      0.0000 
     46 C4'        -9.4620  110.4660  -70.6900 C.3       1 FAD500      0.0000 
     47 O4'        -8.5680  111.3140  -69.9670 O.3       1 FAD500      0.0000 
     48 C5'        -8.9660  110.3120  -72.1100 C.3       1 FAD500      0.0000 
     49 O5'        -7.5820  109.9040  -72.0700 O.3       1 FAD500      0.0000 
     50 P          -6.6140  110.1930  -73.2750 P.3       1 FAD500      0.0000 
     51 O1P        -5.2200  109.8080  -72.7730 O.co2     1 FAD500      0.0000 
     52 O2P        -7.2880  109.5770  -74.4900 O.co2     1 FAD500      0.0000 
     53 O3P        -6.6660  111.8100  -73.3840 O.3       1 FAD500      0.0000 
     54 H51A       -4.0450  113.7140  -74.5050 H         1 FAD500      0.0000 
     55 H52A       -4.5590  114.8330  -73.5960 H         1 FAD500      0.0000 
     56 H4B        -2.2440  113.7500  -72.7280 H         1 FAD500      0.0000 
     57 H3B        -3.2340  116.0770  -72.2360 H         1 FAD500      0.0000 
     58 HO3A       -1.4030  116.3950  -71.1060 H         1 FAD500      0.0000 
     59 H2B        -2.6130  117.0880  -74.1330 H         1 FAD500      0.0000 
     60 HO2A       -1.2370  117.8620  -72.3550 H         1 FAD500      0.0000 
     61 H1B        -0.2490  115.6320  -74.2300 H         1 FAD500      0.0000 
     62 H8A        -3.0360  116.1690  -76.5230 H         1 FAD500      0.0000 
     63 H61A       -0.6350  117.2500  -80.5130 H         1 FAD500      0.0000 
     64 H62A        0.8260  117.3730  -80.8460 H         1 FAD500      0.0000 
     65 H2A         3.0440  116.5570  -77.1850 H         1 FAD500      0.0000 
     66 HN3       -13.8700  107.8820  -64.7390 H         1 FAD500      0.0000 
     67 H6        -14.2520  114.4200  -64.3010 H         1 FAD500      0.0000 
     68 HM71      -13.2710  117.5200  -65.3960 H         1 FAD500      0.0000 
     69 HM72      -14.2650  116.8880  -64.4140 H         1 FAD500      0.0000 
     70 HM73      -14.7580  117.4310  -65.7600 H         1 FAD500      0.0000 
     71 HM81      -14.0100  117.2500  -68.1950 H         1 FAD500      0.0000 
     72 HM82      -12.5430  117.3080  -67.7520 H         1 FAD500      0.0000 
     73 HM83      -12.9360  116.5110  -69.0020 H         1 FAD500      0.0000 
     74 H9        -12.9480  114.4280  -68.7200 H         1 FAD500      0.0000 
     75 H1'1      -13.2900  110.9630  -69.3970 H         1 FAD500      0.0000 
     76 H1'2      -12.8630  112.4280  -69.4760 H         1 FAD500      0.0000 
     77 H2'       -11.1770  110.3800  -68.6530 H         1 FAD500      0.0000 
     78 HO2'      -10.5650  112.9100  -68.8870 H         1 FAD500      0.0000 
     79 H3'       -10.9530  111.8200  -71.0240 H         1 FAD500      0.0000 
     80 HO3'      -11.7160  109.3290  -70.8070 H         1 FAD500      0.0000 
     81 H4'        -9.4400  109.6180  -70.2870 H         1 FAD500      0.0000 
     82 HO4'       -8.4290  112.0080  -70.4050 H         1 FAD500      0.0000 
     83 H5'1       -9.0400  111.1320  -72.5610 H         1 FAD500      0.0000 
     84 H5'2       -9.4740  109.6590  -72.5540 H         1 FAD500      0.0000 
@<TRIPOS>BOND
     1    1    2 ar   
     2    1    3 ar   
     3    1    4 1    
     4    1   53 1    
     5    4    5 1    
     6    5    6 1    
     7    6    7 1    
     8    5   54 1    
     9    5   55 1    
    10    6    8 1    
    11    7   12 1    
    12    6   56 1    
    13    8    9 1    
    14    8   10 1    
    15   10   11 1    
    16    8   57 1    
    17    9   58 1    
    18   10   12 1    
    19   12   13 1    
    20   10   59 1    
    21   11   60 1    
    22   13   14 1    
    23   12   61 1    
    24   13   22 1    
    25   14   15 2    
    26   15   16 1    
    27   14   62 1    
    28   16   17 ar   
    29   16   22 ar   
    30   17   18 1    
    31   17   19 ar   
    32   19   20 ar   
    33   18   63 1    
    34   18   64 1    
    35   20   21 ar   
    36   21   22 ar   
    37   20   65 1    
    38   23   24 1    
    39   23   40 2    
    40   24   25 2    
    41   24   26 am   
    42   26   27 am   
    43   27   28 2    
    44   26   66 1    
    45   27   29 1    
    46   29   30 2    
    47   29   40 1    
    48   30   31 1    
    49   31   32 ar   
    50   31   38 ar   
    51   32   33 ar   
    52   33   34 1    
    53   32   67 1    
    54   33   35 ar   
    55   35   36 1    
    56   34   68 1    
    57   34   69 1    
    58   34   70 1    
    59   35   37 ar   
    60   37   74 1    
    61   37   38 ar   
    62   36   71 1    
    63   36   72 1    
    64   36   73 1    
    65   38   39 1    
    66   39   40 1    
    67   39   41 1    
    68   41   42 1    
    69   42   43 1    
    70   41   75 1    
    71   41   76 1    
    72   42   44 1    
    73   44   45 1    
    74   42   77 1    
    75   43   78 1    
    76   44   46 1    
    77   46   47 1    
    78   44   79 1    
    79   45   80 1    
    80   46   48 1    
    81   48   49 1    
    82   46   81 1    
    83   47   82 1    
    84   49   50 1    
    85   48   83 1    
    86   48   84 1    
    87   50   51 ar   
    88   50   52 ar   
    89   50   53 1    
@<TRIPOS>SUBSTRUCTURE
     1 FAD500      1 GROUP   
@<TRIPOS>SET
ATOM$ORANGE STATIC     ATOMS   COLORGROUP SYSTEM 
54 5 5 6 6 8 8 10 10 12 12 14 14 16 16 17 17 20 \
20 22 22 24 24 27 27 29 29 31 31 32 32 33 33 34 34 35 \
35 36 36 37 37 38 38 40 40 41 41 42 42 44 44 46 46 48 \
48 

