#    Name: 5nhg_1_FAD
#    Modification time : Fri May 22 19:16:12 2020

@<TRIPOS>MOLECULE
5nhg_1_FAD
   83    88     1     0     1
SMALL
NO_CHARGES


@<TRIPOS>ATOM
      1 PA         10.7020   -2.2490    3.7210 P.3       1 FAD501      0.0000 
      2 O1A        10.3260   -1.8600    2.3420 O.co2     1 FAD501      0.0000 
      3 O2A        10.2400   -3.6330    4.2010 O.co2     1 FAD501      0.0000 
      4 O5B        12.2650   -2.1070    3.8750 O.3       1 FAD501      0.0000 
      5 C5B        12.9840   -2.8140    4.9070 C.3       1 FAD501      0.0000 
      6 C4B        14.3500   -3.1670    4.3730 C.3       1 FAD501      0.0000 
      7 O4B        15.2940   -3.2210    5.4650 O.3       1 FAD501      0.0000 
      8 C3B        14.4430   -4.5160    3.6540 C.3       1 FAD501      0.0000 
      9 O3B        15.2150   -4.3910    2.4650 O.3       1 FAD501      0.0000 
     10 C2B        15.1100   -5.4250    4.6930 C.3       1 FAD501      0.0000 
     11 O2B        15.9440   -6.4230    4.1200 O.3       1 FAD501      0.0000 
     12 C1B        16.0090   -4.4370    5.4270 C.3       1 FAD501      0.0000 
     13 N9A        16.3190   -4.8090    6.8040 N.pl3     1 FAD501      0.0000 
     14 C8A        15.4260   -5.1190    7.7980 C.2       1 FAD501      0.0000 
     15 N7A        15.9880   -5.3890    8.9510 N.2       1 FAD501      0.0000 
     16 C5A        17.3420   -5.2440    8.6970 C.ar      1 FAD501      0.0000 
     17 C6A        18.4780   -5.3870    9.5120 C.ar      1 FAD501      0.0000 
     18 N6A        18.4220   -5.7220   10.8060 N.pl3     1 FAD501      0.0000 
     19 N1A        19.6860   -5.1630    8.9490 N.ar      1 FAD501      0.0000 
     20 C2A        19.7500   -4.8310    7.6550 C.ar      1 FAD501      0.0000 
     21 N3A        18.7460   -4.6610    6.7930 N.ar      1 FAD501      0.0000 
     22 C4A        17.5620   -4.8800    7.3810 C.ar      1 FAD501      0.0000 
     23 N1          2.7730    0.1230   -0.5970 N.2       1 FAD501      0.0000 
     24 C2          2.2920    1.1890   -1.3050 C.2       1 FAD501      0.0000 
     25 O2          2.3340    2.3450   -0.8670 O.2       1 FAD501      0.0000 
     26 N3          1.7350    0.9890   -2.5490 N.am      1 FAD501      0.0000 
     27 C4          1.6010   -0.2180   -3.1850 C.2       1 FAD501      0.0000 
     28 O4          1.0860   -0.2670   -4.2990 O.2       1 FAD501      0.0000 
     29 C4X         2.1080   -1.3440   -2.4270 C.2       1 FAD501      0.0000 
     30 N5          2.0190   -2.5190   -2.9560 N.2       1 FAD501      0.0000 
     31 C5X         2.5120   -3.5990   -2.2400 C.ar      1 FAD501      0.0000 
     32 C6          2.4240   -4.8720   -2.8050 C.ar      1 FAD501      0.0000 
     33 C7          2.8960   -5.9910   -2.1280 C.ar      1 FAD501      0.0000 
     34 C7M         2.7850   -7.3470   -2.7770 C.3       1 FAD501      0.0000 
     35 C8          3.4810   -5.8380   -0.8600 C.ar      1 FAD501      0.0000 
     36 C8M         4.0130   -7.0270   -0.1050 C.3       1 FAD501      0.0000 
     37 C9          3.5680   -4.5690   -0.2960 C.ar      1 FAD501      0.0000 
     38 C9A         3.0900   -3.4520   -0.9710 C.ar      1 FAD501      0.0000 
     39 N10         3.1650   -2.1520   -0.4310 N.pl3     1 FAD501      0.0000 
     40 C10         2.6820   -1.0720   -1.1380 C.2       1 FAD501      0.0000 
     41 C1'         3.7560   -1.9190    0.8980 C.3       1 FAD501      0.0000 
     42 C2'         5.1700   -1.3640    0.8270 C.3       1 FAD501      0.0000 
     43 O2'         6.0460   -2.2820    0.1720 O.3       1 FAD501      0.0000 
     44 C3'         5.6830   -1.1010    2.2420 C.3       1 FAD501      0.0000 
     45 O3'         4.7670   -0.2630    2.9390 O.3       1 FAD501      0.0000 
     46 C4'         7.0410   -0.4130    2.2270 C.3       1 FAD501      0.0000 
     47 O4'         7.9500   -1.2090    1.4660 O.3       1 FAD501      0.0000 
     48 C5'         7.5810   -0.1810    3.6190 C.3       1 FAD501      0.0000 
     49 O5'         8.8490    0.4970    3.5180 O.3       1 FAD501      0.0000 
     50 P           9.9220    0.3800    4.6630 P.3       1 FAD501      0.0000 
     51 O1P        11.1990    0.9980    4.0830 O.co2     1 FAD501      0.0000 
     52 O2P         9.2950    0.8820    5.9190 O.co2     1 FAD501      0.0000 
     53 O3P        10.1320   -1.2030    4.7660 O.3       1 FAD501      0.0000 
     54 H51A       13.0720   -2.2660    5.6640 H         1 FAD501      0.0000 
     55 H52A       12.5210   -3.5990    5.1350 H         1 FAD501      0.0000 
     56 H4B        14.6240   -2.4950    3.7760 H         1 FAD501      0.0000 
     57 H3B        13.5820   -4.8330    3.4540 H         1 FAD501      0.0000 
     58 HO3A       14.9960   -4.9880    1.9290 H         1 FAD501      0.0000 
     59 H2B        14.4740   -5.7990    5.2740 H         1 FAD501      0.0000 
     60 HO2A       16.4540   -6.0730    3.5640 H         1 FAD501      0.0000 
     61 H1B        16.8040   -4.3190    4.9420 H         1 FAD501      0.0000 
     62 H8A        14.5070   -5.1330    7.6670 H         1 FAD501      0.0000 
     63 H61A       17.8160   -6.2770   11.0850 H         1 FAD501      0.0000 
     64 H62A       18.9920   -5.3840   11.3660 H         1 FAD501      0.0000 
     65 H2A        20.6030   -4.6860    7.3170 H         1 FAD501      0.0000 
     66 HN3         1.4360    1.6900   -2.9650 H         1 FAD501      0.0000 
     67 H6          2.0240   -4.8190   -3.6420 H         1 FAD501      0.0000 
     68 HM71        1.8860   -7.5230   -2.9820 H         1 FAD501      0.0000 
     69 HM72        3.1060   -8.0040   -2.1870 H         1 FAD501      0.0000 
     70 HM73        3.2950   -7.3590   -3.5650 H         1 FAD501      0.0000 
     71 HM81        3.3150   -7.6360    0.0530 H         1 FAD501      0.0000 
     72 HM82        4.3710   -6.7430    0.7150 H         1 FAD501      0.0000 
     73 HM83        4.6830   -7.4460   -0.6120 H         1 FAD501      0.0000 
     74 H9          3.9740   -4.6900    0.5310 H         1 FAD501      0.0000 
     75 H1'1        3.7730   -2.7320    1.3670 H         1 FAD501      0.0000 
     76 H1'2        3.2150   -1.3110    1.3660 H         1 FAD501      0.0000 
     77 H2'         5.1590   -0.5550    0.3490 H         1 FAD501      0.0000 
     78 HO2'        5.7610   -2.4400   -0.5930 H         1 FAD501      0.0000 
     79 H3'         5.7580   -1.9180    2.6980 H         1 FAD501      0.0000 
     80 H4'         6.9470    0.4200    1.8030 H         1 FAD501      0.0000 
     81 HO4'        8.4440   -0.7120    1.0170 H         1 FAD501      0.0000 
     82 H5'1        7.6980   -1.0050    4.0520 H         1 FAD501      0.0000 
     83 H5'2        6.9790    0.3490    4.1070 H         1 FAD501      0.0000 
@<TRIPOS>BOND
     1    1    2 ar   
     2    1    3 ar   
     3    1    4 1    
     4    1   53 1    
     5    4    5 1    
     6    5    6 1    
     7    6    7 1    
     8    5   54 1    
     9    5   55 1    
    10    6    8 1    
    11    7   12 1    
    12    6   56 1    
    13    8    9 1    
    14    8   10 1    
    15   10   11 1    
    16    8   57 1    
    17    9   58 1    
    18   10   12 1    
    19   12   13 1    
    20   10   59 1    
    21   11   60 1    
    22   13   14 1    
    23   12   61 1    
    24   13   22 1    
    25   14   15 2    
    26   15   16 1    
    27   14   62 1    
    28   16   17 ar   
    29   16   22 ar   
    30   17   18 1    
    31   17   19 ar   
    32   19   20 ar   
    33   18   63 1    
    34   18   64 1    
    35   20   21 ar   
    36   21   22 ar   
    37   20   65 1    
    38   23   24 1    
    39   23   40 2    
    40   24   25 2    
    41   24   26 am   
    42   26   27 am   
    43   27   28 2    
    44   26   66 1    
    45   27   29 1    
    46   29   30 2    
    47   29   40 1    
    48   30   31 1    
    49   31   32 ar   
    50   31   38 ar   
    51   32   33 ar   
    52   33   34 1    
    53   32   67 1    
    54   33   35 ar   
    55   35   36 1    
    56   34   68 1    
    57   34   69 1    
    58   34   70 1    
    59   35   37 ar   
    60   37   74 1    
    61   37   38 ar   
    62   36   71 1    
    63   36   72 1    
    64   36   73 1    
    65   38   39 1    
    66   39   40 1    
    67   39   41 1    
    68   41   42 1    
    69   42   43 1    
    70   41   75 1    
    71   41   76 1    
    72   42   44 1    
    73   44   45 1    
    74   42   77 1    
    75   43   78 1    
    76   44   46 1    
    77   46   47 1    
    78   44   79 1    
    79   46   48 1    
    80   48   49 1    
    81   46   80 1    
    82   47   81 1    
    83   49   50 1    
    84   48   82 1    
    85   48   83 1    
    86   50   51 ar   
    87   50   52 ar   
    88   50   53 1    
@<TRIPOS>SUBSTRUCTURE
     1 FAD501      1 GROUP   
@<TRIPOS>SET
ATOM$ORANGE STATIC     ATOMS   COLORGROUP SYSTEM 
54 5 5 6 6 8 8 10 10 12 12 14 14 16 16 17 17 20 \
20 22 22 24 24 27 27 29 29 31 31 32 32 33 33 34 34 35 \
35 36 36 37 37 38 38 40 40 41 41 42 42 44 44 46 46 48 \
48 

