#    Name: 5nhg_5_FAD
#    Modification time : Fri May 22 19:17:04 2020

@<TRIPOS>MOLECULE
5nhg_5_FAD
   83    88     1     0     1
SMALL
NO_CHARGES


@<TRIPOS>ATOM
      1 PA        -31.6690   34.2980   32.4670 P.3       1 FAD501      0.0000 
      2 O1A       -31.3610   35.5180   31.6830 O.co2     1 FAD501      0.0000 
      3 O2A       -31.1590   34.1190   33.8890 O.co2     1 FAD501      0.0000 
      4 O5B       -33.2300   34.0870   32.5110 O.3       1 FAD501      0.0000 
      5 C5B       -33.8420   33.2210   33.4920 C.3       1 FAD501      0.0000 
      6 C4B       -35.2360   33.7440   33.7420 C.3       1 FAD501      0.0000 
      7 O4B       -36.1050   32.6600   34.1550 O.3       1 FAD501      0.0000 
      8 C3B       -35.3390   34.8230   34.8250 C.3       1 FAD501      0.0000 
      9 O3B       -36.1820   35.8870   34.3910 O.3       1 FAD501      0.0000 
     10 C2B       -35.8960   34.0540   36.0310 C.3       1 FAD501      0.0000 
     11 O2B       -36.6490   34.9070   36.8860 O.3       1 FAD501      0.0000 
     12 C1B       -36.7890   33.0210   35.3400 C.3       1 FAD501      0.0000 
     13 N9A       -37.0700   31.7950   36.1000 N.pl3     1 FAD501      0.0000 
     14 C8A       -36.1690   30.9620   36.7110 C.2       1 FAD501      0.0000 
     15 N7A       -36.7140   29.9220   37.2970 N.2       1 FAD501      0.0000 
     16 C5A       -38.0690   30.0760   37.0460 C.ar      1 FAD501      0.0000 
     17 C6A       -39.1950   29.3040   37.3960 C.ar      1 FAD501      0.0000 
     18 N6A       -39.1340   28.1710   38.1030 N.pl3     1 FAD501      0.0000 
     19 N1A       -40.4060   29.7420   36.9880 N.ar      1 FAD501      0.0000 
     20 C2A       -40.4830   30.8700   36.2780 C.ar      1 FAD501      0.0000 
     21 N3A       -39.4920   31.6740   35.8870 N.ar      1 FAD501      0.0000 
     22 C4A       -38.3030   31.2220   36.3060 C.ar      1 FAD501      0.0000 
     23 N1        -23.8330   38.1130   28.9780 N.2       1 FAD501      0.0000 
     24 C2        -23.4140   38.5410   27.7500 C.2       1 FAD501      0.0000 
     25 O2        -23.4800   37.8170   26.7480 O.2       1 FAD501      0.0000 
     26 N3        -22.9040   39.8190   27.6070 N.am      1 FAD501      0.0000 
     27 C4        -22.7620   40.7460   28.6150 C.2       1 FAD501      0.0000 
     28 O4        -22.2880   41.8550   28.3760 O.2       1 FAD501      0.0000 
     29 C4X       -23.2110   40.2770   29.9110 C.2       1 FAD501      0.0000 
     30 N5        -23.1110   41.0870   30.9160 N.2       1 FAD501      0.0000 
     31 C5X       -23.5390   40.6480   32.1500 C.ar      1 FAD501      0.0000 
     32 C6        -23.4380   41.5150   33.2330 C.ar      1 FAD501      0.0000 
     33 C7        -23.8520   41.1310   34.5010 C.ar      1 FAD501      0.0000 
     34 C7M       -23.7270   42.0980   35.6460 C.3       1 FAD501      0.0000 
     35 C8        -24.3880   39.8500   34.6950 C.ar      1 FAD501      0.0000 
     36 C8M       -24.8440   39.4120   36.0630 C.3       1 FAD501      0.0000 
     37 C9        -24.4870   38.9790   33.6130 C.ar      1 FAD501      0.0000 
     38 C9A       -24.0690   39.3660   32.3430 C.ar      1 FAD501      0.0000 
     39 N10       -24.1570   38.5150   31.2210 N.pl3     1 FAD501      0.0000 
     40 C10       -23.7380   38.9420   29.9890 C.2       1 FAD501      0.0000 
     41 C1'       -24.6960   37.1520   31.3420 C.3       1 FAD501      0.0000 
     42 C2'       -26.1250   37.0270   30.8310 C.3       1 FAD501      0.0000 
     43 O2'       -27.0050   37.8030   31.6420 O.3       1 FAD501      0.0000 
     44 C3'       -26.5650   35.5650   30.8960 C.3       1 FAD501      0.0000 
     45 O3'       -25.6930   34.7690   30.1010 O.3       1 FAD501      0.0000 
     46 C4'       -27.9860   35.4080   30.3660 C.3       1 FAD501      0.0000 
     47 O4'       -28.8260   36.3660   31.0080 O.3       1 FAD501      0.0000 
     48 C5'       -28.5530   34.0180   30.5480 C.3       1 FAD501      0.0000 
     49 O5'       -29.8180   33.9500   29.8590 O.3       1 FAD501      0.0000 
     50 P         -30.8540   32.8150   30.1610 P.3       1 FAD501      0.0000 
     51 O1P       -32.0670   33.1980   29.3110 O.co2     1 FAD501      0.0000 
     52 O2P       -30.1800   31.5070   29.9680 O.co2     1 FAD501      0.0000 
     53 O3P       -31.2000   33.0070   31.6750 O.3       1 FAD501      0.0000 
     54 H51A      -33.8830   32.3430   33.1620 H         1 FAD501      0.0000 
     55 H52A      -33.3450   33.2400   34.2890 H         1 FAD501      0.0000 
     56 H4B       -35.5700   34.1010   32.9400 H         1 FAD501      0.0000 
     57 H3B       -34.4830   35.1510   35.0270 H         1 FAD501      0.0000 
     58 HO3A      -36.1780   36.4930   34.9610 H         1 FAD501      0.0000 
     59 H2B       -35.2030   33.6300   36.5020 H         1 FAD501      0.0000 
     60 HO2A      -36.2000   35.5840   37.0690 H         1 FAD501      0.0000 
     61 H1B       -37.6000   33.4320   35.1080 H         1 FAD501      0.0000 
     62 H8A       -35.2540   31.1220   36.7140 H         1 FAD501      0.0000 
     63 H61A      -38.6750   28.1430   38.8400 H         1 FAD501      0.0000 
     64 H62A      -39.5520   27.4630   37.8260 H         1 FAD501      0.0000 
     65 H2A       -41.3380   31.1270   36.0180 H         1 FAD501      0.0000 
     66 HN3       -22.6420   40.0540   26.8130 H         1 FAD501      0.0000 
     67 H6        -23.0750   42.3240   32.9560 H         1 FAD501      0.0000 
     68 HM71      -24.5710   42.2330   36.0350 H         1 FAD501      0.0000 
     69 HM72      -23.1380   41.7490   36.2880 H         1 FAD501      0.0000 
     70 HM73      -23.3940   42.9170   35.3290 H         1 FAD501      0.0000 
     71 HM81      -24.1180   39.4380   36.6580 H         1 FAD501      0.0000 
     72 HM82      -25.5190   39.9900   36.3680 H         1 FAD501      0.0000 
     73 HM83      -25.1790   38.5360   36.0160 H         1 FAD501      0.0000 
     74 H9        -24.8550   38.1970   33.9540 H         1 FAD501      0.0000 
     75 H1'1      -24.1490   36.5660   30.8540 H         1 FAD501      0.0000 
     76 H1'2      -24.6770   36.9000   32.2470 H         1 FAD501      0.0000 
     77 H2'       -26.1690   37.3280   29.9420 H         1 FAD501      0.0000 
     78 HO2'      -26.7930   38.6060   31.5920 H         1 FAD501      0.0000 
     79 H3'       -26.5310   35.2700   31.7870 H         1 FAD501      0.0000 
     80 H4'       -27.9750   35.5980   29.4470 H         1 FAD501      0.0000 
     81 HO4'      -29.5770   36.3610   30.6490 H         1 FAD501      0.0000 
     82 H5'1      -28.6810   33.8440   31.4620 H         1 FAD501      0.0000 
     83 H5'2      -27.9620   33.3850   30.1850 H         1 FAD501      0.0000 
@<TRIPOS>BOND
     1    1    2 ar   
     2    1    3 ar   
     3    1    4 1    
     4    1   53 1    
     5    4    5 1    
     6    5    6 1    
     7    6    7 1    
     8    5   54 1    
     9    5   55 1    
    10    6    8 1    
    11    7   12 1    
    12    6   56 1    
    13    8    9 1    
    14    8   10 1    
    15   10   11 1    
    16    8   57 1    
    17    9   58 1    
    18   10   12 1    
    19   12   13 1    
    20   10   59 1    
    21   11   60 1    
    22   13   14 1    
    23   12   61 1    
    24   13   22 1    
    25   14   15 2    
    26   15   16 1    
    27   14   62 1    
    28   16   17 ar   
    29   16   22 ar   
    30   17   18 1    
    31   17   19 ar   
    32   19   20 ar   
    33   18   63 1    
    34   18   64 1    
    35   20   21 ar   
    36   21   22 ar   
    37   20   65 1    
    38   23   24 1    
    39   23   40 2    
    40   24   25 2    
    41   24   26 am   
    42   26   27 am   
    43   27   28 2    
    44   26   66 1    
    45   27   29 1    
    46   29   30 2    
    47   29   40 1    
    48   30   31 1    
    49   31   32 ar   
    50   31   38 ar   
    51   32   33 ar   
    52   33   34 1    
    53   32   67 1    
    54   33   35 ar   
    55   35   36 1    
    56   34   68 1    
    57   34   69 1    
    58   34   70 1    
    59   35   37 ar   
    60   37   74 1    
    61   37   38 ar   
    62   36   71 1    
    63   36   72 1    
    64   36   73 1    
    65   38   39 1    
    66   39   40 1    
    67   39   41 1    
    68   41   42 1    
    69   42   43 1    
    70   41   75 1    
    71   41   76 1    
    72   42   44 1    
    73   44   45 1    
    74   42   77 1    
    75   43   78 1    
    76   44   46 1    
    77   46   47 1    
    78   44   79 1    
    79   46   48 1    
    80   48   49 1    
    81   46   80 1    
    82   47   81 1    
    83   49   50 1    
    84   48   82 1    
    85   48   83 1    
    86   50   51 ar   
    87   50   52 ar   
    88   50   53 1    
@<TRIPOS>SUBSTRUCTURE
     1 FAD501      1 GROUP   
@<TRIPOS>SET
ATOM$ORANGE STATIC     ATOMS   COLORGROUP SYSTEM 
54 5 5 6 6 8 8 10 10 12 12 14 14 16 16 17 17 20 \
20 22 22 24 24 27 27 29 29 31 31 32 32 33 33 34 34 35 \
35 36 36 37 37 38 38 40 40 41 41 42 42 44 44 46 46 48 \
48 

