#    Name: 5nhg_4_FAD
#    Modification time : Fri May 22 19:16:52 2020

@<TRIPOS>MOLECULE
5nhg_4_FAD
   83    88     1     0     1
SMALL
NO_CHARGES


@<TRIPOS>ATOM
      1 PA        -12.0730   74.2600 -100.8350 P.3       1 FAD500      0.0000 
      2 O1A       -12.0190   73.0370  -99.9980 O.co2     1 FAD500      0.0000 
      3 O2A       -11.3520   74.1910 -102.1810 O.co2     1 FAD500      0.0000 
      4 O5B       -13.5750   74.6770 -101.0030 O.3       1 FAD500      0.0000 
      5 C5B       -14.0500   75.2760 -102.2270 C.3       1 FAD500      0.0000 
      6 C4B       -15.4370   74.7760 -102.5390 C.3       1 FAD500      0.0000 
      7 O4B       -16.2570   75.8800 -102.9960 O.3       1 FAD500      0.0000 
      8 C3B       -15.4940   73.7190 -103.6420 C.3       1 FAD500      0.0000 
      9 O3B       -16.4690   72.7350 -103.3240 O.3       1 FAD500      0.0000 
     10 C2B       -15.8850   74.5340 -104.8780 C.3       1 FAD500      0.0000 
     11 O2B       -16.5920   73.7830 -105.8570 O.3       1 FAD500      0.0000 
     12 C1B       -16.8220   75.5620 -104.2540 C.3       1 FAD500      0.0000 
     13 N9A       -16.9760   76.7900 -105.0350 N.pl3     1 FAD500      0.0000 
     14 C8A       -15.9830   77.5780 -105.5580 C.2       1 FAD500      0.0000 
     15 N7A       -16.4270   78.6160 -106.2270 N.2       1 FAD500      0.0000 
     16 C5A       -17.8060   78.4980 -106.1420 C.ar      1 FAD500      0.0000 
     17 C6A       -18.8600   79.2870 -106.6400 C.ar      1 FAD500      0.0000 
     18 N6A       -18.6820   80.4060 -107.3500 N.pl3     1 FAD500      0.0000 
     19 N1A       -20.1220   78.8900 -106.3680 N.ar      1 FAD500      0.0000 
     20 C2A       -20.3130   77.7790 -105.6550 C.ar      1 FAD500      0.0000 
     21 N3A       -19.3980   76.9620 -105.1340 N.ar      1 FAD500      0.0000 
     22 C4A       -18.1580   77.3780 -105.4140 C.ar      1 FAD500      0.0000 
     23 N1         -5.1000   69.9540  -96.4600 N.2       1 FAD500      0.0000 
     24 C2         -4.7860   69.5370  -95.1950 C.2       1 FAD500      0.0000 
     25 O2         -4.8920   70.2750  -94.2070 O.2       1 FAD500      0.0000 
     26 N3         -4.3350   68.2490  -94.9900 N.am      1 FAD500      0.0000 
     27 C4         -4.1540   67.2910  -95.9640 C.2       1 FAD500      0.0000 
     28 O4         -3.7420   66.1730  -95.6550 O.2       1 FAD500      0.0000 
     29 C4X        -4.4870   67.7390  -97.3060 C.2       1 FAD500      0.0000 
     30 N5         -4.3460   66.8900  -98.2930 N.2       1 FAD500      0.0000 
     31 C5X        -4.6680   67.3170  -99.5750 C.ar      1 FAD500      0.0000 
     32 C6         -4.5190   66.4200 -100.6320 C.ar      1 FAD500      0.0000 
     33 C7         -4.8200   66.7900 -101.9400 C.ar      1 FAD500      0.0000 
     34 C7M        -4.6480   65.7790 -103.0460 C.3       1 FAD500      0.0000 
     35 C8         -5.2940   68.0900 -102.2000 C.ar      1 FAD500      0.0000 
     36 C8M        -5.6310   68.5320 -103.6050 C.3       1 FAD500      0.0000 
     37 C9         -5.4390   68.9860 -101.1430 C.ar      1 FAD500      0.0000 
     38 C9A        -5.1320   68.6150  -99.8370 C.ar      1 FAD500      0.0000 
     39 N10        -5.2850   69.4970  -98.7440 N.pl3     1 FAD500      0.0000 
     40 C10        -4.9570   69.0910  -97.4580 C.2       1 FAD500      0.0000 
     41 C1'        -5.7450   70.8840  -98.9550 C.3       1 FAD500      0.0000 
     42 C2'        -7.2060   71.1130  -98.5880 C.3       1 FAD500      0.0000 
     43 O2'        -8.0770   70.3780  -99.4500 O.3       1 FAD500      0.0000 
     44 C3'        -7.5190   72.6030  -98.7220 C.3       1 FAD500      0.0000 
     45 O3'        -6.5970   73.3500  -97.9340 O.3       1 FAD500      0.0000 
     46 C4'        -8.9390   72.9520  -98.2890 C.3       1 FAD500      0.0000 
     47 O4'        -9.8400   72.1820  -99.0840 O.3       1 FAD500      0.0000 
     48 C5'        -9.2550   74.4270  -98.4200 C.3       1 FAD500      0.0000 
     49 O5'       -10.5800   74.6660  -97.9010 O.3       1 FAD500      0.0000 
     50 P         -11.5220   75.7590  -98.5310 P.3       1 FAD500      0.0000 
     51 O1P       -12.9720   75.4960  -98.1100 O.co2     1 FAD500      0.0000 
     52 O2P       -10.9210   77.0800  -98.2320 O.co2     1 FAD500      0.0000 
     53 O3P       -11.4130   75.4730 -100.0640 O.3       1 FAD500      0.0000 
     54 H51A      -14.0700   76.2100 -102.1300 H         1 FAD500      0.0000 
     55 H52A      -13.4720   75.0480 -102.9310 H         1 FAD500      0.0000 
     56 H4B       -15.8180   74.4180 -101.7580 H         1 FAD500      0.0000 
     57 H3B       -14.6500   73.3260 -103.7620 H         1 FAD500      0.0000 
     58 HO3A      -16.3480   72.0620 -103.7970 H         1 FAD500      0.0000 
     59 H2B       -15.1320   74.9550 -105.2500 H         1 FAD500      0.0000 
     60 HO2A      -16.7700   73.0290 -105.5530 H         1 FAD500      0.0000 
     61 H1B       -17.6640   75.1680 -104.1220 H         1 FAD500      0.0000 
     62 H8A       -15.0790   77.3950 -105.4480 H         1 FAD500      0.0000 
     63 H61A      -19.2550   81.0550 -107.2880 H         1 FAD500      0.0000 
     64 H62A      -17.9940   80.4830 -107.8730 H         1 FAD500      0.0000 
     65 H2A       -21.1990   77.5470 -105.4970 H         1 FAD500      0.0000 
     66 HN3        -4.1450   68.0230  -94.1730 H         1 FAD500      0.0000 
     67 H6         -4.2070   65.6060 -100.3130 H         1 FAD500      0.0000 
     68 HM71       -3.7600   65.4710 -103.0540 H         1 FAD500      0.0000 
     69 HM72       -5.2280   65.0550 -102.9010 H         1 FAD500      0.0000 
     70 HM73       -4.8470   66.1800 -103.8710 H         1 FAD500      0.0000 
     71 HM81       -4.8640   68.4740 -104.1440 H         1 FAD500      0.0000 
     72 HM82       -5.9360   69.4200 -103.5900 H         1 FAD500      0.0000 
     73 HM83       -6.3020   67.9760 -103.9560 H         1 FAD500      0.0000 
     74 H9         -5.7500   69.7730 -101.5270 H         1 FAD500      0.0000 
     75 H1'1       -5.2130   71.4580  -98.4360 H         1 FAD500      0.0000 
     76 H1'2       -5.6260   71.1030  -99.8600 H         1 FAD500      0.0000 
     77 H2'        -7.3490   70.8440  -97.7000 H         1 FAD500      0.0000 
     78 HO2'       -7.8690   69.5730  -99.4340 H         1 FAD500      0.0000 
     79 H3'        -7.4120   72.8510  -99.6220 H         1 FAD500      0.0000 
     80 H4'        -9.0460   72.7030  -97.3900 H         1 FAD500      0.0000 
     81 HO4'      -10.4120   71.8300  -98.5930 H         1 FAD500      0.0000 
     82 H5'1       -9.2220   74.6750  -99.3250 H         1 FAD500      0.0000 
     83 H5'2       -8.6300   74.9290  -97.9310 H         1 FAD500      0.0000 
@<TRIPOS>BOND
     1    1    2 ar   
     2    1    3 ar   
     3    1    4 1    
     4    1   53 1    
     5    4    5 1    
     6    5    6 1    
     7    6    7 1    
     8    5   54 1    
     9    5   55 1    
    10    6    8 1    
    11    7   12 1    
    12    6   56 1    
    13    8    9 1    
    14    8   10 1    
    15   10   11 1    
    16    8   57 1    
    17    9   58 1    
    18   10   12 1    
    19   12   13 1    
    20   10   59 1    
    21   11   60 1    
    22   13   14 1    
    23   12   61 1    
    24   13   22 1    
    25   14   15 2    
    26   15   16 1    
    27   14   62 1    
    28   16   17 ar   
    29   16   22 ar   
    30   17   18 1    
    31   17   19 ar   
    32   19   20 ar   
    33   18   63 1    
    34   18   64 1    
    35   20   21 ar   
    36   21   22 ar   
    37   20   65 1    
    38   23   24 1    
    39   23   40 2    
    40   24   25 2    
    41   24   26 am   
    42   26   27 am   
    43   27   28 2    
    44   26   66 1    
    45   27   29 1    
    46   29   30 2    
    47   29   40 1    
    48   30   31 1    
    49   31   32 ar   
    50   31   38 ar   
    51   32   33 ar   
    52   33   34 1    
    53   32   67 1    
    54   33   35 ar   
    55   35   36 1    
    56   34   68 1    
    57   34   69 1    
    58   34   70 1    
    59   35   37 ar   
    60   37   74 1    
    61   37   38 ar   
    62   36   71 1    
    63   36   72 1    
    64   36   73 1    
    65   38   39 1    
    66   39   40 1    
    67   39   41 1    
    68   41   42 1    
    69   42   43 1    
    70   41   75 1    
    71   41   76 1    
    72   42   44 1    
    73   44   45 1    
    74   42   77 1    
    75   43   78 1    
    76   44   46 1    
    77   46   47 1    
    78   44   79 1    
    79   46   48 1    
    80   48   49 1    
    81   46   80 1    
    82   47   81 1    
    83   49   50 1    
    84   48   82 1    
    85   48   83 1    
    86   50   51 ar   
    87   50   52 ar   
    88   50   53 1    
@<TRIPOS>SUBSTRUCTURE
     1 FAD500      1 GROUP   
@<TRIPOS>SET
ATOM$ORANGE STATIC     ATOMS   COLORGROUP SYSTEM 
54 5 5 6 6 8 8 10 10 12 12 14 14 16 16 17 17 20 \
20 22 22 24 24 27 27 29 29 31 31 32 32 33 33 34 34 35 \
35 36 36 37 37 38 38 40 40 41 41 42 42 44 44 46 46 48 \
48 

