#    Name: 5nhg_7_FAD
#    Modification time : Fri May 22 19:17:30 2020

@<TRIPOS>MOLECULE
5nhg_7_FAD
   83    88     1     0     1
SMALL
NO_CHARGES


@<TRIPOS>ATOM
      1 PA        -28.1650   82.2920  -35.1850 P.3       1 FAD501      0.0000 
      2 O1A       -28.1910   83.6120  -35.8620 O.co2     1 FAD501      0.0000 
      3 O2A       -27.4110   82.1140  -33.8560 O.co2     1 FAD501      0.0000 
      4 O5B       -29.6800   81.8980  -35.0660 O.3       1 FAD501      0.0000 
      5 C5B       -30.1860   81.1970  -33.9110 C.3       1 FAD501      0.0000 
      6 C4B       -31.6030   81.6500  -33.6590 C.3       1 FAD501      0.0000 
      7 O4B       -32.4100   80.5070  -33.2850 O.3       1 FAD501      0.0000 
      8 C3B       -31.7600   82.6630  -32.5250 C.3       1 FAD501      0.0000 
      9 O3B       -32.7850   83.6020  -32.8320 O.3       1 FAD501      0.0000 
     10 C2B       -32.1290   81.7760  -31.3340 C.3       1 FAD501      0.0000 
     11 O2B       -32.8540   82.5050  -30.3510 O.3       1 FAD501      0.0000 
     12 C1B       -33.0070   80.7340  -32.0220 C.3       1 FAD501      0.0000 
     13 N9A       -33.1130   79.4520  -31.3320 N.pl3     1 FAD501      0.0000 
     14 C8A       -32.0950   78.6550  -30.8770 C.2       1 FAD501      0.0000 
     15 N7A       -32.5030   77.5420  -30.3130 N.2       1 FAD501      0.0000 
     16 C5A       -33.8840   77.6090  -30.4120 C.ar      1 FAD501      0.0000 
     17 C6A       -34.9120   76.7350  -30.0050 C.ar      1 FAD501      0.0000 
     18 N6A       -34.6960   75.5710  -29.3880 N.pl3     1 FAD501      0.0000 
     19 N1A       -36.1860   77.1020  -30.2570 N.ar      1 FAD501      0.0000 
     20 C2A       -36.4140   78.2660  -30.8720 C.ar      1 FAD501      0.0000 
     21 N3A       -35.5260   79.1710  -31.2980 N.ar      1 FAD501      0.0000 
     22 C4A       -34.2730   78.7800  -31.0390 C.ar      1 FAD501      0.0000 
     23 N1        -21.2900   87.0550  -39.4050 N.2       1 FAD501      0.0000 
     24 C2        -21.0370   87.6130  -40.6250 C.2       1 FAD501      0.0000 
     25 O2        -21.1360   86.9630  -41.6690 O.2       1 FAD501      0.0000 
     26 N3        -20.6530   88.9350  -40.7120 N.am      1 FAD501      0.0000 
     27 C4        -20.4850   89.7990  -39.6510 C.2       1 FAD501      0.0000 
     28 O4        -20.1400   90.9610  -39.8610 O.2       1 FAD501      0.0000 
     29 C4X       -20.7560   89.1990  -38.3530 C.2       1 FAD501      0.0000 
     30 N5        -20.6270   89.9480  -37.2860 N.2       1 FAD501      0.0000 
     31 C5X       -20.8890   89.3730  -36.0520 C.ar      1 FAD501      0.0000 
     32 C6        -20.7510   90.1580  -34.9120 C.ar      1 FAD501      0.0000 
     33 C7        -20.9980   89.6370  -33.6470 C.ar      1 FAD501      0.0000 
     34 C7M       -20.8390   90.5490  -32.4560 C.3       1 FAD501      0.0000 
     35 C8        -21.4020   88.2950  -33.5150 C.ar      1 FAD501      0.0000 
     36 C8M       -21.6910   87.6730  -32.1690 C.3       1 FAD501      0.0000 
     37 C9        -21.5410   87.5090  -34.6550 C.ar      1 FAD501      0.0000 
     38 C9A       -21.2870   88.0330  -35.9200 C.ar      1 FAD501      0.0000 
     39 N10       -21.4120   87.2590  -37.0950 N.pl3     1 FAD501      0.0000 
     40 C10       -21.1540   87.8160  -38.3320 C.2       1 FAD501      0.0000 
     41 C1'       -21.8180   85.8390  -37.0290 C.3       1 FAD501      0.0000 
     42 C2'       -23.2780   85.6160  -37.4010 C.3       1 FAD501      0.0000 
     43 O2'       -24.1360   86.3890  -36.5610 O.3       1 FAD501      0.0000 
     44 C3'       -23.6170   84.1330  -37.2560 C.3       1 FAD501      0.0000 
     45 O3'       -22.6220   83.3680  -37.9270 O.3       1 FAD501      0.0000 
     46 C4'       -24.9780   83.7940  -37.8570 C.3       1 FAD501      0.0000 
     47 O4'       -25.9750   84.5520  -37.1720 O.3       1 FAD501      0.0000 
     48 C5'       -25.3240   82.3250  -37.7680 C.3       1 FAD501      0.0000 
     49 O5'       -26.6670   82.1370  -38.2570 O.3       1 FAD501      0.0000 
     50 P         -27.5800   80.9710  -37.7230 P.3       1 FAD501      0.0000 
     51 O1P       -28.9850   81.2900  -38.2450 O.co2     1 FAD501      0.0000 
     52 O2P       -26.9520   79.6740  -38.0630 O.co2     1 FAD501      0.0000 
     53 O3P       -27.5510   81.1840  -36.1430 O.3       1 FAD501      0.0000 
     54 H51A      -30.1730   80.2730  -34.0730 H         1 FAD501      0.0000 
     55 H52A      -29.6530   81.3950  -33.1640 H         1 FAD501      0.0000 
     56 H4B       -31.9510   82.0230  -34.4470 H         1 FAD501      0.0000 
     57 H3B       -30.9450   83.1010  -32.3650 H         1 FAD501      0.0000 
     58 HO3A      -32.7290   84.2520  -32.3150 H         1 FAD501      0.0000 
     59 H2B       -31.3630   81.3770  -30.9660 H         1 FAD501      0.0000 
     60 HO2A      -33.4340   82.9710  -30.7240 H         1 FAD501      0.0000 
     61 H1B       -33.8650   81.0930  -32.1480 H         1 FAD501      0.0000 
     62 H8A       -31.1990   78.8840  -30.9570 H         1 FAD501      0.0000 
     63 H61A      -35.2740   74.9270  -29.4600 H         1 FAD501      0.0000 
     64 H62A      -33.9780   75.4580  -28.9130 H         1 FAD501      0.0000 
     65 H2A       -37.3070   78.4750  -31.0220 H         1 FAD501      0.0000 
     66 HN3       -20.4960   89.2490  -41.5060 H         1 FAD501      0.0000 
     67 H6        -20.4910   91.0170  -35.1510 H         1 FAD501      0.0000 
     68 HM71      -19.9670   90.8970  -32.4420 H         1 FAD501      0.0000 
     69 HM72      -20.9950   90.0640  -31.6670 H         1 FAD501      0.0000 
     70 HM73      -21.4560   91.2540  -32.5170 H         1 FAD501      0.0000 
     71 HM81      -22.5830   87.3810  -32.1440 H         1 FAD501      0.0000 
     72 HM82      -21.1180   86.9410  -32.0330 H         1 FAD501      0.0000 
     73 HM83      -21.5510   88.3100  -31.4930 H         1 FAD501      0.0000 
     74 H9        -21.7990   86.6700  -34.3510 H         1 FAD501      0.0000 
     75 H1'1      -21.6780   85.5260  -36.1550 H         1 FAD501      0.0000 
     76 H1'2      -21.2780   85.3440  -37.6170 H         1 FAD501      0.0000 
     77 H2'       -23.4090   85.8740  -38.2940 H         1 FAD501      0.0000 
     78 HO2'      -23.9370   87.1950  -36.6280 H         1 FAD501      0.0000 
     79 H3'       -23.6180   83.9050  -36.3450 H         1 FAD501      0.0000 
     80 H4'       -24.9770   84.0480  -38.7610 H         1 FAD501      0.0000 
     81 HO4'      -25.9870   84.3330  -36.3700 H         1 FAD501      0.0000 
     82 H5'1      -25.2710   82.0420  -36.8740 H         1 FAD501      0.0000 
     83 H5'2      -24.7250   81.8270  -38.2930 H         1 FAD501      0.0000 
@<TRIPOS>BOND
     1    1    2 ar   
     2    1    3 ar   
     3    1    4 1    
     4    1   53 1    
     5    4    5 1    
     6    5    6 1    
     7    6    7 1    
     8    5   54 1    
     9    5   55 1    
    10    6    8 1    
    11    7   12 1    
    12    6   56 1    
    13    8    9 1    
    14    8   10 1    
    15   10   11 1    
    16    8   57 1    
    17    9   58 1    
    18   10   12 1    
    19   12   13 1    
    20   10   59 1    
    21   11   60 1    
    22   13   14 1    
    23   12   61 1    
    24   13   22 1    
    25   14   15 2    
    26   15   16 1    
    27   14   62 1    
    28   16   17 ar   
    29   16   22 ar   
    30   17   18 1    
    31   17   19 ar   
    32   19   20 ar   
    33   18   63 1    
    34   18   64 1    
    35   20   21 ar   
    36   21   22 ar   
    37   20   65 1    
    38   23   24 1    
    39   23   40 2    
    40   24   25 2    
    41   24   26 am   
    42   26   27 am   
    43   27   28 2    
    44   26   66 1    
    45   27   29 1    
    46   29   30 2    
    47   29   40 1    
    48   30   31 1    
    49   31   32 ar   
    50   31   38 ar   
    51   32   33 ar   
    52   33   34 1    
    53   32   67 1    
    54   33   35 ar   
    55   35   36 1    
    56   34   68 1    
    57   34   69 1    
    58   34   70 1    
    59   35   37 ar   
    60   37   74 1    
    61   37   38 ar   
    62   36   71 1    
    63   36   72 1    
    64   36   73 1    
    65   38   39 1    
    66   39   40 1    
    67   39   41 1    
    68   41   42 1    
    69   42   43 1    
    70   41   75 1    
    71   41   76 1    
    72   42   44 1    
    73   44   45 1    
    74   42   77 1    
    75   43   78 1    
    76   44   46 1    
    77   46   47 1    
    78   44   79 1    
    79   46   48 1    
    80   48   49 1    
    81   46   80 1    
    82   47   81 1    
    83   49   50 1    
    84   48   82 1    
    85   48   83 1    
    86   50   51 ar   
    87   50   52 ar   
    88   50   53 1    
@<TRIPOS>SUBSTRUCTURE
     1 FAD501      1 GROUP   
@<TRIPOS>SET
ATOM$ORANGE STATIC     ATOMS   COLORGROUP SYSTEM 
54 5 5 6 6 8 8 10 10 12 12 14 14 16 16 17 17 20 \
20 22 22 24 24 27 27 29 29 31 31 32 32 33 33 34 34 35 \
35 36 36 37 37 38 38 40 40 41 41 42 42 44 44 46 46 48 \
48 

