#    Name: 5nhg_6_FAD
#    Modification time : Fri May 22 19:17:17 2020

@<TRIPOS>MOLECULE
5nhg_6_FAD
   83    88     1     0     1
SMALL
NO_CHARGES


@<TRIPOS>ATOM
      1 PA         -2.1910   60.5110   -2.9830 P.3       1 FAD501      0.0000 
      2 O1A        -2.6890   60.2820   -1.6120 O.co2     1 FAD501      0.0000 
      3 O2A        -2.6990   61.7610   -3.7110 O.co2     1 FAD501      0.0000 
      4 O5B        -0.6040   60.4680   -2.9660 O.3       1 FAD501      0.0000 
      5 C5B         0.1700   60.9860   -4.0710 C.3       1 FAD501      0.0000 
      6 C4B         1.5610   61.3740   -3.6200 C.3       1 FAD501      0.0000 
      7 O4B         2.4580   61.3850   -4.7570 O.3       1 FAD501      0.0000 
      8 C3B         1.6720   62.7570   -2.9710 C.3       1 FAD501      0.0000 
      9 O3B         2.4920   62.6840   -1.8110 O.3       1 FAD501      0.0000 
     10 C2B         2.3020   63.6210   -4.0740 C.3       1 FAD501      0.0000 
     11 O2B         3.1530   64.6520   -3.5900 O.3       1 FAD501      0.0000 
     12 C1B         3.1820   62.6020   -4.7870 C.3       1 FAD501      0.0000 
     13 N9A         3.4760   62.9240   -6.1820 N.pl3     1 FAD501      0.0000 
     14 C8A         2.5730   63.2470   -7.1590 C.2       1 FAD501      0.0000 
     15 N7A         3.1120   63.4500   -8.3380 N.2       1 FAD501      0.0000 
     16 C5A         4.4660   63.2480   -8.1190 C.ar      1 FAD501      0.0000 
     17 C6A         5.5840   63.3140   -8.9720 C.ar      1 FAD501      0.0000 
     18 N6A         5.5100   63.6140  -10.2730 N.pl3     1 FAD501      0.0000 
     19 N1A         6.7970   63.0520   -8.4360 N.ar      1 FAD501      0.0000 
     20 C2A         6.8810   62.7490   -7.1370 C.ar      1 FAD501      0.0000 
     21 N3A         5.8960   62.6600   -6.2380 N.ar      1 FAD501      0.0000 
     22 C4A         4.7060   62.9190   -6.7970 C.ar      1 FAD501      0.0000 
     23 N1        -10.0070   58.2620    1.5530 N.2       1 FAD501      0.0000 
     24 C2        -10.4890   57.2450    2.3280 C.2       1 FAD501      0.0000 
     25 O2        -10.4760   56.0740    1.9460 O.2       1 FAD501      0.0000 
     26 N3        -11.0110   57.5190    3.5750 N.am      1 FAD501      0.0000 
     27 C4        -11.1050   58.7660    4.1530 C.2       1 FAD501      0.0000 
     28 O4        -11.5920   58.8900    5.2750 O.2       1 FAD501      0.0000 
     29 C4X       -10.5900   59.8410    3.3270 C.2       1 FAD501      0.0000 
     30 N5        -10.6410   61.0570    3.8010 N.2       1 FAD501      0.0000 
     31 C5X       -10.1460   62.0850    3.0120 C.ar      1 FAD501      0.0000 
     32 C6        -10.1910   63.3870    3.5120 C.ar      1 FAD501      0.0000 
     33 C7         -9.7170   64.4620    2.7650 C.ar      1 FAD501      0.0000 
     34 C7M        -9.7820   65.8520    3.3420 C.3       1 FAD501      0.0000 
     35 C8         -9.1650   64.2300    1.4940 C.ar      1 FAD501      0.0000 
     36 C8M        -8.6340   65.3650    0.6540 C.3       1 FAD501      0.0000 
     37 C9         -9.1240   62.9320    0.9940 C.ar      1 FAD501      0.0000 
     38 C9A        -9.6060   61.8570    1.7360 C.ar      1 FAD501      0.0000 
     39 N10        -9.5720   60.5260    1.2590 N.pl3     1 FAD501      0.0000 
     40 C10       -10.0560   59.4900    2.0370 C.2       1 FAD501      0.0000 
     41 C1'        -9.0220   60.2070   -0.0750 C.3       1 FAD501      0.0000 
     42 C2'        -7.6680   59.5180   -0.0040 C.3       1 FAD501      0.0000 
     43 O2'        -6.7430   60.3280    0.7220 O.3       1 FAD501      0.0000 
     44 C3'        -7.1260   59.2930   -1.4150 C.3       1 FAD501      0.0000 
     45 O3'        -8.0070   58.4810   -2.1850 O.3       1 FAD501      0.0000 
     46 C4'        -5.7780   58.5870   -1.3420 C.3       1 FAD501      0.0000 
     47 O4'        -4.8650   59.3990   -0.6030 O.3       1 FAD501      0.0000 
     48 C5'        -5.2040   58.2760   -2.7040 C.3       1 FAD501      0.0000 
     49 O5'        -3.8950   57.7030   -2.5270 O.3       1 FAD501      0.0000 
     50 P          -2.8350   57.7480   -3.6820 P.3       1 FAD501      0.0000 
     51 O1P        -1.5590   57.1690   -3.0600 O.co2     1 FAD501      0.0000 
     52 O2P        -3.5620   57.1590   -4.8640 O.co2     1 FAD501      0.0000 
     53 O3P        -2.6120   59.3130   -3.9310 O.3       1 FAD501      0.0000 
     54 H51A       -0.2620   61.7410   -4.4240 H         1 FAD501      0.0000 
     55 H52A        0.2340   60.3280   -4.7380 H         1 FAD501      0.0000 
     56 H4B         1.8680   60.7340   -3.0050 H         1 FAD501      0.0000 
     57 H3B         0.8180   63.0820   -2.7520 H         1 FAD501      0.0000 
     58 HO3A        2.5920   63.4460   -1.4940 H         1 FAD501      0.0000 
     59 H2B         1.6450   63.9600   -4.6530 H         1 FAD501      0.0000 
     60 HO2A        3.5280   65.0260   -4.2310 H         1 FAD501      0.0000 
     61 H1B         3.9850   62.4990   -4.3100 H         1 FAD501      0.0000 
     62 H8A         1.6590   63.3070   -7.0040 H         1 FAD501      0.0000 
     63 H61A        6.2320   63.6390  -10.7540 H         1 FAD501      0.0000 
     64 H62A        4.7400   63.7820  -10.6360 H         1 FAD501      0.0000 
     65 H2A         7.7360   62.5770   -6.8170 H         1 FAD501      0.0000 
     66 HN3       -11.3120   56.8470    4.0340 H         1 FAD501      0.0000 
     67 H6        -10.5720   63.3870    4.3600 H         1 FAD501      0.0000 
     68 HM71       -8.9200   66.2230    3.3610 H         1 FAD501      0.0000 
     69 HM72      -10.1250   65.8120    4.2150 H         1 FAD501      0.0000 
     70 HM73      -10.3420   66.3860    2.8100 H         1 FAD501      0.0000 
     71 HM81       -7.7210   65.2270    0.4840 H         1 FAD501      0.0000 
     72 HM82       -9.1020   65.3990   -0.1590 H         1 FAD501      0.0000 
     73 HM83       -8.7470   66.1760    1.1150 H         1 FAD501      0.0000 
     74 H9         -8.7370   63.0030    0.1520 H         1 FAD501      0.0000 
     75 H1'1       -9.6240   59.6450   -0.5250 H         1 FAD501      0.0000 
     76 H1'2       -8.9300   61.0050   -0.5620 H         1 FAD501      0.0000 
     77 H2'        -7.7630   58.6900    0.4280 H         1 FAD501      0.0000 
     78 HO2'       -6.7280   61.0930    0.3950 H         1 FAD501      0.0000 
     79 H3'        -7.0190   60.1220   -1.8420 H         1 FAD501      0.0000 
     80 H4'        -5.8940   57.7780   -0.8800 H         1 FAD501      0.0000 
     81 HO4'       -4.1700   58.9670   -0.4520 H         1 FAD501      0.0000 
     82 H5'1       -5.1380   59.0660   -3.2070 H         1 FAD501      0.0000 
     83 H5'2       -5.7590   57.6630   -3.1490 H         1 FAD501      0.0000 
@<TRIPOS>BOND
     1    1    2 ar   
     2    1    3 ar   
     3    1    4 1    
     4    1   53 1    
     5    4    5 1    
     6    5    6 1    
     7    6    7 1    
     8    5   54 1    
     9    5   55 1    
    10    6    8 1    
    11    7   12 1    
    12    6   56 1    
    13    8    9 1    
    14    8   10 1    
    15   10   11 1    
    16    8   57 1    
    17    9   58 1    
    18   10   12 1    
    19   12   13 1    
    20   10   59 1    
    21   11   60 1    
    22   13   14 1    
    23   12   61 1    
    24   13   22 1    
    25   14   15 2    
    26   15   16 1    
    27   14   62 1    
    28   16   17 ar   
    29   16   22 ar   
    30   17   18 1    
    31   17   19 ar   
    32   19   20 ar   
    33   18   63 1    
    34   18   64 1    
    35   20   21 ar   
    36   21   22 ar   
    37   20   65 1    
    38   23   24 1    
    39   23   40 2    
    40   24   25 2    
    41   24   26 am   
    42   26   27 am   
    43   27   28 2    
    44   26   66 1    
    45   27   29 1    
    46   29   30 2    
    47   29   40 1    
    48   30   31 1    
    49   31   32 ar   
    50   31   38 ar   
    51   32   33 ar   
    52   33   34 1    
    53   32   67 1    
    54   33   35 ar   
    55   35   36 1    
    56   34   68 1    
    57   34   69 1    
    58   34   70 1    
    59   35   37 ar   
    60   37   74 1    
    61   37   38 ar   
    62   36   71 1    
    63   36   72 1    
    64   36   73 1    
    65   38   39 1    
    66   39   40 1    
    67   39   41 1    
    68   41   42 1    
    69   42   43 1    
    70   41   75 1    
    71   41   76 1    
    72   42   44 1    
    73   44   45 1    
    74   42   77 1    
    75   43   78 1    
    76   44   46 1    
    77   46   47 1    
    78   44   79 1    
    79   46   48 1    
    80   48   49 1    
    81   46   80 1    
    82   47   81 1    
    83   49   50 1    
    84   48   82 1    
    85   48   83 1    
    86   50   51 ar   
    87   50   52 ar   
    88   50   53 1    
@<TRIPOS>SUBSTRUCTURE
     1 FAD501      1 GROUP   
@<TRIPOS>SET
ATOM$ORANGE STATIC     ATOMS   COLORGROUP SYSTEM 
54 5 5 6 6 8 8 10 10 12 12 14 14 16 16 17 17 20 \
20 22 22 24 24 27 27 29 29 31 31 32 32 33 33 34 34 35 \
35 36 36 37 37 38 38 40 40 41 41 42 42 44 44 46 46 48 \
48 

