#    Name: 5nhg_2_FAD
#    Modification time : Fri May 22 19:16:26 2020

@<TRIPOS>MOLECULE
5nhg_2_FAD
   83    88     1     0     1
SMALL
NO_CHARGES


@<TRIPOS>ATOM
      1 PA        -19.5960   25.3310  -30.0000 P.3       1 FAD500      0.0000 
      2 O1A       -19.1940   24.0410  -29.4160 O.co2     1 FAD500      0.0000 
      3 O2A       -19.1040   25.5210  -31.4170 O.co2     1 FAD500      0.0000 
      4 O5B       -21.1320   25.5720  -29.9480 O.3       1 FAD500      0.0000 
      5 C5B       -21.7790   26.4450  -30.8970 C.3       1 FAD500      0.0000 
      6 C4B       -23.1670   25.9320  -31.1720 C.3       1 FAD500      0.0000 
      7 O4B       -24.0370   27.0340  -31.5080 O.3       1 FAD500      0.0000 
      8 C3B       -23.2740   24.9310  -32.3200 C.3       1 FAD500      0.0000 
      9 O3B       -24.0700   23.8550  -31.8480 O.3       1 FAD500      0.0000 
     10 C2B       -23.9330   25.7440  -33.4430 C.3       1 FAD500      0.0000 
     11 O2B       -24.7720   24.9720  -34.2940 O.3       1 FAD500      0.0000 
     12 C1B       -24.8040   26.7000  -32.6410 C.3       1 FAD500      0.0000 
     13 N9A       -25.1450   27.9460  -33.3160 N.pl3     1 FAD500      0.0000 
     14 C8A       -24.2800   28.8350  -33.8930 C.2       1 FAD500      0.0000 
     15 N7A       -24.8630   29.8990  -34.3870 N.2       1 FAD500      0.0000 
     16 C5A       -26.2040   29.7010  -34.1000 C.ar      1 FAD500      0.0000 
     17 C6A       -27.3510   30.4720  -34.3580 C.ar      1 FAD500      0.0000 
     18 N6A       -27.3250   31.6550  -34.9770 N.pl3     1 FAD500      0.0000 
     19 N1A       -28.5400   29.9870  -33.9370 N.ar      1 FAD500      0.0000 
     20 C2A       -28.5730   28.8150  -33.2970 C.ar      1 FAD500      0.0000 
     21 N3A       -27.5560   28.0060  -32.9990 N.ar      1 FAD500      0.0000 
     22 C4A       -26.3920   28.5080  -33.4300 C.ar      1 FAD500      0.0000 
     23 N1        -11.7510   21.4320  -26.8610 N.2       1 FAD500      0.0000 
     24 C2        -11.2650   20.9410  -25.6840 C.2       1 FAD500      0.0000 
     25 O2        -11.3250   21.5950  -24.6370 O.2       1 FAD500      0.0000 
     26 N3        -10.6930   19.6790  -25.6530 N.am      1 FAD500      0.0000 
     27 C4        -10.5460   18.8270  -26.7390 C.2       1 FAD500      0.0000 
     28 O4        -10.0180   17.7260  -26.5970 O.2       1 FAD500      0.0000 
     29 C4X       -11.0630   19.3640  -27.9830 C.2       1 FAD500      0.0000 
     30 N5        -10.9720   18.6330  -29.0430 N.2       1 FAD500      0.0000 
     31 C5X       -11.4780   19.1380  -30.2310 C.ar      1 FAD500      0.0000 
     32 C6        -11.3830   18.3610  -31.3880 C.ar      1 FAD500      0.0000 
     33 C7        -11.8630   18.8280  -32.6040 C.ar      1 FAD500      0.0000 
     34 C7M       -11.7480   17.9560  -33.8260 C.3       1 FAD500      0.0000 
     35 C8        -12.4640   20.0960  -32.6720 C.ar      1 FAD500      0.0000 
     36 C8M       -13.0050   20.6290  -33.9750 C.3       1 FAD500      0.0000 
     37 C9        -12.5580   20.8700  -31.5210 C.ar      1 FAD500      0.0000 
     38 C9A       -12.0620   20.4080  -30.3080 C.ar      1 FAD500      0.0000 
     39 N10       -12.1400   21.1690  -29.1240 N.pl3     1 FAD500      0.0000 
     40 C10       -11.6500   20.6770  -27.9430 C.2       1 FAD500      0.0000 
     41 C1'       -12.7310   22.5120  -29.1280 C.3       1 FAD500      0.0000 
     42 C2'       -14.1510   22.5430  -28.5930 C.3       1 FAD500      0.0000 
     43 O2'       -15.0240   21.8680  -29.4940 O.3       1 FAD500      0.0000 
     44 C3'       -14.6120   23.9930  -28.4910 C.3       1 FAD500      0.0000 
     45 O3'       -13.6790   24.7380  -27.7140 O.3       1 FAD500      0.0000 
     46 C4'       -16.0100   24.1030  -27.8860 C.3       1 FAD500      0.0000 
     47 O4'       -16.9060   23.3530  -28.7030 O.3       1 FAD500      0.0000 
     48 C5'       -16.4880   25.5340  -27.8040 C.3       1 FAD500      0.0000 
     49 O5'       -17.8100   25.5540  -27.2420 O.3       1 FAD500      0.0000 
     50 P         -18.8080   26.7130  -27.5860 P.3       1 FAD500      0.0000 
     51 O1P       -20.1170   26.4070  -26.8550 O.co2     1 FAD500      0.0000 
     52 O2P       -18.1580   28.0080  -27.3170 O.co2     1 FAD500      0.0000 
     53 O3P       -19.0150   26.5330  -29.1420 O.3       1 FAD500      0.0000 
     54 H51A      -21.2870   26.4600  -31.6970 H         1 FAD500      0.0000 
     55 H52A      -21.8300   27.3130  -30.5420 H         1 FAD500      0.0000 
     56 H4B       -23.4940   25.5220  -30.3930 H         1 FAD500      0.0000 
     57 H3B       -22.4220   24.6330  -32.5800 H         1 FAD500      0.0000 
     58 HO3A      -23.9740   23.1980  -32.3500 H         1 FAD500      0.0000 
     59 H2B       -23.2880   26.2160  -33.9370 H         1 FAD500      0.0000 
     60 HO2A      -24.3130   24.4090  -34.6990 H         1 FAD500      0.0000 
     61 H1B       -25.5870   26.2580  -32.3710 H         1 FAD500      0.0000 
     62 H8A       -23.3630   28.6930  -33.9380 H         1 FAD500      0.0000 
     63 H61A      -26.9710   31.7240  -35.7670 H         1 FAD500      0.0000 
     64 H62A      -27.6610   32.3550  -34.5900 H         1 FAD500      0.0000 
     65 H2A       -29.4130   28.5260  -33.0260 H         1 FAD500      0.0000 
     66 HN3       -10.3880   19.4020  -24.8890 H         1 FAD500      0.0000 
     67 H6        -10.9740   17.5510  -31.1910 H         1 FAD500      0.0000 
     68 HM71      -12.6010   17.8180  -34.1930 H         1 FAD500      0.0000 
     69 HM72      -11.3720   17.1300  -33.5860 H         1 FAD500      0.0000 
     70 HM73      -11.1980   18.3770  -34.4600 H         1 FAD500      0.0000 
     71 HM81      -12.3080   20.6890  -34.6020 H         1 FAD500      0.0000 
     72 HM82      -13.6690   20.0500  -34.2980 H         1 FAD500      0.0000 
     73 HM83      -13.3730   21.4810  -33.8350 H         1 FAD500      0.0000 
     74 H9        -12.9650   21.6620  -31.7850 H         1 FAD500      0.0000 
     75 H1'1      -12.7350   22.8360  -30.0090 H         1 FAD500      0.0000 
     76 H1'2      -12.1980   23.0760  -28.6010 H         1 FAD500      0.0000 
     77 H2'       -14.1850   22.1360  -27.7470 H         1 FAD500      0.0000 
     78 HO2'      -15.6690   21.5550  -29.0720 H         1 FAD500      0.0000 
     79 H3'       -14.6350   24.3580  -29.3570 H         1 FAD500      0.0000 
     80 H4'       -16.0000   23.7340  -27.0230 H         1 FAD500      0.0000 
     81 HO4'      -17.5130   23.0360  -28.2310 H         1 FAD500      0.0000 
     82 H5'1      -15.9070   26.0390  -27.2660 H         1 FAD500      0.0000 
     83 H5'2      -16.5120   25.9040  -28.6670 H         1 FAD500      0.0000 
@<TRIPOS>BOND
     1    1    2 ar   
     2    1    3 ar   
     3    1    4 1    
     4    1   53 1    
     5    4    5 1    
     6    5    6 1    
     7    6    7 1    
     8    5   54 1    
     9    5   55 1    
    10    6    8 1    
    11    7   12 1    
    12    6   56 1    
    13    8    9 1    
    14    8   10 1    
    15   10   11 1    
    16    8   57 1    
    17    9   58 1    
    18   10   12 1    
    19   12   13 1    
    20   10   59 1    
    21   11   60 1    
    22   13   14 1    
    23   12   61 1    
    24   13   22 1    
    25   14   15 2    
    26   15   16 1    
    27   14   62 1    
    28   16   17 ar   
    29   16   22 ar   
    30   17   18 1    
    31   17   19 ar   
    32   19   20 ar   
    33   18   63 1    
    34   18   64 1    
    35   20   21 ar   
    36   21   22 ar   
    37   20   65 1    
    38   23   24 1    
    39   23   40 2    
    40   24   25 2    
    41   24   26 am   
    42   26   27 am   
    43   27   28 2    
    44   26   66 1    
    45   27   29 1    
    46   29   30 2    
    47   29   40 1    
    48   30   31 1    
    49   31   32 ar   
    50   31   38 ar   
    51   32   33 ar   
    52   33   34 1    
    53   32   67 1    
    54   33   35 ar   
    55   35   36 1    
    56   34   68 1    
    57   34   69 1    
    58   34   70 1    
    59   35   37 ar   
    60   37   74 1    
    61   37   38 ar   
    62   36   71 1    
    63   36   72 1    
    64   36   73 1    
    65   38   39 1    
    66   39   40 1    
    67   39   41 1    
    68   41   42 1    
    69   42   43 1    
    70   41   75 1    
    71   41   76 1    
    72   42   44 1    
    73   44   45 1    
    74   42   77 1    
    75   43   78 1    
    76   44   46 1    
    77   46   47 1    
    78   44   79 1    
    79   46   48 1    
    80   48   49 1    
    81   46   80 1    
    82   47   81 1    
    83   49   50 1    
    84   48   82 1    
    85   48   83 1    
    86   50   51 ar   
    87   50   52 ar   
    88   50   53 1    
@<TRIPOS>SUBSTRUCTURE
     1 FAD500      1 GROUP   
@<TRIPOS>SET
ATOM$ORANGE STATIC     ATOMS   COLORGROUP SYSTEM 
54 5 5 6 6 8 8 10 10 12 12 14 14 16 16 17 17 20 \
20 22 22 24 24 27 27 29 29 31 31 32 32 33 33 34 34 35 \
35 36 36 37 37 38 38 40 40 41 41 42 42 44 44 46 46 48 \
48 

