#    Name: 5nhg_3_FAD
#    Modification time : Fri May 22 19:16:39 2020

@<TRIPOS>MOLECULE
5nhg_3_FAD
   83    88     1     0     1
SMALL
NO_CHARGES


@<TRIPOS>ATOM
      1 PA         10.0400   47.3070  -61.0360 P.3       1 FAD501      0.0000 
      2 O1A         9.9220   47.5660  -62.4910 O.co2     1 FAD501      0.0000 
      3 O2A         9.3020   46.1010  -60.4620 O.co2     1 FAD501      0.0000 
      4 O5B        11.5430   47.2360  -60.7070 O.3       1 FAD501      0.0000 
      5 C5B        12.0100   46.6610  -59.4710 C.3       1 FAD501      0.0000 
      6 C4B        13.3930   46.1070  -59.7070 C.3       1 FAD501      0.0000 
      7 O4B        14.0680   45.9830  -58.4400 O.3       1 FAD501      0.0000 
      8 C3B        13.4540   44.7260  -60.3670 C.3       1 FAD501      0.0000 
      9 O3B        14.4470   44.7290  -61.3840 O.3       1 FAD501      0.0000 
     10 C2B        13.8460   43.7960  -59.2100 C.3       1 FAD501      0.0000 
     11 O2B        14.6730   42.7170  -59.6330 O.3       1 FAD501      0.0000 
     12 C1B        14.7070   44.7320  -58.3760 C.3       1 FAD501      0.0000 
     13 N9A        14.8530   44.3950  -56.9690 N.pl3     1 FAD501      0.0000 
     14 C8A        13.8650   44.1950  -56.0410 C.2       1 FAD501      0.0000 
     15 N7A        14.3140   43.9730  -54.8270 N.2       1 FAD501      0.0000 
     16 C5A        15.6900   44.0660  -54.9660 C.ar      1 FAD501      0.0000 
     17 C6A        16.7480   43.9330  -54.0500 C.ar      1 FAD501      0.0000 
     18 N6A        16.5760   43.6850  -52.7500 N.pl3     1 FAD501      0.0000 
     19 N1A        18.0050   44.0770  -54.5190 N.ar      1 FAD501      0.0000 
     20 C2A        18.1900   44.3340  -55.8160 C.ar      1 FAD501      0.0000 
     21 N3A        17.2700   44.4810  -56.7700 N.ar      1 FAD501      0.0000 
     22 C4A        16.0350   44.3350  -56.2780 C.ar      1 FAD501      0.0000 
     23 N1          3.1110   50.0320  -66.6830 N.2       1 FAD501      0.0000 
     24 C2          2.8720   51.0590  -67.5470 C.2       1 FAD501      0.0000 
     25 O2          2.9840   52.2330  -67.2000 O.2       1 FAD501      0.0000 
     26 N3          2.4990   50.7960  -68.8450 N.am      1 FAD501      0.0000 
     27 C4          2.3240   49.5520  -69.3950 C.2       1 FAD501      0.0000 
     28 O4          1.9770   49.4560  -70.5700 O.2       1 FAD501      0.0000 
     29 C4X         2.5820   48.4600  -68.4680 C.2       1 FAD501      0.0000 
     30 N5          2.4400   47.2280  -68.9000 N.2       1 FAD501      0.0000 
     31 C5X         2.6970   46.1900  -68.0080 C.ar      1 FAD501      0.0000 
     32 C6          2.5620   44.8700  -68.4510 C.ar      1 FAD501      0.0000 
     33 C7          2.8120   43.7980  -67.5970 C.ar      1 FAD501      0.0000 
     34 C7M         2.6530   42.3910  -68.1080 C.3       1 FAD501      0.0000 
     35 C8          3.2080   44.0440  -66.2720 C.ar      1 FAD501      0.0000 
     36 C8M         3.4860   42.9120  -65.3180 C.3       1 FAD501      0.0000 
     37 C9          3.3450   45.3580  -65.8320 C.ar      1 FAD501      0.0000 
     38 C9A         3.0940   46.4290  -66.6840 C.ar      1 FAD501      0.0000 
     39 N10         3.2120   47.7700  -66.2590 N.pl3     1 FAD501      0.0000 
     40 C10         2.9760   48.8070  -67.1290 C.2       1 FAD501      0.0000 
     41 C1'         3.6190   48.0930  -64.8880 C.3       1 FAD501      0.0000 
     42 C2'         5.0880   48.4620  -64.7870 C.3       1 FAD501      0.0000 
     43 O2'         5.9040   47.3510  -65.1510 O.3       1 FAD501      0.0000 
     44 C3'         5.4320   48.8160  -63.3460 C.3       1 FAD501      0.0000 
     45 O3'         4.5730   49.8420  -62.8600 O.3       1 FAD501      0.0000 
     46 C4'         6.8750   49.2930  -63.2510 C.3       1 FAD501      0.0000 
     47 O4'         7.7170   48.2810  -63.8100 O.3       1 FAD501      0.0000 
     48 C5'         7.2670   49.6010  -61.8270 C.3       1 FAD501      0.0000 
     49 O5'         8.5980   50.1520  -61.8210 O.3       1 FAD501      0.0000 
     50 P           9.4640   50.1500  -60.5110 P.3       1 FAD501      0.0000 
     51 O1P        10.8300   50.7220  -60.9010 O.co2     1 FAD501      0.0000 
     52 O2P         8.7380   50.8560  -59.3770 O.co2     1 FAD501      0.0000 
     53 O3P         9.5730   48.5740  -60.1940 O.3       1 FAD501      0.0000 
     54 H51A       11.4330   45.9700  -59.2040 H         1 FAD501      0.0000 
     55 H52A       12.0420   47.3220  -58.8050 H         1 FAD501      0.0000 
     56 H4B        13.8720   46.7120  -60.2430 H         1 FAD501      0.0000 
     57 H3B        12.6150   44.4870  -60.7140 H         1 FAD501      0.0000 
     58 HO3A       14.5540   43.9560  -61.6700 H         1 FAD501      0.0000 
     59 H2B        13.0930   43.5010  -58.7320 H         1 FAD501      0.0000 
     60 HO2A       14.1960   42.0740  -59.8580 H         1 FAD501      0.0000 
     61 H1B        15.5560   44.7990  -58.7710 H         1 FAD501      0.0000 
     62 H8A        12.9610   44.2030  -56.2540 H         1 FAD501      0.0000 
     63 H61A       17.2090   43.8700  -52.1850 H         1 FAD501      0.0000 
     64 H62A       15.8310   43.3400  -52.4690 H         1 FAD501      0.0000 
     65 H2A        19.0730   44.4300  -56.0870 H         1 FAD501      0.0000 
     66 HN3         2.3420   51.4800  -69.3560 H         1 FAD501      0.0000 
     67 H6          2.3070   44.8610  -69.3440 H         1 FAD501      0.0000 
     68 HM71        3.4610   41.9250  -67.9980 H         1 FAD501      0.0000 
     69 HM72        2.4250   42.4120  -69.0180 H         1 FAD501      0.0000 
     70 HM73        1.9740   41.9570  -67.6250 H         1 FAD501      0.0000 
     71 HM81        4.3770   42.9610  -65.0250 H         1 FAD501      0.0000 
     72 HM82        3.3440   42.0930  -65.7540 H         1 FAD501      0.0000 
     73 HM83        2.9100   42.9780  -64.5790 H         1 FAD501      0.0000 
     74 H9          3.5980   45.2960  -64.9400 H         1 FAD501      0.0000 
     75 H1'1        3.1030   48.8150  -64.5810 H         1 FAD501      0.0000 
     76 H1'2        3.4560   47.3480  -64.3400 H         1 FAD501      0.0000 
     77 H2'         5.2740   49.1920  -65.3480 H         1 FAD501      0.0000 
     78 HO2'        5.8180   47.1980  -65.9640 H         1 FAD501      0.0000 
     79 H3'         5.3280   48.0520  -62.8110 H         1 FAD501      0.0000 
     80 H4'         6.9660   50.0760  -63.7630 H         1 FAD501      0.0000 
     81 HO4'        8.4410   48.6200  -64.0410 H         1 FAD501      0.0000 
     82 H5'1        6.6670   50.2170  -61.4500 H         1 FAD501      0.0000 
     83 H5'2        7.2570   48.8090  -61.3230 H         1 FAD501      0.0000 
@<TRIPOS>BOND
     1    1    2 ar   
     2    1    3 ar   
     3    1    4 1    
     4    1   53 1    
     5    4    5 1    
     6    5    6 1    
     7    6    7 1    
     8    5   54 1    
     9    5   55 1    
    10    6    8 1    
    11    7   12 1    
    12    6   56 1    
    13    8    9 1    
    14    8   10 1    
    15   10   11 1    
    16    8   57 1    
    17    9   58 1    
    18   10   12 1    
    19   12   13 1    
    20   10   59 1    
    21   11   60 1    
    22   13   14 1    
    23   12   61 1    
    24   13   22 1    
    25   14   15 2    
    26   15   16 1    
    27   14   62 1    
    28   16   17 ar   
    29   16   22 ar   
    30   17   18 1    
    31   17   19 ar   
    32   19   20 ar   
    33   18   63 1    
    34   18   64 1    
    35   20   21 ar   
    36   21   22 ar   
    37   20   65 1    
    38   23   24 1    
    39   23   40 2    
    40   24   25 2    
    41   24   26 am   
    42   26   27 am   
    43   27   28 2    
    44   26   66 1    
    45   27   29 1    
    46   29   30 2    
    47   29   40 1    
    48   30   31 1    
    49   31   32 ar   
    50   31   38 ar   
    51   32   33 ar   
    52   33   34 1    
    53   32   67 1    
    54   33   35 ar   
    55   35   36 1    
    56   34   68 1    
    57   34   69 1    
    58   34   70 1    
    59   35   37 ar   
    60   37   74 1    
    61   37   38 ar   
    62   36   71 1    
    63   36   72 1    
    64   36   73 1    
    65   38   39 1    
    66   39   40 1    
    67   39   41 1    
    68   41   42 1    
    69   42   43 1    
    70   41   75 1    
    71   41   76 1    
    72   42   44 1    
    73   44   45 1    
    74   42   77 1    
    75   43   78 1    
    76   44   46 1    
    77   46   47 1    
    78   44   79 1    
    79   46   48 1    
    80   48   49 1    
    81   46   80 1    
    82   47   81 1    
    83   49   50 1    
    84   48   82 1    
    85   48   83 1    
    86   50   51 ar   
    87   50   52 ar   
    88   50   53 1    
@<TRIPOS>SUBSTRUCTURE
     1 FAD501      1 GROUP   
@<TRIPOS>SET
ATOM$ORANGE STATIC     ATOMS   COLORGROUP SYSTEM 
54 5 5 6 6 8 8 10 10 12 12 14 14 16 16 17 17 20 \
20 22 22 24 24 27 27 29 29 31 31 32 32 33 33 34 34 35 \
35 36 36 37 37 38 38 40 40 41 41 42 42 44 44 46 46 48 \
48 

