#    Name: 6bl8_2_PVB
#    Modification time : Fri May 22 19:26:42 2020

@<TRIPOS>MOLECULE
6bl8_2_PVB
   55    57     1     0     0
SMALL
NO_CHARGES


@<TRIPOS>ATOM
      1 N1         23.2270   80.2530   38.4350 N.ar      1 PVB601      0.0000 
      2 C9         22.2000   79.7920   43.4520 C.3       1 PVB601      0.0000 
      3 N9         21.9360   80.5050   42.2110 N.pl3     1 PVB601      0.0000 
      4 C4         22.3890   80.2260   40.9920 C.ar      1 PVB601      0.0000 
      5 N3         23.1940   79.2830   40.6490 N.ar      1 PVB601      0.0000 
      6 C2         23.6650   79.3350   39.3410 C.ar      1 PVB601      0.0000 
      7 C6         22.3140   81.1450   38.8080 C.ar      1 PVB601      0.0000 
      8 C5         21.9250   81.1850   40.1700 C.ar      1 PVB601      0.0000 
      9 N7         21.2030   82.0710   40.7990 N.2       1 PVB601      0.0000 
     10 C8         21.2140   81.6560   42.0320 C.2       1 PVB601      0.0000 
     11 N6         21.5520   81.8640   37.8240 N.pl3     1 PVB601      0.0000 
     12 C1A        21.7580   82.0160   36.3970 C.ar      1 PVB601      0.0000 
     13 C2A        21.4270   83.2440   35.7770 C.ar      1 PVB601      0.0000 
     14 C3A        21.4400   83.3860   34.4020 C.ar      1 PVB601      0.0000 
     15 C4A        21.8380   82.3330   33.6300 C.ar      1 PVB601      0.0000 
     16 C5A        22.2310   81.2100   34.2250 C.ar      1 PVB601      0.0000 
     17 CL1        22.9550   80.1410   33.2370 Cl        1 PVB601      0.0000 
     18 C6A        22.1670   80.9660   35.5460 C.ar      1 PVB601      0.0000 
     19 CX         21.7350   82.3540   32.1410 C.2       1 PVB601      0.0000 
     20 OX1        21.6060   81.2480   31.4020 O.co2     1 PVB601      0.0000 
     21 OX2        21.7360   83.3150   31.4470 O.co2     1 PVB601      0.0000 
     22 N2         24.6820   78.4320   38.9410 N.pl3     1 PVB601      0.0000 
     23 C12        25.3650   78.3170   37.6610 C.3       1 PVB601      0.0000 
     24 C13        24.8690   77.0010   37.0070 C.3       1 PVB601      0.0000 
     25 C16        25.5910   76.7420   35.7140 C.3       1 PVB601      0.0000 
     26 C14        25.1420   75.9010   37.9770 C.3       1 PVB601      0.0000 
     27 C15        26.9290   78.4890   37.8040 C.3       1 PVB601      0.0000 
     28 O1         27.3680   78.5320   39.1570 O.3       1 PVB601      0.0000 
     29 C11        23.6580   79.8790   43.7630 C.3       1 PVB601      0.0000 
     30 C10        21.8040   78.3500   43.3380 C.3       1 PVB601      0.0000 
     31 H9         21.6420   80.2360   44.2760 H         1 PVB601      0.0000 
     32 H111       23.8850   79.3840   44.7060 H         1 PVB601      0.0000 
     33 H112       24.2690   79.4010   42.9990 H         1 PVB601      0.0000 
     34 H113       24.0230   80.9000   43.8690 H         1 PVB601      0.0000 
     35 H101       22.3540   77.8580   42.5370 H         1 PVB601      0.0000 
     36 H102       22.0090   77.7930   44.2510 H         1 PVB601      0.0000 
     37 H103       20.7450   78.2220   43.1200 H         1 PVB601      0.0000 
     38 H8         20.7090   82.1500   42.8610 H         1 PVB601      0.0000 
     39 H2         25.0610   77.7330   39.5840 H         1 PVB601      0.0000 
     40 H6         20.6550   82.2610   38.1200 H         1 PVB601      0.0000 
     41 H2A        21.1510   84.1100   36.3760 H         1 PVB601      0.0000 
     42 H6A        22.3110   79.9280   35.8410 H         1 PVB601      0.0000 
     43 H3A        21.1280   84.3370   33.9720 H         1 PVB601      0.0000 
     44 HX1        21.5690   80.3570   31.8450 H         1 PVB601      0.0000 
     45 H12        25.0370   79.1450   37.0330 H         1 PVB601      0.0000 
     46 H13        23.8020   77.0570   36.7970 H         1 PVB601      0.0000 
     47 H151       27.2660   79.4300   37.3710 H         1 PVB601      0.0000 
     48 H152       27.4520   77.7340   37.2190 H         1 PVB601      0.0000 
     49 H161       25.3300   75.7750   35.2870 H         1 PVB601      0.0000 
     50 H162       25.3500   77.4940   34.9640 H         1 PVB601      0.0000 
     51 H163       26.6750   76.7560   35.8200 H         1 PVB601      0.0000 
     52 H141       24.7920   74.9390   37.6070 H         1 PVB601      0.0000 
     53 H142       26.2030   75.7870   38.1930 H         1 PVB601      0.0000 
     54 H143       24.6300   76.0470   38.9280 H         1 PVB601      0.0000 
     55 H1         27.8090   79.4090   39.3020 H         1 PVB601      0.0000 
@<TRIPOS>BOND
     1    1    6 ar   
     2    1    7 ar   
     3    2    3 1    
     4    2   29 1    
     5    2   30 1    
     6    2   31 1    
     7    3    4 1    
     8    3   10 1    
     9    4    5 ar   
    10    4    8 ar   
    11    5    6 ar   
    12    6   22 1    
    13    7    8 ar   
    14    7   11 1    
    15    8    9 1    
    16    9   10 2    
    17   10   38 1    
    18   11   12 1    
    19   11   40 1    
    20   12   13 ar   
    21   12   18 ar   
    22   13   14 ar   
    23   13   41 1    
    24   14   15 ar   
    25   14   43 1    
    26   15   16 ar   
    27   15   19 1    
    28   16   17 1    
    29   16   18 ar   
    30   18   42 1    
    31   19   20 ar   
    32   19   21 ar   
    33   20   44 1    
    34   22   23 1    
    35   22   39 1    
    36   23   24 1    
    37   23   27 1    
    38   23   45 1    
    39   24   25 1    
    40   24   26 1    
    41   24   46 1    
    42   25   49 1    
    43   25   50 1    
    44   25   51 1    
    45   26   52 1    
    46   26   53 1    
    47   26   54 1    
    48   27   28 1    
    49   27   47 1    
    50   27   48 1    
    51   28   55 1    
    52   29   32 1    
    53   29   33 1    
    54   29   34 1    
    55   30   35 1    
    56   30   36 1    
    57   30   37 1    
@<TRIPOS>SUBSTRUCTURE
     1 PVB601      1 GROUP   
@<TRIPOS>SET

