#    Name: 6np0_5_CWB
#    Modification time : Fri May 22 19:35:18 2020

@<TRIPOS>MOLECULE
6np0_5_CWB
   23    26     1     0     0
SMALL
NO_CHARGES


@<TRIPOS>ATOM
      1 O13       144.9380  180.1330  123.8210 O.2       1 CWB509      0.0000 
      2 C12       143.9560  180.6920  124.2240 C.2       1 CWB509      0.0000 
      3 C14       144.0520  182.1100  124.8710 C.2       1 CWB509      0.0000 
      4 C23       145.2750  182.8520  125.2050 C.ar      1 CWB509      0.0000 
      5 C22       146.6490  182.5920  125.0970 C.ar      1 CWB509      0.0000 
      6 C21       147.5750  183.5580  125.5370 C.ar      1 CWB509      0.0000 
      7 C20       147.1260  184.7660  126.0790 C.ar      1 CWB509      0.0000 
      8 C19       145.7610  185.0240  126.1870 C.ar      1 CWB509      0.0000 
      9 C18       144.8380  184.0540  125.7450 C.ar      1 CWB509      0.0000 
     10 N16       143.4620  184.0180  125.7190 N.pl3     1 CWB509      0.0000 
     11 C17       142.6220  185.0920  126.2020 C.3       1 CWB509      0.0000 
     12 N15       143.0230  182.8840  125.2100 N.2       1 CWB509      0.0000 
     13 N11       142.6580  180.0600  124.1210 N.am      1 CWB509      0.0000 
     14 C09       142.5100  178.6310  123.4590 C.3       1 CWB509      0.0000 
     15 C10       141.4900  178.7060  122.4300 C.3       1 CWB509      0.0000 
     16 C03       140.0040  178.4200  122.8800 C.3       1 CWB509      0.0000 
     17 C08       142.3170  177.6270  124.4570 C.3       1 CWB509      0.0000 
     18 C07       140.9070  177.2920  124.8480 C.3       1 CWB509      0.0000 
     19 N02       139.9750  177.2450  123.7640 N.4       1 CWB509      0.0000 
     20 C01       139.8540  176.1910  123.2390 C.3       1 CWB509      0.0000 
     21 C06       140.3860  178.3600  125.8490 C.3       1 CWB509      0.0000 
     22 C05       139.2320  179.2410  125.2190 C.3       1 CWB509      0.0000 
     23 C04       139.4360  179.5850  123.6480 C.3       1 CWB509      0.0000 
@<TRIPOS>BOND
     1    1    2 2    
     2    2    3 1    
     3    2   13 am   
     4    3    4 1    
     5    3   12 2    
     6    4    5 ar   
     7    4    9 ar   
     8    5    6 ar   
     9    6    7 ar   
    10    7    8 ar   
    11    8    9 ar   
    12    9   10 1    
    13   10   11 1    
    14   10   12 1    
    15   13   14 1    
    16   14   15 1    
    17   14   17 1    
    18   15   16 1    
    19   16   19 1    
    20   16   23 1    
    21   17   18 1    
    22   18   19 1    
    23   18   21 1    
    24   19   20 1    
    25   21   22 1    
    26   22   23 1    
@<TRIPOS>SUBSTRUCTURE
     1 CWB509      1 GROUP   
@<TRIPOS>SET

