#    Name: 6np0_3_CWB
#    Modification time : Fri May 22 19:35:01 2020

@<TRIPOS>MOLECULE
6np0_3_CWB
   23    26     1     0     0
SMALL
NO_CHARGES


@<TRIPOS>ATOM
      1 O13       183.7610  151.7310  123.9790 O.2       1 CWB508      0.0000 
      2 C12       184.9050  151.8700  124.3040 C.2       1 CWB508      0.0000 
      3 C14       185.7300  150.6830  124.8900 C.2       1 CWB508      0.0000 
      4 C23       185.2270  149.3440  125.2170 C.ar      1 CWB508      0.0000 
      5 C22       183.9710  148.7180  125.1480 C.ar      1 CWB508      0.0000 
      6 C21       183.8380  147.3790  125.5650 C.ar      1 CWB508      0.0000 
      7 C20       184.9520  146.6840  126.0440 C.ar      1 CWB508      0.0000 
      8 C19       186.1980  147.3060  126.1130 C.ar      1 CWB508      0.0000 
      9 C18       186.3290  148.6470  125.6950 C.ar      1 CWB508      0.0000 
     10 N16       187.3990  149.5160  125.6420 N.pl3     1 CWB508      0.0000 
     11 C17       188.7440  149.1770  126.0560 C.3       1 CWB508      0.0000 
     12 N15       187.0350  150.6930  125.1690 N.2       1 CWB508      0.0000 
     13 N11       185.5530  153.1510  124.1610 N.am      1 CWB508      0.0000 
     14 C09       184.7880  154.3980  123.5690 C.3       1 CWB508      0.0000 
     15 C10       185.5420  154.8900  122.4350 C.3       1 CWB508      0.0000 
     16 C03       186.6720  155.9560  122.7340 C.3       1 CWB508      0.0000 
     17 C08       184.5570  155.3460  124.6070 C.3       1 CWB508      0.0000 
     18 C07       185.5880  156.3970  124.8750 C.3       1 CWB508      0.0000 
     19 N02       186.1700  156.9550  123.6940 N.4       1 CWB508      0.0000 
     20 C01       185.6040  157.9000  123.2520 C.3       1 CWB508      0.0000 
     21 C06       186.7310  155.7830  125.7310 C.3       1 CWB508      0.0000 
     22 C05       188.0820  155.7070  124.9090 C.3       1 CWB508      0.0000 
     23 C04       187.8870  155.3040  123.3490 C.3       1 CWB508      0.0000 
@<TRIPOS>BOND
     1    1    2 2    
     2    2    3 1    
     3    2   13 am   
     4    3    4 1    
     5    3   12 2    
     6    4    5 ar   
     7    4    9 ar   
     8    5    6 ar   
     9    6    7 ar   
    10    7    8 ar   
    11    8    9 ar   
    12    9   10 1    
    13   10   11 1    
    14   10   12 1    
    15   13   14 1    
    16   14   15 1    
    17   14   17 1    
    18   15   16 1    
    19   16   19 1    
    20   16   23 1    
    21   17   18 1    
    22   18   19 1    
    23   18   21 1    
    24   19   20 1    
    25   21   22 1    
    26   22   23 1    
@<TRIPOS>SUBSTRUCTURE
     1 CWB508      1 GROUP   
@<TRIPOS>SET

