#    Name: 6np0_2_CWB
#    Modification time : Fri May 22 19:34:52 2020

@<TRIPOS>MOLECULE
6np0_2_CWB
   23    26     1     0     0
SMALL
NO_CHARGES


@<TRIPOS>ATOM
      1 O13       159.4410  134.2710  123.9600 O.2       1 CWB508      0.0000 
      2 C12       159.9330  133.2330  124.2990 C.2       1 CWB508      0.0000 
      3 C14       159.0560  132.0810  124.8830 C.2       1 CWB508      0.0000 
      4 C23       157.6320  132.1550  125.2270 C.ar      1 CWB508      0.0000 
      5 C22       156.6560  133.1630  125.1790 C.ar      1 CWB508      0.0000 
      6 C21       155.3440  132.8800  125.6070 C.ar      1 CWB508      0.0000 
      7 C20       155.0210  131.6050  126.0770 C.ar      1 CWB508      0.0000 
      8 C19       155.9900  130.6040  126.1260 C.ar      1 CWB508      0.0000 
      9 C18       157.3040  130.8900  125.6960 C.ar      1 CWB508      0.0000 
     10 N16       158.4530  130.1340  125.6240 N.pl3     1 CWB508      0.0000 
     11 C17       158.5340  128.7460  126.0250 C.3       1 CWB508      0.0000 
     12 N15       159.4620  130.8380  125.1480 N.2       1 CWB508      0.0000 
     13 N11       161.3570  133.0320  124.1750 N.am      1 CWB508      0.0000 
     14 C09       162.2790  134.1700  123.5830 C.3       1 CWB508      0.0000 
     15 C10       163.0040  133.6310  122.4490 C.3       1 CWB508      0.0000 
     16 C03       164.3930  132.9440  122.7540 C.3       1 CWB508      0.0000 
     17 C08       163.0790  134.7340  124.6200 C.3       1 CWB508      0.0000 
     18 C07       164.4210  134.1260  124.8900 C.3       1 CWB508      0.0000 
     19 N02       165.1550  133.7560  123.7180 N.4       1 CWB508      0.0000 
     20 C01       165.8530  134.6030  123.2710 C.3       1 CWB508      0.0000 
     21 C06       164.2360  132.8480  125.7540 C.3       1 CWB508      0.0000 
     22 C05       164.6010  131.5450  124.9340 C.3       1 CWB508      0.0000 
     23 C04       164.1900  131.5830  123.3650 C.3       1 CWB508      0.0000 
@<TRIPOS>BOND
     1    1    2 2    
     2    2    3 1    
     3    2   13 am   
     4    3    4 1    
     5    3   12 2    
     6    4    5 ar   
     7    4    9 ar   
     8    5    6 ar   
     9    6    7 ar   
    10    7    8 ar   
    11    8    9 ar   
    12    9   10 1    
    13   10   11 1    
    14   10   12 1    
    15   13   14 1    
    16   14   15 1    
    17   14   17 1    
    18   15   16 1    
    19   16   19 1    
    20   16   23 1    
    21   17   18 1    
    22   18   19 1    
    23   18   21 1    
    24   19   20 1    
    25   21   22 1    
    26   22   23 1    
@<TRIPOS>SUBSTRUCTURE
     1 CWB508      1 GROUP   
@<TRIPOS>SET

