#    Name: 6np0_1_CWB
#    Modification time : Fri May 22 19:34:43 2020

@<TRIPOS>MOLECULE
6np0_1_CWB
   23    26     1     0     0
SMALL
NO_CHARGES


@<TRIPOS>ATOM
      1 O13       135.4500  152.0240  123.9230 O.2       1 CWB508      0.0000 
      2 C12       134.6240  151.2440  124.3050 C.2       1 CWB508      0.0000 
      3 C14       133.2830  151.7440  124.9280 C.2       1 CWB508      0.0000 
      4 C23       132.9180  153.1260  125.2600 C.ar      1 CWB508      0.0000 
      5 C22       133.5680  154.3660  125.1670 C.ar      1 CWB508      0.0000 
      6 C21       132.9040  155.5310  125.5990 C.ar      1 CWB508      0.0000 
      7 C20       131.6080  155.4480  126.1160 C.ar      1 CWB508      0.0000 
      8 C19       130.9640  154.2150  126.2090 C.ar      1 CWB508      0.0000 
      9 C18       131.6320  153.0510  125.7750 C.ar      1 CWB508      0.0000 
     10 N16       131.2710  151.7220  125.7390 N.pl3     1 CWB508      0.0000 
     11 C17       129.9930  151.2190  126.1930 C.3       1 CWB508      0.0000 
     12 N15       132.2410  150.9800  125.2460 N.2       1 CWB508      0.0000 
     13 N11       134.8610  149.8190  124.2000 N.am      1 CWB508      0.0000 
     14 C09       136.2050  149.2780  123.5640 C.3       1 CWB508      0.0000 
     15 C10       135.8690  148.3570  122.4940 C.3       1 CWB508      0.0000 
     16 C03       135.7090  146.8380  122.8910 C.3       1 CWB508      0.0000 
     17 C08       137.0800  148.7720  124.5770 C.3       1 CWB508      0.0000 
     18 C07       136.9770  147.3140  124.9210 C.3       1 CWB508      0.0000 
     19 N02       136.8000  146.4430  123.7960 N.4       1 CWB508      0.0000 
     20 C01       137.7970  146.0480  123.2880 C.3       1 CWB508      0.0000 
     21 C06       135.7670  147.1000  125.8750 C.3       1 CWB508      0.0000 
     22 C05       134.6270  146.2540  125.1770 C.3       1 CWB508      0.0000 
     23 C04       134.4060  146.6060  123.6110 C.3       1 CWB508      0.0000 
@<TRIPOS>BOND
     1    1    2 2    
     2    2    3 1    
     3    2   13 am   
     4    3    4 1    
     5    3   12 2    
     6    4    5 ar   
     7    4    9 ar   
     8    5    6 ar   
     9    6    7 ar   
    10    7    8 ar   
    11    8    9 ar   
    12    9   10 1    
    13   10   11 1    
    14   10   12 1    
    15   13   14 1    
    16   14   15 1    
    17   14   17 1    
    18   15   16 1    
    19   16   19 1    
    20   16   23 1    
    21   17   18 1    
    22   18   19 1    
    23   18   21 1    
    24   19   20 1    
    25   21   22 1    
    26   22   23 1    
@<TRIPOS>SUBSTRUCTURE
     1 CWB508      1 GROUP   
@<TRIPOS>SET

