#    Name: 6np0_4_CWB
#    Modification time : Fri May 22 19:35:10 2020

@<TRIPOS>MOLECULE
6np0_4_CWB
   23    26     1     0     0
SMALL
NO_CHARGES


@<TRIPOS>ATOM
      1 O13       174.6050  180.0350  123.8870 O.2       1 CWB508      0.0000 
      2 C12       174.7920  181.1480  124.2900 C.2       1 CWB508      0.0000 
      3 C14       176.1620  181.5630  124.9080 C.2       1 CWB508      0.0000 
      4 C23       177.2800  180.6700  125.2280 C.ar      1 CWB508      0.0000 
      5 C22       177.4990  179.2870  125.1250 C.ar      1 CWB508      0.0000 
      6 C21       178.7290  178.7480  125.5460 C.ar      1 CWB508      0.0000 
      7 C20       179.7210  179.5840  126.0650 C.ar      1 CWB508      0.0000 
      8 C19       179.5020  180.9570  126.1680 C.ar      1 CWB508      0.0000 
      9 C18       178.2690  181.4950  125.7440 C.ar      1 CWB508      0.0000 
     10 N16       177.7650  182.7780  125.7190 N.pl3     1 CWB508      0.0000 
     11 C17       178.4950  183.9410  126.1800 C.3       1 CWB508      0.0000 
     12 N15       176.5410  182.8020  125.2280 N.2       1 CWB508      0.0000 
     13 N11       173.7430  182.1350  124.2170 N.am      1 CWB508      0.0000 
     14 C09       172.3370  181.7770  123.5940 C.3       1 CWB508      0.0000 
     15 C10       172.1040  182.6540  122.4640 C.3       1 CWB508      0.0000 
     16 C03       171.4080  184.0390  122.7710 C.3       1 CWB508      0.0000 
     17 C08       171.3380  181.8010  124.6110 C.3       1 CWB508      0.0000 
     18 C07       170.6290  183.0930  124.8810 C.3       1 CWB508      0.0000 
     19 N02       170.2900  183.8370  123.7070 N.4       1 CWB508      0.0000 
     20 C01       169.2310  183.5870  123.2360 C.3       1 CWB508      0.0000 
     21 C06       171.5280  183.9950  125.7710 C.3       1 CWB508      0.0000 
     22 C05       172.0210  185.2710  124.9770 C.3       1 CWB508      0.0000 
     23 C04       172.3750  184.9970  123.4180 C.3       1 CWB508      0.0000 
@<TRIPOS>BOND
     1    1    2 2    
     2    2    3 1    
     3    2   13 am   
     4    3    4 1    
     5    3   12 2    
     6    4    5 ar   
     7    4    9 ar   
     8    5    6 ar   
     9    6    7 ar   
    10    7    8 ar   
    11    8    9 ar   
    12    9   10 1    
    13   10   11 1    
    14   10   12 1    
    15   13   14 1    
    16   14   15 1    
    17   14   17 1    
    18   15   16 1    
    19   16   19 1    
    20   16   23 1    
    21   17   18 1    
    22   18   19 1    
    23   18   21 1    
    24   19   20 1    
    25   21   22 1    
    26   22   23 1    
@<TRIPOS>SUBSTRUCTURE
     1 CWB508      1 GROUP   
@<TRIPOS>SET

