#    Name: 5ogt_1_FMN_CAVITY_N1_4
#    Modification time : Fri May 22 19:26:46 2020

@<TRIPOS>MOLECULE
5ogt_1_FMN_CAVITY_N1_4
   84     0     7     0     0
SMALL
NO_CHARGES


@<TRIPOS>ATOM
      1 OG         40.7800  -37.4500  183.6400 O.3       1 SER1        0.0000 
      2 OG         36.6000  -37.2100  187.3800 O.3       1 SER1        0.0000 
      3 OG         36.7000  -36.2600  186.2200 O.3       1 SER1        0.0000 
      4 OG         39.8900  -34.1000  182.4200 O.3       1 SER1        0.0000 
      5 OG         40.2500  -32.9900  183.3600 O.3       1 SER1        0.0000 
      6 OG         40.3500  -32.0400  182.2000 O.3       1 SER1        0.0000 
      7 OG         40.4400  -31.1000  181.0400 O.3       1 SER1        0.0000 
      8 OG         39.0900  -29.8100  180.0400 O.3       1 SER1        0.0000 
      9 OG         40.6200  -31.8800  184.3000 O.3       1 SER1        0.0000 
     10 OG         40.7100  -30.9300  183.1400 O.3       1 SER1        0.0000 
     11 OG         42.1600  -31.2700  182.9800 O.3       1 SER1        0.0000 
     12 OG         40.8100  -29.9800  181.9800 O.3       1 SER1        0.0000 
     13 OG         40.9800  -30.7700  185.2400 O.3       1 SER1        0.0000 
     14 OG         41.0800  -29.8200  184.0800 O.3       1 SER1        0.0000 
     15 OG         41.1700  -28.8700  182.9200 O.3       1 SER1        0.0000 
     16 OG         41.2700  -27.9300  181.7600 O.3       1 SER1        0.0000 
     17 O          35.7800  -40.3800  186.6600 O.2       2 ALA2        0.0000 
     18 O          34.4200  -39.0900  185.6600 O.2       2 ALA2        0.0000 
     19 N          36.7900  -35.3100  185.0600 N.am      2 ALA2        0.0000 
     20 N          36.8900  -34.3700  183.9000 N.am      2 ALA2        0.0000 
     21 O          35.6300  -32.1300  181.7400 O.2       2 ALA2        0.0000 
     22 N          35.7200  -31.1800  180.5800 N.am      2 ALA2        0.0000 
     23 N          38.7000  -33.6000  184.6800 N.am      2 ALA2        0.0000 
     24 N          37.3500  -32.3100  183.6800 N.am      2 ALA2        0.0000 
     25 N          38.8000  -32.6500  183.5200 N.am      2 ALA2        0.0000 
     26 O          35.9900  -31.0200  182.6800 O.2       2 ALA2        0.0000 
     27 O          37.4400  -31.3600  182.5200 O.2       2 ALA2        0.0000 
     28 N          39.0700  -32.4800  185.6200 N.am      2 ALA2        0.0000 
     29 N          39.1600  -31.5400  184.4600 N.am      2 ALA2        0.0000 
     30 O          37.8100  -30.2500  183.4600 O.2       2 ALA2        0.0000 
     31 N          39.5300  -30.4200  185.4000 N.am      2 ALA2        0.0000 
     32 O          38.1700  -29.1400  184.3900 O.2       2 ALA2        0.0000 
     33 OD1        37.1500  -38.9900  182.0800 O.co2     3 ASP3        0.0000 
     34 OD1        35.8700  -39.4300  185.5000 O.co2     3 ASP3        0.0000 
     35 OD1        37.3200  -39.7700  185.3400 O.co2     3 ASP3        0.0000 
     36 OD1        34.5200  -38.1400  184.5000 O.co2     3 ASP3        0.0000 
     37 OD1        35.9700  -38.4800  184.3400 O.co2     3 ASP3        0.0000 
     38 OD1        37.4200  -38.8300  184.1800 O.co2     3 ASP3        0.0000 
     39 OD1        34.6100  -37.2000  183.3400 O.co2     3 ASP3        0.0000 
     40 OD1        36.0600  -37.5400  183.1800 O.co2     3 ASP3        0.0000 
     41 OD1        38.1500  -36.6000  186.0600 O.co2     3 ASP3        0.0000 
     42 OD1        38.2400  -35.6500  184.9000 O.co2     3 ASP3        0.0000 
     43 OD1        38.6100  -34.5400  185.8400 O.co2     3 ASP3        0.0000 
     44 NZ         39.4500  -28.7000  180.9800 N.4       4 LYS4        0.0000 
     45 NZ         39.8200  -27.5800  181.9200 N.4       4 LYS4        0.0000 
     46 CZ         39.4300  -36.1600  182.6400 C.ar      5 PHE5        0.0000 
     47 CZ         40.8800  -36.5000  182.4800 C.ar      5 PHE5        0.0000 
     48 CZ         39.7000  -36.0000  184.7400 C.ar      5 PHE5        0.0000 
     49 CZ         39.7900  -35.0500  183.5800 C.ar      5 PHE5        0.0000 
     50 CZ         40.5200  -32.8300  185.4600 C.ar      5 PHE5        0.0000 
     51 CA         33.2600  -35.9100  182.3400 C.3       6 GLY6        0.0000 
     52 CA         36.1400  -39.2700  187.6000 C.3       6 GLY6        0.0000 
     53 CA         34.7800  -37.9800  186.6000 C.3       6 GLY6        0.0000 
     54 CA         36.2400  -38.3200  186.4400 C.3       6 GLY6        0.0000 
     55 CA         37.6900  -38.6600  186.2800 C.3       6 GLY6        0.0000 
     56 CA         34.8800  -37.0300  185.4400 C.3       6 GLY6        0.0000 
     57 CA         34.9800  -36.0800  184.2800 C.3       6 GLY6        0.0000 
     58 CA         35.0700  -35.1400  183.1200 C.3       6 GLY6        0.0000 
     59 CA         35.1500  -36.8700  187.5400 C.3       6 GLY6        0.0000 
     60 CA         38.0500  -37.5500  187.2200 C.3       6 GLY6        0.0000 
     61 CA         35.2400  -35.9200  186.3800 C.3       6 GLY6        0.0000 
     62 CA         35.5300  -33.0800  182.9000 C.3       6 GLY6        0.0000 
     63 CA         37.5400  -30.4100  181.3600 C.3       6 GLY6        0.0000 
     64 CA         37.9000  -29.3000  182.3000 C.3       6 GLY6        0.0000 
     65 CA         39.3600  -29.6400  182.1400 C.3       6 GLY6        0.0000 
     66 CA         39.6200  -29.4800  184.2400 C.3       6 GLY6        0.0000 
     67 CA         38.2700  -28.1900  183.2400 C.3       6 GLY6        0.0000 
     68 CA         39.7200  -28.5300  183.0800 C.3       6 GLY6        0.0000 
     69 DU         38.8700  -39.1700  184.0200 H         7 CUB7        0.0000 
     70 DU         37.5200  -37.8800  183.0200 H         7 CUB7        0.0000 
     71 DU         38.9700  -38.2200  182.8600 H         7 CUB7        0.0000 
     72 DU         40.4200  -38.5600  182.7000 H         7 CUB7        0.0000 
     73 DU         36.3300  -37.3700  185.2800 H         7 CUB7        0.0000 
     74 DU         37.7800  -37.7100  185.1200 H         7 CUB7        0.0000 
     75 DU         36.4300  -36.4300  184.1200 H         7 CUB7        0.0000 
     76 DU         39.3300  -37.1100  183.8000 H         7 CUB7        0.0000 
     77 DU         36.5200  -35.4800  182.9600 H         7 CUB7        0.0000 
     78 DU         38.3400  -34.7100  183.7400 H         7 CUB7        0.0000 
     79 DU         36.9800  -33.4200  182.7400 H         7 CUB7        0.0000 
     80 DU         38.4400  -33.7600  182.5800 H         7 CUB7        0.0000 
     81 DU         37.0800  -32.4700  181.5800 H         7 CUB7        0.0000 
     82 DU         38.9000  -31.7000  182.3600 H         7 CUB7        0.0000 
     83 DU         38.9900  -30.7600  181.2000 H         7 CUB7        0.0000 
     84 DU         39.2600  -30.5900  183.3000 H         7 CUB7        0.0000 
@<TRIPOS>BOND
@<TRIPOS>SUBSTRUCTURE
     1 SER1        1 GROUP   
     2 ALA2       17 GROUP   
     3 ASP3       33 GROUP   
     4 LYS4       44 GROUP   
     5 PHE5       46 GROUP   
     6 GLY6       51 GROUP   
     7 CUB7       69 GROUP   
@<TRIPOS>SET

