#    Name: 5ogt_1_FMN
#    Modification time : Fri May 22 19:26:45 2020

@<TRIPOS>MOLECULE
5ogt_1_FMN
   31    33     1     0     1
SMALL
NO_CHARGES


@<TRIPOS>ATOM
      1 N1         39.5410  -32.5580  185.2880 N.2       1 FMN1001     0.0000 
      2 C2         40.1980  -31.4780  185.7770 C.2       1 FMN1001     0.0000 
      3 O2         41.1370  -31.7100  186.5950 O.2       1 FMN1001     0.0000 
      4 N3         39.8810  -30.2040  185.3890 N.am      1 FMN1001     0.0000 
      5 C4         38.8700  -29.9650  184.5190 C.2       1 FMN1001     0.0000 
      6 O4         38.5330  -28.8190  184.1470 O.2       1 FMN1001     0.0000 
      7 C4A        38.1440  -31.1080  183.9350 C.2       1 FMN1001     0.0000 
      8 N5         37.1470  -30.9310  183.0430 N.2       1 FMN1001     0.0000 
      9 C5A        36.4570  -32.0010  182.5570 C.ar      1 FMN1001     0.0000 
     10 C6         35.4100  -31.7850  181.6610 C.ar      1 FMN1001     0.0000 
     11 C7         34.6860  -32.8460  181.1310 C.ar      1 FMN1001     0.0000 
     12 C7M        33.5630  -32.5660  180.1630 C.3       1 FMN1001     0.0000 
     13 C8         35.0200  -34.2370  181.5530 C.ar      1 FMN1001     0.0000 
     14 C8M        34.2800  -35.4380  181.0250 C.3       1 FMN1001     0.0000 
     15 C9         36.0580  -34.4540  182.4530 C.ar      1 FMN1001     0.0000 
     16 C9A        36.7950  -33.3960  182.9890 C.ar      1 FMN1001     0.0000 
     17 N10        37.8590  -33.5990  183.9030 N.pl3     1 FMN1001     0.0000 
     18 C10        38.5480  -32.4620  184.3880 C.2       1 FMN1001     0.0000 
     19 C1'        38.2360  -34.9470  184.3920 C.3       1 FMN1001     0.0000 
     20 C2'        37.2450  -35.3170  185.5070 C.3       1 FMN1001     0.0000 
     21 O2'        37.3120  -34.3990  186.6080 O.3       1 FMN1001     0.0000 
     22 C3'        37.4550  -36.7200  186.0600 C.3       1 FMN1001     0.0000 
     23 O3'        38.7470  -36.7540  186.6950 O.3       1 FMN1001     0.0000 
     24 C4'        37.3580  -37.8280  184.9970 C.3       1 FMN1001     0.0000 
     25 O4'        36.2570  -37.6210  184.1170 O.3       1 FMN1001     0.0000 
     26 C5'        37.1960  -39.2240  185.5900 C.3       1 FMN1001     0.0000 
     27 O5'        36.0830  -39.2950  186.4800 O.3       1 FMN1001     0.0000 
     28 P          34.6410  -39.9040  186.0520 P.3       1 FMN1001     0.0000 
     29 O1P        34.9130  -41.2550  185.4130 O.co2     1 FMN1001     0.0000 
     30 O2P        34.0940  -38.8730  185.1080 O.co2     1 FMN1001     0.0000 
     31 O3P        33.9830  -39.9840  187.4020 O.co2     1 FMN1001     0.0000 
@<TRIPOS>BOND
     1    1    2 1    
     2    1   18 2    
     3    2    3 2    
     4    2    4 am   
     5    4    5 am   
     6    5    6 2    
     7    5    7 1    
     8    7    8 2    
     9    7   18 1    
    10    8    9 1    
    11    9   10 ar   
    12    9   16 ar   
    13   10   11 ar   
    14   11   12 1    
    15   11   13 ar   
    16   13   14 1    
    17   13   15 ar   
    18   15   16 ar   
    19   16   17 1    
    20   17   18 1    
    21   17   19 1    
    22   19   20 1    
    23   20   21 1    
    24   20   22 1    
    25   22   23 1    
    26   22   24 1    
    27   24   25 1    
    28   24   26 1    
    29   26   27 1    
    30   27   28 1    
    31   28   29 ar   
    32   28   30 ar   
    33   28   31 ar   
@<TRIPOS>SUBSTRUCTURE
     1 FMN1001     1 GROUP   
@<TRIPOS>SET
ATOM$ORANGE STATIC     ATOMS   COLORGROUP SYSTEM 
34 2 2 5 5 7 7 9 9 10 10 11 11 12 12 13 13 14 \
14 15 15 16 16 18 18 19 19 20 20 22 22 24 24 26 26 

