#    Name: 5ogt_3_FMN_CAVITY_N1_4
#    Modification time : Fri May 22 19:26:50 2020

@<TRIPOS>MOLECULE
5ogt_3_FMN_CAVITY_N1_4
  104     0     6     0     0
SMALL
NO_CHARGES


@<TRIPOS>ATOM
      1 OG         47.8600    9.8700  160.7700 O.3       1 SER1        0.0000 
      2 OG         47.6700   12.7700  167.0000 O.3       1 SER1        0.0000 
      3 OG         49.1300   12.4300  166.8500 O.3       1 SER1        0.0000 
      4 OG         47.7700   13.7200  165.8500 O.3       1 SER1        0.0000 
      5 OG         43.5100   15.6900  165.1600 O.3       1 SER1        0.0000 
      6 OG         44.9600   15.3500  165.0000 O.3       1 SER1        0.0000 
      7 OG         47.8700   14.6600  164.6900 O.3       1 SER1        0.0000 
      8 OG         49.4100   15.2700  163.3700 O.3       1 SER1        0.0000 
      9 OG         47.9400   12.9300  169.1000 O.3       1 SER1        0.0000 
     10 OG         48.0400   13.8800  167.9400 O.3       1 SER1        0.0000 
     11 OG         45.2300   15.5100  167.1000 O.3       1 SER1        0.0000 
     12 OG         46.6800   15.1700  166.9400 O.3       1 SER1        0.0000 
     13 OG         48.1300   14.8300  166.7800 O.3       1 SER1        0.0000 
     14 OG         45.3300   16.4600  165.9400 O.3       1 SER1        0.0000 
     15 OG         46.7800   16.1200  165.7800 O.3       1 SER1        0.0000 
     16 OG         48.2300   15.7700  165.6200 O.3       1 SER1        0.0000 
     17 OG         45.5000   15.6800  169.2000 O.3       1 SER1        0.0000 
     18 OG         46.9500   15.3300  169.0400 O.3       1 SER1        0.0000 
     19 O          47.2300    8.5900  157.7400 O.2       2 ALA2        0.0000 
     20 O          46.1400   10.0500  158.8300 O.2       2 ALA2        0.0000 
     21 N          46.6800   10.3800  163.0300 N.am      2 ALA2        0.0000 
     22 N          51.4200   13.1400  157.9200 N.am      2 ALA2        0.0000 
     23 N          45.5900   11.8300  164.1300 N.am      2 ALA2        0.0000 
     24 N          47.0400   11.4900  163.9700 N.am      2 ALA2        0.0000 
     25 N          47.2100   10.7100  167.2300 N.am      2 ALA2        0.0000 
     26 N          45.8600   12.0000  166.2300 N.am      2 ALA2        0.0000 
     27 N          47.3100   11.6600  166.0700 N.am      2 ALA2        0.0000 
     28 O          44.5000   13.2900  165.2200 O.2       2 ALA2        0.0000 
     29 N          45.9500   12.9500  165.0700 N.am      2 ALA2        0.0000 
     30 N          47.4100   12.6000  164.9100 N.am      2 ALA2        0.0000 
     31 N          43.1500   14.5700  164.2200 N.am      2 ALA2        0.0000 
     32 O          44.6700   12.5100  168.4800 O.2       2 ALA2        0.0000 
     33 N          46.1300   12.1600  168.3200 N.am      2 ALA2        0.0000 
     34 N          47.5800   11.8200  168.1600 N.am      2 ALA2        0.0000 
     35 N          49.0300   11.4800  168.0100 N.am      2 ALA2        0.0000 
     36 OD1        47.6900   10.6500  157.5200 O.co2     3 ASP3        0.0000 
     37 OD1        46.5000   11.1600  159.7700 O.co2     3 ASP3        0.0000 
     38 OD1        45.1500   12.4500  158.7700 O.co2     3 ASP3        0.0000 
     39 OD1        46.6000   12.1100  158.6100 O.co2     3 ASP3        0.0000 
     40 OD1        48.0500   11.7700  158.4500 O.co2     3 ASP3        0.0000 
     41 OD1        49.5000   11.4200  158.3000 O.co2     3 ASP3        0.0000 
     42 OD1        49.6000   12.3700  157.1400 O.co2     3 ASP3        0.0000 
     43 OD1        49.7000   13.3200  155.9800 O.co2     3 ASP3        0.0000 
     44 OD1        48.1300   10.0400  162.8700 O.co2     3 ASP3        0.0000 
     45 OD1        49.6800   10.6400  161.5500 O.co2     3 ASP3        0.0000 
     46 OD1        46.9600   13.2200  159.5500 O.co2     3 ASP3        0.0000 
     47 OD1        48.5100   13.8300  158.2300 O.co2     3 ASP3        0.0000 
     48 OD1        49.9600   13.4800  158.0700 O.co2     3 ASP3        0.0000 
     49 OD1        48.4900   11.1500  163.8100 O.co2     3 ASP3        0.0000 
     50 OD1        48.7600   11.3200  165.9100 O.co2     3 ASP3        0.0000 
     51 CZ         48.5900   12.1000  162.6500 C.ar      4 PHE5        0.0000 
     52 CZ         48.8600   12.2600  164.7500 C.ar      4 PHE5        0.0000 
     53 CZ         47.5000   13.5500  163.7500 C.ar      4 PHE5        0.0000 
     54 CZ         48.9500   13.2100  163.5900 C.ar      4 PHE5        0.0000 
     55 CZ         49.0500   14.1600  162.4300 C.ar      4 PHE5        0.0000 
     56 CZ         48.4000   14.9900  168.8800 C.ar      4 PHE5        0.0000 
     57 CA         44.5900    9.4400  160.1500 C.3       5 GLY6        0.0000 
     58 CA         46.0400    9.1000  159.9900 C.3       5 GLY6        0.0000 
     59 CA         47.5000    8.7600  159.8400 C.3       5 GLY6        0.0000 
     60 CA         44.6900   10.3900  158.9900 C.3       5 GLY6        0.0000 
     61 CA         49.0400    9.3700  158.5200 C.3       5 GLY6        0.0000 
     62 CA         49.1400   10.3100  157.3600 C.3       5 GLY6        0.0000 
     63 CA         46.3100    9.2700  162.0900 C.3       5 GLY6        0.0000 
     64 CA         44.9600   10.5600  161.0900 C.3       5 GLY6        0.0000 
     65 CA         46.4100   10.2100  160.9300 C.3       5 GLY6        0.0000 
     66 CA         49.3100    9.5300  160.6100 C.3       5 GLY6        0.0000 
     67 CA         43.6000   11.8400  160.0900 C.3       5 GLY6        0.0000 
     68 CA         45.0500   11.5000  159.9300 C.3       5 GLY6        0.0000 
     69 CA         49.4100   10.4800  159.4600 C.3       5 GLY6        0.0000 
     70 CA         43.7000   12.7900  158.9300 C.3       5 GLY6        0.0000 
     71 CA         50.9600   11.0800  158.1400 C.3       5 GLY6        0.0000 
     72 CA         51.0500   12.0300  156.9800 C.3       5 GLY6        0.0000 
     73 CA         43.8700   12.0100  162.1900 C.3       5 GLY6        0.0000 
     74 CA         45.3200   11.6700  162.0300 C.3       5 GLY6        0.0000 
     75 CA         44.1400   12.1700  164.2900 C.3       5 GLY6        0.0000 
     76 CA         44.2300   13.1200  163.1300 C.3       5 GLY6        0.0000 
     77 CA         44.7700   13.4500  167.3200 C.3       5 GLY6        0.0000 
     78 CA         44.8700   14.4000  166.1600 C.3       5 GLY6        0.0000 
     79 CA         45.0400   13.6200  169.4200 C.3       5 GLY6        0.0000 
     80 CA         46.4900   13.2800  169.2600 C.3       5 GLY6        0.0000 
     81 CA         45.1300   14.5600  168.2600 C.3       5 GLY6        0.0000 
     82 CA         46.8600   14.3900  170.2000 C.3       5 GLY6        0.0000 
     83 DU         47.5900    9.7100  158.6800 H         6 CUB7        0.0000 
     84 DU         47.9600   10.8200  159.6100 H         6 CUB7        0.0000 
     85 DU         46.7700   11.3300  161.8700 H         6 CUB7        0.0000 
     86 DU         48.2300   10.9800  161.7100 H         6 CUB7        0.0000 
     87 DU         43.9700   12.9600  161.0300 H         6 CUB7        0.0000 
     88 DU         45.4200   12.6100  160.8700 H         6 CUB7        0.0000 
     89 DU         46.8700   12.2700  160.7100 H         6 CUB7        0.0000 
     90 DU         48.4200   12.8800  159.3900 H         6 CUB7        0.0000 
     91 DU         49.8700   12.5400  159.2300 H         6 CUB7        0.0000 
     92 DU         45.6900   12.7800  162.9700 H         6 CUB7        0.0000 
     93 DU         47.1400   12.4400  162.8100 H         6 CUB7        0.0000 
     94 DU         48.6900   13.0400  161.4900 H         6 CUB7        0.0000 
     95 DU         48.7800   13.9900  160.3300 H         6 CUB7        0.0000 
     96 DU         50.2300   13.6500  160.1700 H         6 CUB7        0.0000 
     97 DU         44.6000   14.2300  164.0700 H         6 CUB7        0.0000 
     98 DU         46.0500   13.8900  163.9100 H         6 CUB7        0.0000 
     99 DU         47.6000   14.5000  162.5900 H         6 CUB7        0.0000 
    100 DU         49.1500   15.1000  161.2700 H         6 CUB7        0.0000 
    101 DU         46.2200   13.1100  167.1600 H         6 CUB7        0.0000 
    102 DU         46.3200   14.0600  166.0000 H         6 CUB7        0.0000 
    103 DU         46.4100   15.0000  164.8400 H         6 CUB7        0.0000 
    104 DU         46.5900   14.2200  168.1000 H         6 CUB7        0.0000 
@<TRIPOS>BOND
@<TRIPOS>SUBSTRUCTURE
     1 SER1        1 GROUP   
     2 ALA2       19 GROUP   
     3 ASP3       36 GROUP   
     4 PHE5       51 GROUP   
     5 GLY6       57 GROUP   
     6 CUB7       83 GROUP   
@<TRIPOS>SET

