#    Name: 5ogt_3_FMN
#    Modification time : Fri May 22 19:26:49 2020

@<TRIPOS>MOLECULE
5ogt_3_FMN
   31    33     1     0     1
SMALL
NO_CHARGES


@<TRIPOS>ATOM
      1 N1         48.2930   11.7750  165.5110 N.2       1 FMN1001     0.0000 
      2 C2         48.5650   11.5520  166.8120 C.2       1 FMN1001     0.0000 
      3 O2         49.7250   11.1640  167.1070 O.2       1 FMN1001     0.0000 
      4 N3         47.6430   11.7520  167.7770 N.am      1 FMN1001     0.0000 
      5 C4         46.3910   12.1650  167.5090 C.2       1 FMN1001     0.0000 
      6 O4         45.5390   12.3440  168.4090 O.2       1 FMN1001     0.0000 
      7 C4A        46.0320   12.4300  166.1030 C.2       1 FMN1001     0.0000 
      8 N5         44.8110   12.8670  165.7540 N.2       1 FMN1001     0.0000 
      9 C5A        44.4910   13.0730  164.4500 C.ar      1 FMN1001     0.0000 
     10 C6         43.2000   13.4860  164.1350 C.ar      1 FMN1001     0.0000 
     11 C7         42.8340   13.7130  162.8180 C.ar      1 FMN1001     0.0000 
     12 C7M        41.4370   14.1790  162.5120 C.3       1 FMN1001     0.0000 
     13 C8         43.8350   13.4950  161.7300 C.ar      1 FMN1001     0.0000 
     14 C8M        43.5010   13.7200  160.2830 C.3       1 FMN1001     0.0000 
     15 C9         45.1210   13.0680  162.0440 C.ar      1 FMN1001     0.0000 
     16 C9A        45.4950   12.8410  163.3690 C.ar      1 FMN1001     0.0000 
     17 N10        46.7980   12.4220  163.7270 N.pl3     1 FMN1001     0.0000 
     18 C10        47.0820   12.1980  165.0930 C.2       1 FMN1001     0.0000 
     19 C1'        47.8320   12.1380  162.7140 C.3       1 FMN1001     0.0000 
     20 C2'        47.5050   10.7290  162.1670 C.3       1 FMN1001     0.0000 
     21 O2'        47.4510    9.7590  163.2310 O.3       1 FMN1001     0.0000 
     22 C3'        48.4960   10.2620  161.1020 C.3       1 FMN1001     0.0000 
     23 O3'        49.8190   10.2630  161.6910 O.3       1 FMN1001     0.0000 
     24 C4'        48.4620   11.1420  159.8380 C.3       1 FMN1001     0.0000 
     25 O4'        47.1340   11.5080  159.4700 O.3       1 FMN1001     0.0000 
     26 C5'        49.0800   10.4790  158.6030 C.3       1 FMN1001     0.0000 
     27 O5'        48.4540    9.2250  158.2980 O.3       1 FMN1001     0.0000 
     28 P          47.2640    9.0960  157.2310 P.3       1 FMN1001     0.0000 
     29 O1P        47.7690    9.7120  155.9440 O.co2     1 FMN1001     0.0000 
     30 O2P        46.0940    9.8490  157.8220 O.co2     1 FMN1001     0.0000 
     31 O3P        47.0620    7.6070  157.1640 O.co2     1 FMN1001     0.0000 
@<TRIPOS>BOND
     1    1    2 1    
     2    1   18 2    
     3    2    3 2    
     4    2    4 am   
     5    4    5 am   
     6    5    6 2    
     7    5    7 1    
     8    7    8 2    
     9    7   18 1    
    10    8    9 1    
    11    9   10 ar   
    12    9   16 ar   
    13   10   11 ar   
    14   11   12 1    
    15   11   13 ar   
    16   13   14 1    
    17   13   15 ar   
    18   15   16 ar   
    19   16   17 1    
    20   17   18 1    
    21   17   19 1    
    22   19   20 1    
    23   20   21 1    
    24   20   22 1    
    25   22   23 1    
    26   22   24 1    
    27   24   25 1    
    28   24   26 1    
    29   26   27 1    
    30   27   28 1    
    31   28   29 ar   
    32   28   30 ar   
    33   28   31 ar   
@<TRIPOS>SUBSTRUCTURE
     1 FMN1001     1 GROUP   
@<TRIPOS>SET
ATOM$ORANGE STATIC     ATOMS   COLORGROUP SYSTEM 
34 2 2 5 5 7 7 9 9 10 10 11 11 12 12 13 13 14 \
14 15 15 16 16 18 18 19 19 20 20 22 22 24 24 26 26 

