#    Name: 5nux_1_FMN_CAVITY_N1_ALL
#    Modification time : Fri May 22 19:13:57 2020

@<TRIPOS>MOLECULE
5nux_1_FMN_CAVITY_N1_ALL
   69     0     7     0     0
SMALL
NO_CHARGES


@<TRIPOS>ATOM
      1 OG         21.6000  -37.1700   -4.9100 O.3       1 SER1        0.0000 
      2 OG         16.8200  -31.3700   -9.3700 O.3       1 SER1        0.0000 
      3 OG         21.7300  -33.0400   -7.2200 O.3       1 SER1        0.0000 
      4 OG         20.1900  -31.7800   -7.9800 O.3       1 SER1        0.0000 
      5 OG         21.6400  -32.0100   -8.3100 O.3       1 SER1        0.0000 
      6 OG         17.2200  -30.2900   -8.4000 O.3       1 SER1        0.0000 
      7 OG         18.6600  -30.5300   -8.7400 O.3       1 SER1        0.0000 
      8 OG         20.1000  -30.7600   -9.0700 O.3       1 SER1        0.0000 
      9 OG         20.0100  -29.7400  -10.1700 O.3       1 SER1        0.0000 
     10 OG         20.6800  -31.7300   -5.9200 O.3       1 SER1        0.0000 
     11 OG         22.1300  -31.9600   -6.2500 O.3       1 SER1        0.0000 
     12 OG         20.5900  -30.7100   -7.0100 O.3       1 SER1        0.0000 
     13 OG         22.0400  -30.9400   -7.3500 O.3       1 SER1        0.0000 
     14 OG         20.5000  -29.6900   -8.1000 O.3       1 SER1        0.0000 
     15 OG         21.1700  -31.6800   -3.8500 O.3       1 SER1        0.0000 
     16 OG         21.0800  -30.6600   -4.9500 O.3       1 SER1        0.0000 
     17 OG         20.9900  -29.6300   -6.0400 O.3       1 SER1        0.0000 
     18 OG         20.9000  -28.6100   -7.1400 O.3       1 SER1        0.0000 
     19 OG         22.3400  -28.8500   -7.4700 O.3       1 SER1        0.0000 
     20 OG         20.8100  -27.5900   -8.2300 O.3       1 SER1        0.0000 
     21 OG         21.4800  -29.5800   -3.9800 O.3       1 SER1        0.0000 
     22 N          15.4700  -32.1600   -7.9400 N.am      2 ALA2        0.0000 
     23 N          15.3800  -31.1400   -9.0300 N.am      2 ALA2        0.0000 
     24 N          17.5800  -34.3800   -4.0200 N.am      2 ALA2        0.0000 
     25 N          17.4900  -33.3600   -5.1200 N.am      2 ALA2        0.0000 
     26 O          15.8600  -31.0800   -6.9700 O.2       2 ALA2        0.0000 
     27 O          17.3100  -31.3200   -7.3100 O.2       2 ALA2        0.0000 
     28 N          19.3300  -32.5200   -4.4800 N.am      2 ALA2        0.0000 
     29 N          19.2400  -31.5000   -5.5800 N.am      2 ALA2        0.0000 
     30 O          17.7100  -30.2400   -6.3400 O.2       2 ALA2        0.0000 
     31 N          19.7300  -31.4500   -3.5200 N.am      2 ALA2        0.0000 
     32 N          18.2000  -30.1900   -4.2700 N.am      2 ALA2        0.0000 
     33 N          19.6400  -30.4200   -4.6100 N.am      2 ALA2        0.0000 
     34 O          19.5500  -29.4000   -5.7000 O.2       2 ALA2        0.0000 
     35 N          20.0400  -29.3500   -3.6400 N.am      2 ALA2        0.0000 
     36 OD1        19.1100  -35.6400   -3.2600 O.co2     3 ASP3        0.0000 
     37 OD1        19.4200  -33.5400   -3.3900 O.co2     3 ASP3        0.0000 
     38 NZ         18.9700  -28.4300   -8.8600 N.4       4 LYS4        0.0000 
     39 CZ         20.0700  -35.9200   -5.6600 C.ar      5 PHE5        0.0000 
     40 CZ         21.5100  -36.1500   -6.0000 C.ar      5 PHE5        0.0000 
     41 CZ         20.5600  -35.8700   -3.6000 C.ar      5 PHE5        0.0000 
     42 CZ         20.4700  -34.8500   -4.7000 C.ar      5 PHE5        0.0000 
     43 CZ         20.3800  -33.8200   -5.7900 C.ar      5 PHE5        0.0000 
     44 CZ         20.7700  -32.7500   -4.8200 C.ar      5 PHE5        0.0000 
     45 CZ         22.4300  -29.8700   -6.3800 C.ar      5 PHE5        0.0000 
     46 CZ         22.7400  -27.7700   -6.5000 C.ar      5 PHE5        0.0000 
     47 CA         15.5600  -33.1800   -6.8400 C.3       6 GLY6        0.0000 
     48 CA         17.4000  -32.3400   -6.2100 C.3       6 GLY6        0.0000 
     49 CA         17.8000  -31.2600   -5.2400 C.3       6 GLY6        0.0000 
     50 CA         19.1500  -30.4800   -6.6700 C.3       6 GLY6        0.0000 
     51 CA         19.0600  -29.4500   -7.7700 C.3       6 GLY6        0.0000 
     52 CA         20.4100  -28.6600   -9.2000 C.3       6 GLY6        0.0000 
     53 CA         19.4600  -28.3800   -6.8000 C.3       6 GLY6        0.0000 
     54 CA         19.9500  -28.3300   -4.7400 C.3       6 GLY6        0.0000 
     55 CA         21.3900  -28.5600   -5.0700 C.3       6 GLY6        0.0000 
     56 CA         21.3000  -27.5400   -6.1700 C.3       6 GLY6        0.0000 
     57 DU         21.2000  -38.2500   -5.8700 H         7 CUB7        0.0000 
     58 DU         21.1100  -37.2300   -6.9700 H         7 CUB7        0.0000 
     59 DU         20.1600  -36.9400   -4.5700 H         7 CUB7        0.0000 
     60 DU         17.1800  -35.4500   -4.9900 H         7 CUB7        0.0000 
     61 DU         17.0900  -34.4300   -6.0900 H         7 CUB7        0.0000 
     62 DU         19.9800  -34.9000   -6.7600 H         7 CUB7        0.0000 
     63 DU         17.0000  -33.4100   -7.1800 H         7 CUB7        0.0000 
     64 DU         16.9100  -32.3900   -8.2800 H         7 CUB7        0.0000 
     65 DU         19.0200  -34.6100   -4.3600 H         7 CUB7        0.0000 
     66 DU         18.9300  -33.5900   -5.4500 H         7 CUB7        0.0000 
     67 DU         18.8400  -32.5700   -6.5500 H         7 CUB7        0.0000 
     68 DU         20.2800  -32.8000   -6.8800 H         7 CUB7        0.0000 
     69 DU         18.7500  -31.5500   -7.6400 H         7 CUB7        0.0000 
@<TRIPOS>BOND
@<TRIPOS>SUBSTRUCTURE
     1 SER1        1 GROUP   
     2 ALA2       22 GROUP   
     3 ASP3       36 GROUP   
     4 LYS4       38 GROUP   
     5 PHE5       39 GROUP   
     6 GLY6       47 GROUP   
     7 CUB7       57 GROUP   
@<TRIPOS>SET

