#    Name: 5nux_4_FMN
#    Modification time : Fri May 22 19:14:06 2020

@<TRIPOS>MOLECULE
5nux_4_FMN
   31    33     1     0     1
SMALL
NO_CHARGES


@<TRIPOS>ATOM
      1 N1         30.6370   11.8020  -23.4960 N.2       1 FMN1001     0.0000 
      2 C2         30.8700   11.6230  -22.1700 C.2       1 FMN1001     0.0000 
      3 O2         32.0090   11.2050  -21.8120 O.2       1 FMN1001     0.0000 
      4 N3         29.8970   11.8840  -21.2440 N.am      1 FMN1001     0.0000 
      5 C4         28.6660   12.3410  -21.5690 C.2       1 FMN1001     0.0000 
      6 O4         27.7940   12.5600  -20.6930 O.2       1 FMN1001     0.0000 
      7 C4A        28.3610   12.5660  -23.0080 C.2       1 FMN1001     0.0000 
      8 N5         27.1610   13.0180  -23.4370 N.2       1 FMN1001     0.0000 
      9 C5A        26.8910   13.1790  -24.7630 C.ar      1 FMN1001     0.0000 
     10 C6         25.6340   13.6150  -25.1490 C.ar      1 FMN1001     0.0000 
     11 C7         25.3360   13.7960  -26.4890 C.ar      1 FMN1001     0.0000 
     12 C7M        23.9780   14.3000  -26.9040 C.3       1 FMN1001     0.0000 
     13 C8         26.3580   13.4970  -27.5140 C.ar      1 FMN1001     0.0000 
     14 C8M        26.0570   13.6820  -28.9770 C.3       1 FMN1001     0.0000 
     15 C9         27.6120   13.0460  -27.1370 C.ar      1 FMN1001     0.0000 
     16 C9A        27.9300   12.8690  -25.7950 C.ar      1 FMN1001     0.0000 
     17 N10        29.1960   12.4080  -25.3600 N.pl3     1 FMN1001     0.0000 
     18 C10        29.4400   12.2400  -23.9730 C.2       1 FMN1001     0.0000 
     19 C1'        30.2570   12.0610  -26.3140 C.3       1 FMN1001     0.0000 
     20 C2'        29.9800   10.6000  -26.7480 C.3       1 FMN1001     0.0000 
     21 O2'        30.0800    9.6200  -25.6790 O.3       1 FMN1001     0.0000 
     22 C3'        30.9470   10.1420  -27.8240 C.3       1 FMN1001     0.0000 
     23 O3'        32.2520   10.1860  -27.2750 O.3       1 FMN1001     0.0000 
     24 C4'        30.9610   10.9840  -29.0780 C.3       1 FMN1001     0.0000 
     25 O4'        29.6360   11.2820  -29.4790 O.3       1 FMN1001     0.0000 
     26 C5'        31.7310   10.2810  -30.1910 C.3       1 FMN1001     0.0000 
     27 O5'        31.1810    8.9880  -30.4940 O.3       1 FMN1001     0.0000 
     28 P          30.0460    8.8570  -31.6160 P.3       1 FMN1001     0.0000 
     29 O1P        30.6400    9.5110  -32.8460 O.co2     1 FMN1001     0.0000 
     30 O2P        28.8080    9.6060  -31.2470 O.co2     1 FMN1001     0.0000 
     31 O3P        29.8920    7.3500  -31.6640 O.co2     1 FMN1001     0.0000 
@<TRIPOS>BOND
     1    1    2 1    
     2    1   18 2    
     3    2    3 2    
     4    2    4 am   
     5    4    5 am   
     6    5    6 2    
     7    5    7 1    
     8    7    8 2    
     9    7   18 1    
    10    8    9 1    
    11    9   10 ar   
    12    9   16 ar   
    13   10   11 ar   
    14   11   12 1    
    15   11   13 ar   
    16   13   14 1    
    17   13   15 ar   
    18   15   16 ar   
    19   16   17 1    
    20   17   18 1    
    21   17   19 1    
    22   19   20 1    
    23   20   21 1    
    24   20   22 1    
    25   22   23 1    
    26   22   24 1    
    27   24   25 1    
    28   24   26 1    
    29   26   27 1    
    30   27   28 1    
    31   28   29 ar   
    32   28   30 ar   
    33   28   31 ar   
@<TRIPOS>SUBSTRUCTURE
     1 FMN1001     1 GROUP   
@<TRIPOS>SET
ATOM$ORANGE STATIC     ATOMS   COLORGROUP SYSTEM 
34 2 2 5 5 7 7 9 9 10 10 11 11 12 12 13 13 14 \
14 15 15 16 16 18 18 19 19 20 20 22 22 24 24 26 26 

