#    Name: 5nux_2_FMN_CAVITY_N1_12
#    Modification time : Fri May 22 19:14:02 2020

@<TRIPOS>MOLECULE
5nux_2_FMN_CAVITY_N1_12
   93     0     6     0     0
SMALL
NO_CHARGES


@<TRIPOS>ATOM
      1 OG          5.0300   30.0000   18.0600 O.3       1 SER1        0.0000 
      2 OG          7.0500   28.8000   20.8800 O.3       1 SER1        0.0000 
      3 OG          8.5000   28.5700   20.5400 O.3       1 SER1        0.0000 
      4 OG          6.9600   29.8200   19.7800 O.3       1 SER1        0.0000 
      5 OG         11.2900   29.1200   18.7800 O.3       1 SER1        0.0000 
      6 OG          5.4300   31.0800   19.0300 O.3       1 SER1        0.0000 
      7 OG          6.8700   30.8400   18.6900 O.3       1 SER1        0.0000 
      8 OG          5.3400   32.1000   17.9300 O.3       1 SER1        0.0000 
      9 OG          5.9200   31.1300   21.0900 O.3       1 SER1        0.0000 
     10 OG          7.3600   30.9000   20.7500 O.3       1 SER1        0.0000 
     11 OG          8.8100   30.6600   20.4200 O.3       1 SER1        0.0000 
     12 OG         10.1600   31.4500   18.9900 O.3       1 SER1        0.0000 
     13 OG         11.6000   31.2200   18.6500 O.3       1 SER1        0.0000 
     14 OG          9.8000   35.5400   14.6100 O.3       1 SER1        0.0000 
     15 OG          7.7600   31.9700   21.7200 O.3       1 SER1        0.0000 
     16 OG          9.2000   31.7400   21.3900 O.3       1 SER1        0.0000 
     17 OG          9.1100   32.7600   20.2900 O.3       1 SER1        0.0000 
     18 OG         10.5600   32.5300   19.9600 O.3       1 SER1        0.0000 
     19 OG          9.5100   33.8300   21.2600 O.3       1 SER1        0.0000 
     20 OG          9.4200   34.8500   20.1700 O.3       1 SER1        0.0000 
     21 N           4.4500   30.9700   14.9000 N.am      2 ALA2        0.0000 
     22 O           9.3600   29.3100   17.0500 O.2       2 ALA2        0.0000 
     23 N          10.8000   29.0700   16.7100 N.am      2 ALA2        0.0000 
     24 N           4.9400   31.0200   16.9600 N.am      2 ALA2        0.0000 
     25 O           6.3800   30.7900   16.6300 O.2       2 ALA2        0.0000 
     26 O           8.3200   30.6100   18.3500 O.2       2 ALA2        0.0000 
     27 N           9.7600   30.3800   18.0200 N.am      2 ALA2        0.0000 
     28 N          11.2000   30.1500   17.6800 N.am      2 ALA2        0.0000 
     29 O           6.7800   31.8700   17.6000 O.2       2 ALA2        0.0000 
     30 N           8.2300   31.6300   17.2600 N.am      2 ALA2        0.0000 
     31 N           9.6700   31.4000   16.9200 N.am      2 ALA2        0.0000 
     32 N          11.1100   31.1700   16.5900 N.am      2 ALA2        0.0000 
     33 N           8.1400   32.6500   16.1600 N.am      2 ALA2        0.0000 
     34 N          10.0700   32.4700   17.8900 N.am      2 ALA2        0.0000 
     35 N           9.9800   33.5000   16.8000 N.am      2 ALA2        0.0000 
     36 N           9.8900   34.5200   15.7000 N.am      2 ALA2        0.0000 
     37 O           8.1700   37.8100   12.7600 O.2       2 ALA2        0.0000 
     38 O           9.6200   37.5800   12.4200 O.2       2 ALA2        0.0000 
     39 OD1        11.5100   32.2400   17.5600 O.co2     3 ASP3        0.0000 
     40 OD1        11.4200   33.2600   16.4600 O.co2     3 ASP3        0.0000 
     41 OD1        10.2900   35.5900   16.6700 O.co2     3 ASP3        0.0000 
     42 OD1         8.6600   37.8700   14.8200 O.co2     3 ASP3        0.0000 
     43 OD1         8.5700   38.8900   13.7200 O.co2     3 ASP3        0.0000 
     44 OD1         9.0600   38.9400   15.7900 O.co2     3 ASP3        0.0000 
     45 OD1         8.9700   39.9600   14.6900 O.co2     3 ASP3        0.0000 
     46 OD1         9.4600   40.0100   16.7600 O.co2     3 ASP3        0.0000 
     47 OD1         9.3700   41.0300   15.6600 O.co2     3 ASP3        0.0000 
     48 OD1         8.4100   41.3200   18.0600 O.co2     3 ASP3        0.0000 
     49 CZ         10.2500   30.4300   20.0800 C.ar      4 PHE5        0.0000 
     50 CZ         10.4700   33.5500   18.8600 C.ar      4 PHE5        0.0000 
     51 CZ         10.3800   34.5700   17.7700 C.ar      4 PHE5        0.0000 
     52 CZ         10.7700   35.6400   18.7400 C.ar      4 PHE5        0.0000 
     53 CZ         10.6800   36.6600   17.6400 C.ar      4 PHE5        0.0000 
     54 CZ          9.8600   41.0900   17.7300 C.ar      4 PHE5        0.0000 
     55 CA          2.9200   32.2300   14.1400 C.3       5 GLY6        0.0000 
     56 CA          9.4500   28.2800   18.1400 C.3       5 GLY6        0.0000 
     57 CA          4.8500   32.0500   15.8700 C.3       5 GLY6        0.0000 
     58 CA          6.2900   31.8100   15.5300 C.3       5 GLY6        0.0000 
     59 CA          4.7600   33.0700   14.7700 C.3       5 GLY6        0.0000 
     60 CA          4.6700   34.0900   13.6800 C.3       5 GLY6        0.0000 
     61 CA          8.4100   29.5900   19.4500 C.3       5 GLY6        0.0000 
     62 CA          9.8500   29.3600   19.1100 C.3       5 GLY6        0.0000 
     63 CA          6.6900   32.8900   16.5000 C.3       5 GLY6        0.0000 
     64 CA          5.1600   34.1400   15.7400 C.3       5 GLY6        0.0000 
     65 CA          6.6000   33.9100   15.4100 C.3       5 GLY6        0.0000 
     66 CA          8.0400   33.6800   15.0700 C.3       5 GLY6        0.0000 
     67 CA          6.5100   34.9300   14.3100 C.3       5 GLY6        0.0000 
     68 CA          6.4200   35.9500   13.2200 C.3       5 GLY6        0.0000 
     69 CA          8.4400   34.7500   16.0400 C.3       5 GLY6        0.0000 
     70 CA          5.4700   36.2400   15.6200 C.3       5 GLY6        0.0000 
     71 CA          6.9100   36.0000   15.2800 C.3       5 GLY6        0.0000 
     72 CA          8.3500   35.7700   14.9400 C.3       5 GLY6        0.0000 
     73 CA          6.8200   37.0300   14.1900 C.3       5 GLY6        0.0000 
     74 CA          8.2600   36.7900   13.8500 C.3       5 GLY6        0.0000 
     75 CA          9.7100   36.5600   13.5100 C.3       5 GLY6        0.0000 
     76 CA         10.1000   37.6300   14.4800 C.3       5 GLY6        0.0000 
     77 CA         10.0100   38.6600   13.3900 C.3       5 GLY6        0.0000 
     78 CA         10.5000   38.7100   15.4500 C.3       5 GLY6        0.0000 
     79 CA         10.4100   39.7300   14.3600 C.3       5 GLY6        0.0000 
     80 CA          8.8100   42.3900   19.0300 C.3       5 GLY6        0.0000 
     81 DU          5.2500   33.1200   16.8400 H         6 CUB7        0.0000 
     82 DU          7.2700   31.9200   19.6600 H         6 CUB7        0.0000 
     83 DU          8.7100   31.6800   19.3200 H         6 CUB7        0.0000 
     84 DU          8.6200   32.7100   18.2300 H         6 CUB7        0.0000 
     85 DU          7.0900   33.9600   17.4700 H         6 CUB7        0.0000 
     86 DU          8.5300   33.7300   17.1300 H         6 CUB7        0.0000 
     87 DU          7.0000   34.9800   16.3800 H         6 CUB7        0.0000 
     88 DU          7.6700   32.9900   20.6300 H         6 CUB7        0.0000 
     89 DU          9.0200   33.7800   19.2000 H         6 CUB7        0.0000 
     90 DU          8.9300   34.8000   18.1000 H         6 CUB7        0.0000 
     91 DU          8.7500   36.8400   15.9100 H         6 CUB7        0.0000 
     92 DU         10.1900   36.6100   15.5800 H         6 CUB7        0.0000 
     93 DU          9.5500   38.9900   17.8500 H         6 CUB7        0.0000 
@<TRIPOS>BOND
@<TRIPOS>SUBSTRUCTURE
     1 SER1        1 GROUP   
     2 ALA2       21 GROUP   
     3 ASP3       39 GROUP   
     4 PHE5       49 GROUP   
     5 GLY6       55 GROUP   
     6 CUB7       81 GROUP   
@<TRIPOS>SET

