#    Name: 5nux_4_FMN_CAVITY_N1_ALL
#    Modification time : Fri May 22 19:14:08 2020

@<TRIPOS>MOLECULE
5nux_4_FMN_CAVITY_N1_ALL
   91     0     6     0     0
SMALL
NO_CHARGES


@<TRIPOS>ATOM
      1 OG         30.0600    9.6200  -27.7100 O.3       1 SER1        0.0000 
      2 OG         30.5500    9.6700  -25.6500 O.3       1 SER1        0.0000 
      3 OG         30.4600   10.6900  -26.7400 O.3       1 SER1        0.0000 
      4 OG         32.5200   14.6500  -27.3300 O.3       1 SER1        0.0000 
      5 OG         30.3000   13.1200  -22.4000 O.3       1 SER1        0.0000 
      6 OG         30.2100   14.1400  -23.5000 O.3       1 SER1        0.0000 
      7 OG         30.1200   15.1700  -24.5900 O.3       1 SER1        0.0000 
      8 OG         31.5600   14.9300  -24.9300 O.3       1 SER1        0.0000 
      9 OG         29.2600   14.4300  -21.1000 O.3       1 SER1        0.0000 
     10 OG         30.7000   14.2000  -21.4300 O.3       1 SER1        0.0000 
     11 OG         29.1700   15.4500  -22.1900 O.3       1 SER1        0.0000 
     12 OG         30.6100   15.2200  -22.5300 O.3       1 SER1        0.0000 
     13 OG         27.6300   16.7000  -22.9500 O.3       1 SER1        0.0000 
     14 OG         29.0800   16.4700  -23.2900 O.3       1 SER1        0.0000 
     15 OG         30.5200   16.2400  -23.6200 O.3       1 SER1        0.0000 
     16 OG         28.2100   15.7300  -19.7900 O.3       1 SER1        0.0000 
     17 OG         28.1200   16.7600  -20.8900 O.3       1 SER1        0.0000 
     18 O          30.6200    8.2600  -31.0800 O.2       2 ALA2        0.0000 
     19 O          28.1300    9.8000  -29.4400 O.2       2 ALA2        0.0000 
     20 O          32.4600    9.1000  -30.4400 O.2       2 ALA2        0.0000 
     21 N          29.0200   10.9200  -26.4000 N.am      2 ALA2        0.0000 
     22 N          27.9700   12.2300  -25.1000 N.am      2 ALA2        0.0000 
     23 N          29.4100   12.0000  -25.4300 N.am      2 ALA2        0.0000 
     24 N          29.9900   11.0300  -22.2800 N.am      2 ALA2        0.0000 
     25 N          28.4600   12.2800  -23.0300 N.am      2 ALA2        0.0000 
     26 N          29.9000   12.0500  -23.3700 N.am      2 ALA2        0.0000 
     27 O          26.9300   13.5400  -23.7900 O.2       2 ALA2        0.0000 
     28 N          28.3700   13.3000  -24.1300 N.am      2 ALA2        0.0000 
     29 N          29.8100   13.0700  -24.4700 N.am      2 ALA2        0.0000 
     30 N          28.9500   12.3300  -20.9700 N.am      2 ALA2        0.0000 
     31 N          30.3900   12.1000  -21.3100 N.am      2 ALA2        0.0000 
     32 OD1        29.4800   10.5900  -30.8700 O.co2     3 ASP3        0.0000 
     33 OD1        30.9200   10.3600  -31.2000 O.co2     3 ASP3        0.0000 
     34 OD1        28.4400   11.8900  -29.5600 O.co2     3 ASP3        0.0000 
     35 OD1        29.8800   11.6600  -29.9000 O.co2     3 ASP3        0.0000 
     36 OD1        31.3200   11.4300  -30.2300 O.co2     3 ASP3        0.0000 
     37 OD1        32.6800   12.2200  -31.6600 O.co2     3 ASP3        0.0000 
     38 OD1        31.9000   10.4600  -27.0800 O.co2     3 ASP3        0.0000 
     39 OD1        30.1900   13.7600  -30.0200 O.co2     3 ASP3        0.0000 
     40 OD1        31.6300   13.5200  -30.3600 O.co2     3 ASP3        0.0000 
     41 OD1        32.9800   14.3100  -31.7900 O.co2     3 ASP3        0.0000 
     42 OD1        30.9500   10.7400  -24.6800 O.co2     3 ASP3        0.0000 
     43 OD1        30.8600   11.7600  -25.7700 O.co2     3 ASP3        0.0000 
     44 OD1        32.3000   11.5300  -26.1100 O.co2     3 ASP3        0.0000 
     45 CZ         34.5200   13.0600  -31.0300 C.ar      4 PHE5        0.0000 
     46 CZ         34.4300   14.0800  -32.1300 C.ar      4 PHE5        0.0000 
     47 CZ         32.2100   12.5500  -27.2000 C.ar      4 PHE5        0.0000 
     48 CZ         31.3500   11.8200  -23.7100 C.ar      4 PHE5        0.0000 
     49 CZ         31.2600   12.8400  -24.8000 C.ar      4 PHE5        0.0000 
     50 CZ         31.1700   13.8600  -25.9000 C.ar      4 PHE5        0.0000 
     51 CZ         32.6100   13.6300  -26.2300 C.ar      4 PHE5        0.0000 
     52 CZ         29.6600   15.5000  -20.1300 C.ar      4 PHE5        0.0000 
     53 CA         29.1700    8.4900  -30.7400 C.3       5 GLY6        0.0000 
     54 CA         29.6600    8.5400  -28.6800 C.3       5 GLY6        0.0000 
     55 CA         31.1000    8.3100  -29.0100 C.3       5 GLY6        0.0000 
     56 CA         29.5700    9.5700  -29.7700 C.3       5 GLY6        0.0000 
     57 CA         31.0100    9.3300  -30.1100 C.3       5 GLY6        0.0000 
     58 CA         32.3700   10.1200  -31.5400 C.3       5 GLY6        0.0000 
     59 CA         28.6200    9.8500  -27.3700 C.3       5 GLY6        0.0000 
     60 CA         31.5000    9.3900  -28.0400 C.3       5 GLY6        0.0000 
     61 CA         28.5300   10.8700  -28.4700 C.3       5 GLY6        0.0000 
     62 CA         26.9900   12.1300  -29.2300 C.3       5 GLY6        0.0000 
     63 CA         32.7700   11.2000  -30.5700 C.3       5 GLY6        0.0000 
     64 CA         27.4800   12.1800  -27.1600 C.3       5 GLY6        0.0000 
     65 CA         27.4200   13.5900  -21.7300 C.3       5 GLY6        0.0000 
     66 CA         27.3300   14.6100  -22.8200 C.3       5 GLY6        0.0000 
     67 CA         29.3500   13.4100  -20.0000 C.3       5 GLY6        0.0000 
     68 CA         27.8100   14.6600  -20.7600 C.3       5 GLY6        0.0000 
     69 CA         26.2800   15.9100  -21.5200 C.3       5 GLY6        0.0000 
     70 CA         27.7200   15.6800  -21.8500 C.3       5 GLY6        0.0000 
     71 DU         29.9700   10.6400  -28.8000 H         6 CUB7        0.0000 
     72 DU         31.4100   10.4100  -29.1400 H         6 CUB7        0.0000 
     73 DU         28.9300   11.9500  -27.5000 H         6 CUB7        0.0000 
     74 DU         30.3700   11.7100  -27.8300 H         6 CUB7        0.0000 
     75 DU         31.8100   11.4800  -28.1700 H         6 CUB7        0.0000 
     76 DU         27.3900   13.2000  -28.2600 H         6 CUB7        0.0000 
     77 DU         28.8300   12.9700  -28.5900 H         6 CUB7        0.0000 
     78 DU         30.2800   12.7300  -28.9300 H         6 CUB7        0.0000 
     79 DU         31.7200   12.5000  -29.2600 H         6 CUB7        0.0000 
     80 DU         33.0700   13.2900  -30.7000 H         6 CUB7        0.0000 
     81 DU         26.4400   13.4800  -25.8600 H         6 CUB7        0.0000 
     82 DU         27.8800   13.2500  -26.1900 H         6 CUB7        0.0000 
     83 DU         29.3200   13.0200  -26.5300 H         6 CUB7        0.0000 
     84 DU         30.7700   12.7900  -26.8700 H         6 CUB7        0.0000 
     85 DU         32.1200   13.5800  -28.3000 H         6 CUB7        0.0000 
     86 DU         33.4700   14.3600  -29.7300 H         6 CUB7        0.0000 
     87 DU         26.8400   14.5600  -24.8900 H         6 CUB7        0.0000 
     88 DU         29.7200   14.0900  -25.5600 H         6 CUB7        0.0000 
     89 DU         28.8600   13.3500  -22.0700 H         6 CUB7        0.0000 
     90 DU         28.7700   14.3800  -23.1600 H         6 CUB7        0.0000 
     91 DU         28.6800   15.4000  -24.2500 H         6 CUB7        0.0000 
@<TRIPOS>BOND
@<TRIPOS>SUBSTRUCTURE
     1 SER1        1 GROUP   
     2 ALA2       18 GROUP   
     3 ASP3       32 GROUP   
     4 PHE5       45 GROUP   
     5 GLY6       53 GROUP   
     6 CUB7       71 GROUP   
@<TRIPOS>SET

