#    Name: 5nux_1_FMN
#    Modification time : Fri May 22 19:13:55 2020

@<TRIPOS>MOLECULE
5nux_1_FMN
   31    33     1     0     1
SMALL
NO_CHARGES


@<TRIPOS>ATOM
      1 N1         20.2520  -32.4290   -3.4860 N.2       1 FMN1001     0.0000 
      2 C2         20.8750  -31.3640   -2.9990 C.2       1 FMN1001     0.0000 
      3 O2         21.7860  -31.5730   -2.1690 O.2       1 FMN1001     0.0000 
      4 N3         20.5680  -30.1260   -3.3650 N.am      1 FMN1001     0.0000 
      5 C4         19.6010  -29.8600   -4.2420 C.2       1 FMN1001     0.0000 
      6 O4         19.3040  -28.7110   -4.5860 O.2       1 FMN1001     0.0000 
      7 C4A        18.9060  -30.9680   -4.8490 C.2       1 FMN1001     0.0000 
      8 N5         17.9350  -30.7880   -5.7520 N.2       1 FMN1001     0.0000 
      9 C5A        17.2340  -31.8570   -6.1930 C.ar      1 FMN1001     0.0000 
     10 C6         16.1990  -31.6550   -7.0750 C.ar      1 FMN1001     0.0000 
     11 C7         15.4750  -32.7260   -7.5560 C.ar      1 FMN1001     0.0000 
     12 C7M        14.3490  -32.4860   -8.5160 C.3       1 FMN1001     0.0000 
     13 C8         15.7920  -34.0880   -7.0870 C.ar      1 FMN1001     0.0000 
     14 C8M        15.0670  -35.2940   -7.5930 C.3       1 FMN1001     0.0000 
     15 C9         16.8190  -34.2880   -6.2220 C.ar      1 FMN1001     0.0000 
     16 C9A        17.5490  -33.2270   -5.7360 C.ar      1 FMN1001     0.0000 
     17 N10        18.5980  -33.4170   -4.8360 N.pl3     1 FMN1001     0.0000 
     18 C10        19.2880  -32.3000   -4.3770 C.2       1 FMN1001     0.0000 
     19 C1'        18.9520  -34.7440   -4.3030 C.3       1 FMN1001     0.0000 
     20 C2'        17.9580  -34.9920   -3.1410 C.3       1 FMN1001     0.0000 
     21 O2'        18.1070  -34.0150   -2.0970 O.3       1 FMN1001     0.0000 
     22 C3'        18.1330  -36.3900   -2.5460 C.3       1 FMN1001     0.0000 
     23 O3'        19.3840  -36.4210   -1.8930 O.3       1 FMN1001     0.0000 
     24 C4'        18.0670  -37.5340   -3.5790 C.3       1 FMN1001     0.0000 
     25 O4'        16.9540  -37.3000   -4.4430 O.3       1 FMN1001     0.0000 
     26 C5'        17.9410  -38.9170   -2.9490 C.3       1 FMN1001     0.0000 
     27 O5'        16.8590  -39.0000   -2.0080 O.3       1 FMN1001     0.0000 
     28 P          15.4020  -39.5260   -2.4690 P.3       1 FMN1001     0.0000 
     29 O1P        15.6020  -40.9250   -2.9920 O.co2     1 FMN1001     0.0000 
     30 O2P        14.9540  -38.5710   -3.5310 O.co2     1 FMN1001     0.0000 
     31 O3P        14.7190  -39.4160   -1.1420 O.co2     1 FMN1001     0.0000 
@<TRIPOS>BOND
     1    1    2 1    
     2    1   18 2    
     3    2    3 2    
     4    2    4 am   
     5    4    5 am   
     6    5    6 2    
     7    5    7 1    
     8    7    8 2    
     9    7   18 1    
    10    8    9 1    
    11    9   10 ar   
    12    9   16 ar   
    13   10   11 ar   
    14   11   12 1    
    15   11   13 ar   
    16   13   14 1    
    17   13   15 ar   
    18   15   16 ar   
    19   16   17 1    
    20   17   18 1    
    21   17   19 1    
    22   19   20 1    
    23   20   21 1    
    24   20   22 1    
    25   22   23 1    
    26   22   24 1    
    27   24   25 1    
    28   24   26 1    
    29   26   27 1    
    30   27   28 1    
    31   28   29 ar   
    32   28   30 ar   
    33   28   31 ar   
@<TRIPOS>SUBSTRUCTURE
     1 FMN1001     1 GROUP   
@<TRIPOS>SET
ATOM$ORANGE STATIC     ATOMS   COLORGROUP SYSTEM 
34 2 2 5 5 7 7 9 9 10 10 11 11 12 12 13 13 14 \
14 15 15 16 16 18 18 19 19 20 20 22 22 24 24 26 26 

