#    Name: 5nux_2_FMN
#    Modification time : Fri May 22 19:14:01 2020

@<TRIPOS>MOLECULE
5nux_2_FMN
   31    33     1     0     1
SMALL
NO_CHARGES


@<TRIPOS>ATOM
      1 N1         11.2820   32.3700   17.2140 N.2       1 FMN1001     0.0000 
      2 C2         12.0530   31.2630   17.3380 C.2       1 FMN1001     0.0000 
      3 O2         13.2920   31.3640   17.4570 O.2       1 FMN1001     0.0000 
      4 N3         11.5160   30.0250   17.3170 N.am      1 FMN1001     0.0000 
      5 C4         10.2120   29.7830   17.1780 C.2       1 FMN1001     0.0000 
      6 O4          9.7640   28.6180   17.1550 O.2       1 FMN1001     0.0000 
      7 C4A         9.3100   30.9160   17.0700 C.2       1 FMN1001     0.0000 
      8 N5          7.9840   30.7370   16.9400 N.2       1 FMN1001     0.0000 
      9 C5A         7.1720   31.8090   16.7500 C.ar      1 FMN1001     0.0000 
     10 C6          5.8190   31.5970   16.5540 C.ar      1 FMN1001     0.0000 
     11 C7          4.9740   32.6620   16.3600 C.ar      1 FMN1001     0.0000 
     12 C7M         3.4960   32.4120   16.1750 C.3       1 FMN1001     0.0000 
     13 C8          5.5230   34.0440   16.3490 C.ar      1 FMN1001     0.0000 
     14 C8M         4.6450   35.2380   16.1530 C.3       1 FMN1001     0.0000 
     15 C9          6.8640   34.2540   16.5250 C.ar      1 FMN1001     0.0000 
     16 C9A         7.7330   33.1810   16.7030 C.ar      1 FMN1001     0.0000 
     17 N10         9.1310   33.3670   16.8880 N.pl3     1 FMN1001     0.0000 
     18 C10         9.9430   32.2540   17.0710 C.2       1 FMN1001     0.0000 
     19 C1'         9.7530   34.7020   16.8230 C.3       1 FMN1001     0.0000 
     20 C2'         9.9150   34.9990   15.3190 C.3       1 FMN1001     0.0000 
     21 O2'        10.7520   34.0410   14.6380 O.3       1 FMN1001     0.0000 
     22 C3'        10.4690   36.3740   15.0350 C.3       1 FMN1001     0.0000 
     23 O3'        11.8050   36.4710   15.5220 O.3       1 FMN1001     0.0000 
     24 C4'         9.6270   37.4760   15.6450 C.3       1 FMN1001     0.0000 
     25 O4'         8.2360   37.2640   15.3600 O.3       1 FMN1001     0.0000 
     26 C5'        10.0490   38.8310   15.0990 C.3       1 FMN1001     0.0000 
     27 O5'         9.9790   38.8980   13.6530 O.3       1 FMN1001     0.0000 
     28 P           8.6630   39.4680   12.9390 P.3       1 FMN1001     0.0000 
     29 O1P         8.4330   40.8320   13.5000 O.co2     1 FMN1001     0.0000 
     30 O2P         7.5450   38.5480   13.2990 O.co2     1 FMN1001     0.0000 
     31 O3P         9.1270   39.4220   11.5120 O.co2     1 FMN1001     0.0000 
@<TRIPOS>BOND
     1    1    2 1    
     2    1   18 2    
     3    2    3 2    
     4    2    4 am   
     5    4    5 am   
     6    5    6 2    
     7    5    7 1    
     8    7    8 2    
     9    7   18 1    
    10    8    9 1    
    11    9   10 ar   
    12    9   16 ar   
    13   10   11 ar   
    14   11   12 1    
    15   11   13 ar   
    16   13   14 1    
    17   13   15 ar   
    18   15   16 ar   
    19   16   17 1    
    20   17   18 1    
    21   17   19 1    
    22   19   20 1    
    23   20   21 1    
    24   20   22 1    
    25   22   23 1    
    26   22   24 1    
    27   24   25 1    
    28   24   26 1    
    29   26   27 1    
    30   27   28 1    
    31   28   29 ar   
    32   28   30 ar   
    33   28   31 ar   
@<TRIPOS>SUBSTRUCTURE
     1 FMN1001     1 GROUP   
@<TRIPOS>SET
ATOM$ORANGE STATIC     ATOMS   COLORGROUP SYSTEM 
34 2 2 5 5 7 7 9 9 10 10 11 11 12 12 13 13 14 \
14 15 15 16 16 18 18 19 19 20 20 22 22 24 24 26 26 

