#    Name: 5xag_4_GDP_CAVITY_N1_4
#    Modification time : Fri May 22 19:19:40 2020

@<TRIPOS>MOLECULE
5xag_4_GDP_CAVITY_N1_4
    1     0     1     0     0
SMALL
NO_CHARGES


@<TRIPOS>ATOM
      1 CZ          9.1400  -50.4900  -14.9800 C.ar      1 PHE5        0.0000 
@<TRIPOS>BOND
@<TRIPOS>SUBSTRUCTURE
     1 PHE5        1 GROUP   
@<TRIPOS>SET

