#    Name: 5xag_4_GDP_CAVITY_N1_8
#    Modification time : Fri May 22 19:19:40 2020

@<TRIPOS>MOLECULE
5xag_4_GDP_CAVITY_N1_8
   89     0     7     0     0
SMALL
NO_CHARGES


@<TRIPOS>ATOM
      1 OG          7.0000  -44.6100  -16.1400 O.3       1 SER1        0.0000 
      2 OG         14.2400  -52.1500   -9.5200 O.3       1 SER1        0.0000 
      3 OG         13.3700  -51.0300  -10.0200 O.3       1 SER1        0.0000 
      4 N           3.3000  -47.0300  -19.6000 N.am      2 ALA2        0.0000 
      5 N           3.4300  -46.3400  -18.2800 N.am      2 ALA2        0.0000 
      6 N           3.7700  -44.5000  -19.2800 N.am      2 ALA2        0.0000 
      7 N           8.8000  -52.3300  -13.9800 N.am      2 ALA2        0.0000 
      8 O           3.7600  -50.4400  -14.4700 O.2       2 ALA2        0.0000 
      9 O           5.9900  -44.1900  -17.9600 O.2       2 ALA2        0.0000 
     10 O           5.1200  -43.0800  -18.4600 O.2       2 ALA2        0.0000 
     11 N           4.2500  -41.9600  -18.9500 N.am      2 ALA2        0.0000 
     12 O           8.0600  -50.5200  -13.1500 O.2       2 ALA2        0.0000 
     13 O           9.2700  -49.8000  -13.6500 O.2       2 ALA2        0.0000 
     14 N           6.1200  -43.5000  -16.6400 N.am      2 ALA2        0.0000 
     15 N           5.2500  -42.3800  -17.1300 N.am      2 ALA2        0.0000 
     16 N           5.5900  -40.5400  -18.1300 N.am      2 ALA2        0.0000 
     17 O          10.8100  -53.1800  -10.3400 O.2       2 ALA2        0.0000 
     18 O          12.0200  -52.4500  -10.8400 O.2       2 ALA2        0.0000 
     19 O           9.9400  -52.0600  -10.8400 O.2       2 ALA2        0.0000 
     20 O           9.4000  -49.1100  -12.3300 O.2       2 ALA2        0.0000 
     21 N           7.3200  -48.7200  -12.3200 N.am      2 ALA2        0.0000 
     22 O           9.7400  -47.2700  -13.3300 O.2       2 ALA2        0.0000 
     23 N           6.2600  -42.8100  -15.3100 N.am      2 ALA2        0.0000 
     24 N           6.6000  -40.9600  -16.3100 N.am      2 ALA2        0.0000 
     25 O          11.2800  -50.6400  -10.0100 O.2       2 ALA2        0.0000 
     26 O          12.4900  -49.9200  -10.5100 O.2       2 ALA2        0.0000 
     27 O          11.6200  -48.8000  -11.0100 O.2       2 ALA2        0.0000 
     28 N           9.5400  -48.4100  -11.0000 N.am      2 ALA2        0.0000 
     29 O          10.7500  -47.6900  -11.5100 O.2       2 ALA2        0.0000 
     30 N          11.9600  -46.9600  -12.0100 N.am      2 ALA2        0.0000 
     31 N           8.6600  -47.3000  -11.5000 N.am      2 ALA2        0.0000 
     32 N          12.9700  -47.3800  -10.1900 N.am      2 ALA2        0.0000 
     33 N          10.8800  -46.9900  -10.1800 N.am      2 ALA2        0.0000 
     34 N          10.0100  -45.8800  -10.6800 N.am      2 ALA2        0.0000 
     35 OD1         8.4700  -42.5000  -13.9900 O.co2     3 ASP3        0.0000 
     36 NZ         10.9600  -46.5400  -13.8300 N.4       4 LYS4        0.0000 
     37 NZ          8.8700  -46.1500  -13.8200 N.4       4 LYS4        0.0000 
     38 NZ          8.0000  -45.0400  -14.3200 N.4       4 LYS4        0.0000 
     39 NZ          7.1300  -43.9200  -14.8200 N.4       4 LYS4        0.0000 
     40 NZ          8.3400  -43.1900  -15.3200 N.4       4 LYS4        0.0000 
     41 NZ         11.0900  -45.8500  -12.5000 N.4       4 LYS4        0.0000 
     42 NZ         10.2200  -44.7300  -13.0000 N.4       4 LYS4        0.0000 
     43 NZ          9.3500  -43.6200  -13.5000 N.4       4 LYS4        0.0000 
     44 NZ         14.3700  -51.4500   -8.2000 N.4       4 LYS4        0.0000 
     45 NZ         13.5000  -50.3400   -8.6900 N.4       4 LYS4        0.0000 
     46 NZ         13.8400  -48.5000   -9.6900 N.4       4 LYS4        0.0000 
     47 NZ         12.0900  -46.2700  -10.6800 N.4       4 LYS4        0.0000 
     48 NZ         11.2200  -45.1500  -11.1800 N.4       4 LYS4        0.0000 
     49 NZ         14.8400  -48.9200   -7.8700 N.4       4 LYS4        0.0000 
     50 NZ         13.9700  -47.8000   -8.3700 N.4       4 LYS4        0.0000 
     51 NZ         14.3100  -45.9600   -9.3600 N.4       4 LYS4        0.0000 
     52 NZ         12.2300  -45.5800   -9.3600 N.4       4 LYS4        0.0000 
     53 CZ          4.3100  -47.4500  -17.7800 C.ar      5 PHE5        0.0000 
     54 CZ          5.5200  -46.7300  -18.2900 C.ar      5 PHE5        0.0000 
     55 CZ          6.7100  -51.9400  -13.9700 C.ar      5 PHE5        0.0000 
     56 CZ          7.9300  -51.2200  -14.4800 C.ar      5 PHE5        0.0000 
     57 CZ          9.1400  -50.4900  -14.9800 C.ar      5 PHE5        0.0000 
     58 CZ          5.8400  -50.8300  -14.4700 C.ar      5 PHE5        0.0000 
     59 CZ          4.9700  -49.7100  -14.9700 C.ar      5 PHE5        0.0000 
     60 CZ          4.1000  -48.6000  -15.4600 C.ar      5 PHE5        0.0000 
     61 CZ          5.3100  -47.8700  -15.9600 C.ar      5 PHE5        0.0000 
     62 CZ          4.4400  -46.7600  -16.4600 C.ar      5 PHE5        0.0000 
     63 CZ          5.6500  -46.0300  -16.9600 C.ar      5 PHE5        0.0000 
     64 CZ          5.9700  -50.1400  -13.1500 C.ar      5 PHE5        0.0000 
     65 CZ          7.1900  -49.4100  -13.6500 C.ar      5 PHE5        0.0000 
     66 CZ          8.4000  -48.6800  -14.1500 C.ar      5 PHE5        0.0000 
     67 CZ          9.6100  -47.9600  -14.6500 C.ar      5 PHE5        0.0000 
     68 CZ          5.1000  -49.0200  -13.6400 C.ar      5 PHE5        0.0000 
     69 CZ          5.4400  -47.1800  -14.6400 C.ar      5 PHE5        0.0000 
     70 CZ          6.6500  -46.4500  -15.1400 C.ar      5 PHE5        0.0000 
     71 CZ          5.7800  -45.3400  -15.6400 C.ar      5 PHE5        0.0000 
     72 CZ          8.5300  -47.9900  -12.8300 C.ar      5 PHE5        0.0000 
     73 CZ          7.6600  -46.8800  -13.3200 C.ar      5 PHE5        0.0000 
     74 CZ          6.7900  -45.7600  -13.8200 C.ar      5 PHE5        0.0000 
     75 CA          4.6500  -45.6100  -18.7800 C.3       6 GLY6        0.0000 
     76 CA         13.2300  -51.7200  -11.3400 C.3       6 GLY6        0.0000 
     77 CA          9.0000  -45.4600  -12.5000 C.3       6 GLY6        0.0000 
     78 CA          8.1300  -44.3400  -12.9900 C.3       6 GLY6        0.0000 
     79 DU          3.5700  -45.6400  -16.9600 H         7 CUB7        0.0000 
     80 DU          4.7800  -44.9200  -17.4600 H         7 CUB7        0.0000 
     81 DU          3.9100  -43.8000  -17.9500 H         7 CUB7        0.0000 
     82 DU          4.9100  -44.2200  -16.1300 H         7 CUB7        0.0000 
     83 DU          6.4500  -47.6000  -12.8200 H         7 CUB7        0.0000 
     84 DU          5.9100  -44.6500  -14.3100 H         7 CUB7        0.0000 
     85 DU         12.1500  -51.7600   -9.5200 H         7 CUB7        0.0000 
     86 DU          9.8800  -46.5700  -12.0000 H         7 CUB7        0.0000 
     87 DU         12.6300  -49.2200   -9.1900 H         7 CUB7        0.0000 
     88 DU         11.7500  -48.1100   -9.6900 H         7 CUB7        0.0000 
     89 DU         13.1000  -46.6900   -8.8600 H         7 CUB7        0.0000 
@<TRIPOS>BOND
@<TRIPOS>SUBSTRUCTURE
     1 SER1        1 GROUP   
     2 ALA2        4 GROUP   
     3 ASP3       35 GROUP   
     4 LYS4       36 GROUP   
     5 PHE5       53 GROUP   
     6 GLY6       75 GROUP   
     7 CUB7       79 GROUP   
@<TRIPOS>SET

