#    Name: 5xag_5_GTP_CAVITY_N1_8
#    Modification time : Fri May 22 19:19:49 2020

@<TRIPOS>MOLECULE
5xag_5_GTP_CAVITY_N1_8
   30     0     6     0     0
SMALL
NO_CHARGES


@<TRIPOS>ATOM
      1 OG          7.0100  -15.9600   16.4500 O.3       1 SER1        0.0000 
      2 OG          8.2300  -15.2300   15.9500 O.3       1 SER1        0.0000 
      3 O           4.3200  -18.8000   14.8100 O.2       2 ALA2        0.0000 
      4 N           3.4500  -17.6800   14.3100 N.am      2 ALA2        0.0000 
      5 O           4.4600  -18.1100   16.1300 O.2       2 ALA2        0.0000 
      6 N           3.5800  -16.9900   15.6400 N.am      2 ALA2        0.0000 
      7 N           7.3500  -14.1200   15.4600 N.am      2 ALA2        0.0000 
      8 N           9.5700  -13.8200   16.7800 N.am      2 ALA2        0.0000 
      9 OD1         7.4900  -13.4300   16.7800 O.co2     3 ASP3        0.0000 
     10 OD1         6.6100  -12.3100   16.2800 O.co2     3 ASP3        0.0000 
     11 CZ          5.5400  -18.0700   14.3100 C.ar      4 PHE5        0.0000 
     12 CZ          5.6700  -17.3800   15.6300 C.ar      4 PHE5        0.0000 
     13 CZ          5.8000  -16.6900   16.9500 C.ar      4 PHE5        0.0000 
     14 CA          4.6600  -16.9600   13.8100 C.3       5 GLY6        0.0000 
     15 CA          4.8000  -16.2600   15.1300 C.3       5 GLY6        0.0000 
     16 CA          6.0100  -15.5400   14.6300 C.3       5 GLY6        0.0000 
     17 CA          3.9200  -15.1500   14.6400 C.3       5 GLY6        0.0000 
     18 CA          5.1400  -14.4200   14.1400 C.3       5 GLY6        0.0000 
     19 CA          5.2700  -13.7300   15.4600 C.3       5 GLY6        0.0000 
     20 CA          6.4800  -13.0100   14.9600 C.3       5 GLY6        0.0000 
     21 CA          9.2300  -15.6600   17.7700 C.3       5 GLY6        0.0000 
     22 CA         10.4400  -14.9300   17.2700 C.3       5 GLY6        0.0000 
     23 CA          7.1500  -15.2700   17.7800 C.3       5 GLY6        0.0000 
     24 CA          8.3600  -14.5400   17.2800 C.3       5 GLY6        0.0000 
     25 CA         11.4500  -15.3500   19.0900 C.3       5 GLY6        0.0000 
     26 CA          9.3600  -14.9600   19.1000 C.3       5 GLY6        0.0000 
     27 CA          8.4900  -13.8500   18.6000 C.3       5 GLY6        0.0000 
     28 DU          4.9300  -15.5700   16.4600 H         6 CUB7        0.0000 
     29 DU          6.1400  -14.8500   15.9600 H         6 CUB7        0.0000 
     30 DU          6.2700  -14.1500   17.2800 H         6 CUB7        0.0000 
@<TRIPOS>BOND
@<TRIPOS>SUBSTRUCTURE
     1 SER1        1 GROUP   
     2 ALA2        3 GROUP   
     3 ASP3        9 GROUP   
     4 PHE5       11 GROUP   
     5 GLY6       14 GROUP   
     6 CUB7       28 GROUP   
@<TRIPOS>SET

