#    Name: 5xag_7_ACP
#    Modification time : Fri May 22 19:19:52 2020

@<TRIPOS>MOLECULE
5xag_7_ACP
   31    33     1     0     1
SMALL
NO_CHARGES


@<TRIPOS>ATOM
      1 PG         11.4220  -48.5940  -92.4950 P.3       1 ACP402      0.0000 
      2 O1G        10.0550  -48.1560  -92.9690 O.co2     1 ACP402      0.0000 
      3 O2G        11.2550  -49.7140  -91.4800 O.co2     1 ACP402      0.0000 
      4 O3G        12.1370  -47.4340  -91.8440 O.co2     1 ACP402      0.0000 
      5 PB         11.9360  -48.3550  -95.5170 P.3       1 ACP402      0.0000 
      6 O1B        12.9110  -48.7240  -96.5840 O.co2     1 ACP402      0.0000 
      7 O2B        12.0250  -46.8790  -95.2650 O.co2     1 ACP402      0.0000 
      8 C3B        12.4150  -49.2230  -93.9330 C.3       1 ACP402      0.0000 
      9 PA          9.7400  -49.2750  -97.3930 P.3       1 ACP402      0.0000 
     10 O1A        10.6600  -50.2250  -98.1110 O.co2     1 ACP402      0.0000 
     11 O2A         8.4500  -49.9900  -97.1000 O.co2     1 ACP402      0.0000 
     12 O3A        10.3780  -48.7590  -95.9420 O.3       1 ACP402      0.0000 
     13 O5'         9.3820  -47.9920  -98.3880 O.3       1 ACP402      0.0000 
     14 C5'         8.3760  -48.1420  -99.3730 C.3       1 ACP402      0.0000 
     15 C4'         8.4990  -47.0750 -100.4470 C.3       1 ACP402      0.0000 
     16 O4'         9.5280  -47.4930 -101.4370 O.3       1 ACP402      0.0000 
     17 C3'         7.2340  -46.8560 -101.1960 C.3       1 ACP402      0.0000 
     18 O3'         6.7130  -45.5760 -101.4300 O.3       1 ACP402      0.0000 
     19 C2'         7.3620  -47.5550 -102.4680 C.3       1 ACP402      0.0000 
     20 O2'         6.8110  -46.7240 -103.5500 O.3       1 ACP402      0.0000 
     21 C1'         8.8040  -47.7670 -102.7000 C.3       1 ACP402      0.0000 
     22 N9          9.0800  -49.1130 -103.0610 N.pl3     1 ACP402      0.0000 
     23 C8          9.8530  -49.8890 -102.2940 C.2       1 ACP402      0.0000 
     24 N7          9.9440  -51.1050 -102.8960 N.2       1 ACP402      0.0000 
     25 C5          9.1440  -51.0070 -104.1330 C.ar      1 ACP402      0.0000 
     26 C6          8.8470  -51.8710 -105.1390 C.ar      1 ACP402      0.0000 
     27 N6          9.3760  -53.2360 -105.1210 N.pl3     1 ACP402      0.0000 
     28 N1          8.0680  -51.4520 -106.1370 N.ar      1 ACP402      0.0000 
     29 C2          7.5900  -50.2110 -106.1500 C.ar      1 ACP402      0.0000 
     30 N3          7.8600  -49.3360 -105.1810 N.ar      1 ACP402      0.0000 
     31 C4          8.6180  -49.6950 -104.1770 C.ar      1 ACP402      0.0000 
@<TRIPOS>BOND
     1    1    2 ar   
     2    1    3 ar   
     3    1    4 ar   
     4    1    8 1    
     5    5    6 ar   
     6    5    7 ar   
     7    5    8 1    
     8    5   12 1    
     9    9   10 ar   
    10    9   11 ar   
    11    9   12 1    
    12    9   13 1    
    13   13   14 1    
    14   14   15 1    
    15   15   16 1    
    16   15   17 1    
    17   16   21 1    
    18   17   18 1    
    19   17   19 1    
    20   19   20 1    
    21   19   21 1    
    22   21   22 1    
    23   22   23 1    
    24   22   31 1    
    25   23   24 2    
    26   24   25 1    
    27   25   26 ar   
    28   25   31 ar   
    29   26   27 1    
    30   26   28 ar   
    31   28   29 ar   
    32   29   30 ar   
    33   30   31 ar   
@<TRIPOS>SUBSTRUCTURE
     1 ACP402      1 GROUP   
@<TRIPOS>SET
ATOM$ORANGE STATIC     ATOMS   COLORGROUP SYSTEM 
22 8 8 14 14 15 15 17 17 19 19 21 21 23 23 25 25 26 \
26 29 29 31 31 

