#    Name: 5xag_4_GDP_CAVITY_N1_6
#    Modification time : Fri May 22 19:19:40 2020

@<TRIPOS>MOLECULE
5xag_4_GDP_CAVITY_N1_6
   16     0     4     0     0
SMALL
NO_CHARGES


@<TRIPOS>ATOM
      1 OG          7.0000  -44.6100  -16.1400 O.3       1 SER1        0.0000 
      2 N           8.8000  -52.3300  -13.9800 N.am      2 ALA2        0.0000 
      3 O           5.9900  -44.1900  -17.9600 O.2       2 ALA2        0.0000 
      4 O           8.0600  -50.5200  -13.1500 O.2       2 ALA2        0.0000 
      5 O           9.2700  -49.8000  -13.6500 O.2       2 ALA2        0.0000 
      6 O           9.7400  -47.2700  -13.3300 O.2       2 ALA2        0.0000 
      7 O          11.6200  -48.8000  -11.0100 O.2       2 ALA2        0.0000 
      8 N          11.9600  -46.9600  -12.0100 N.am      2 ALA2        0.0000 
      9 NZ         10.9600  -46.5400  -13.8300 N.4       3 LYS4        0.0000 
     10 NZ         11.0900  -45.8500  -12.5000 N.4       3 LYS4        0.0000 
     11 CZ          5.5200  -46.7300  -18.2900 C.ar      4 PHE5        0.0000 
     12 CZ          6.7100  -51.9400  -13.9700 C.ar      4 PHE5        0.0000 
     13 CZ          7.9300  -51.2200  -14.4800 C.ar      4 PHE5        0.0000 
     14 CZ          9.1400  -50.4900  -14.9800 C.ar      4 PHE5        0.0000 
     15 CZ          8.4000  -48.6800  -14.1500 C.ar      4 PHE5        0.0000 
     16 CZ          9.6100  -47.9600  -14.6500 C.ar      4 PHE5        0.0000 
@<TRIPOS>BOND
@<TRIPOS>SUBSTRUCTURE
     1 SER1        1 GROUP   
     2 ALA2        2 GROUP   
     3 LYS4        9 GROUP   
     4 PHE5       11 GROUP   
@<TRIPOS>SET

