#    Name: 5xag_4_GDP
#    Modification time : Fri May 22 19:19:39 2020

@<TRIPOS>MOLECULE
5xag_4_GDP
   28    30     1     0     1
SMALL
NO_CHARGES


@<TRIPOS>ATOM
      1 PB         18.5250  -48.8410  -15.9490 P.3       1 GDP501      0.0000 
      2 O1B        19.1460  -49.4550  -17.1840 O.co2     1 GDP501      0.0000 
      3 O2B        18.2370  -49.9340  -14.9790 O.co2     1 GDP501      0.0000 
      4 O3B        19.4970  -47.8430  -15.3630 O.co2     1 GDP501      0.0000 
      5 O3A        17.2450  -47.9640  -16.3320 O.3       1 GDP501      0.0000 
      6 PA         15.8970  -48.5600  -16.9650 P.3       1 GDP501      0.0000 
      7 O1A        16.0340  -49.9950  -17.3270 O.co2     1 GDP501      0.0000 
      8 O2A        14.7380  -48.2850  -16.0710 O.co2     1 GDP501      0.0000 
      9 O5'        15.7590  -47.6210  -18.2060 O.3       1 GDP501      0.0000 
     10 C5'        14.7930  -46.5750  -18.3320 C.3       1 GDP501      0.0000 
     11 C4'        14.1630  -46.6830  -19.7250 C.3       1 GDP501      0.0000 
     12 O4'        13.6150  -48.0000  -19.9090 O.3       1 GDP501      0.0000 
     13 C3'        13.0000  -45.7500  -19.9330 C.3       1 GDP501      0.0000 
     14 O3'        12.9110  -45.4530  -21.3360 O.3       1 GDP501      0.0000 
     15 C2'        11.7610  -46.5610  -19.5800 C.3       1 GDP501      0.0000 
     16 O2'        10.6960  -46.1140  -20.4370 O.3       1 GDP501      0.0000 
     17 C1'        12.1920  -47.9430  -20.0290 C.3       1 GDP501      0.0000 
     18 N9         11.7590  -49.1410  -19.2840 N.pl3     1 GDP501      0.0000 
     19 C8         12.0710  -49.4780  -18.0310 C.2       1 GDP501      0.0000 
     20 N7         11.5400  -50.6960  -17.7080 N.2       1 GDP501      0.0000 
     21 C5         10.8980  -51.1480  -18.8100 C.2       1 GDP501      0.0000 
     22 C6         10.1510  -52.3540  -19.1790 C.2       1 GDP501      0.0000 
     23 O6         10.0120  -53.2460  -18.3240 O.2       1 GDP501      0.0000 
     24 N1          9.6510  -52.4760  -20.4210 N.am      1 GDP501      0.0000 
     25 C2          9.8210  -51.4980  -21.3400 C.2       1 GDP501      0.0000 
     26 N2          9.2950  -51.6500  -22.5870 N.pl3     1 GDP501      0.0000 
     27 N3         10.5100  -50.3460  -21.0590 N.2       1 GDP501      0.0000 
     28 C4         11.0600  -50.1330  -19.8400 C.2       1 GDP501      0.0000 
@<TRIPOS>BOND
     1    1    2 ar   
     2    1    3 ar   
     3    1    4 ar   
     4    1    5 1    
     5    5    6 1    
     6    6    7 ar   
     7    6    8 ar   
     8    6    9 1    
     9    9   10 1    
    10   10   11 1    
    11   11   12 1    
    12   11   13 1    
    13   12   17 1    
    14   13   14 1    
    15   13   15 1    
    16   15   16 1    
    17   15   17 1    
    18   17   18 1    
    19   18   19 1    
    20   18   28 1    
    21   19   20 2    
    22   20   21 1    
    23   21   22 1    
    24   21   28 2    
    25   22   23 2    
    26   22   24 am   
    27   24   25 1    
    28   25   26 1    
    29   25   27 2    
    30   27   28 1    
@<TRIPOS>SUBSTRUCTURE
     1 GDP501      1 GROUP   
@<TRIPOS>SET
ATOM$ORANGE STATIC     ATOMS   COLORGROUP SYSTEM 
20 10 10 11 11 13 13 15 15 17 17 19 19 21 21 22 22 25 \
25 28 28 

