#    Name: 5xag_5_GTP
#    Modification time : Fri May 22 19:19:47 2020

@<TRIPOS>MOLECULE
5xag_5_GTP
   32    34     1     0     1
SMALL
NO_CHARGES


@<TRIPOS>ATOM
      1 PG         19.9210  -18.1460   16.8970 P.3       1 GTP502      0.0000 
      2 O1G        20.1890  -16.7470   16.4260 O.co2     1 GTP502      0.0000 
      3 O2G        21.1960  -18.7090   17.4870 O.co2     1 GTP502      0.0000 
      4 O3G        18.8310  -18.2740   17.9620 O.co2     1 GTP502      0.0000 
      5 O3B        19.6200  -19.0490   15.5890 O.3       1 GTP502      0.0000 
      6 PB         18.3810  -20.0790   15.4620 P.3       1 GTP502      0.0000 
      7 O1B        18.7560  -21.1660   14.5240 O.co2     1 GTP502      0.0000 
      8 O2B        17.8870  -20.5990   16.7970 O.co2     1 GTP502      0.0000 
      9 O3A        17.3190  -19.1150   14.7780 O.3       1 GTP502      0.0000 
     10 PA         15.8060  -19.4820   14.3980 P.3       1 GTP502      0.0000 
     11 O1A        15.7030  -20.9050   13.9290 O.co2     1 GTP502      0.0000 
     12 O2A        14.8390  -19.1470   15.5100 O.co2     1 GTP502      0.0000 
     13 O5'        15.6630  -18.4370   13.1960 O.3       1 GTP502      0.0000 
     14 C5'        14.6040  -17.5300   13.1930 C.3       1 GTP502      0.0000 
     15 C4'        13.8230  -17.7310   11.9060 C.3       1 GTP502      0.0000 
     16 O4'        13.2520  -19.0190   11.8560 O.3       1 GTP502      0.0000 
     17 C3'        12.6720  -16.7550   11.8820 C.3       1 GTP502      0.0000 
     18 O3'        12.5210  -16.3000   10.5480 O.3       1 GTP502      0.0000 
     19 C2'        11.4990  -17.5690   12.3520 C.3       1 GTP502      0.0000 
     20 O2'        10.3450  -17.1230   11.7180 O.3       1 GTP502      0.0000 
     21 C1'        11.8420  -18.9500   11.8500 C.3       1 GTP502      0.0000 
     22 N9         11.4630  -19.9760   12.8250 N.pl3     1 GTP502      0.0000 
     23 C8         11.9420  -20.1000   14.1090 C.2       1 GTP502      0.0000 
     24 N7         11.3560  -21.1960   14.6410 N.2       1 GTP502      0.0000 
     25 C5         10.5340  -21.7670   13.7180 C.2       1 GTP502      0.0000 
     26 C6          9.7090  -22.8910   13.7310 C.2       1 GTP502      0.0000 
     27 O6          9.6370  -23.5910   14.7300 O.2       1 GTP502      0.0000 
     28 N1          8.9750  -23.2380   12.6140 N.am      1 GTP502      0.0000 
     29 C2          9.0560  -22.4470   11.4730 C.2       1 GTP502      0.0000 
     30 N2          8.3580  -22.7540   10.3780 N.pl3     1 GTP502      0.0000 
     31 N3          9.8800  -21.3250   11.4660 N.2       1 GTP502      0.0000 
     32 C4         10.6020  -21.0020   12.5700 C.2       1 GTP502      0.0000 
@<TRIPOS>BOND
     1    1    2 ar   
     2    1    3 ar   
     3    1    4 ar   
     4    1    5 1    
     5    5    6 1    
     6    6    7 ar   
     7    6    8 ar   
     8    6    9 1    
     9    9   10 1    
    10   10   11 ar   
    11   10   12 ar   
    12   10   13 1    
    13   13   14 1    
    14   14   15 1    
    15   15   16 1    
    16   15   17 1    
    17   16   21 1    
    18   17   18 1    
    19   17   19 1    
    20   19   20 1    
    21   19   21 1    
    22   21   22 1    
    23   22   23 1    
    24   22   32 1    
    25   23   24 2    
    26   24   25 1    
    27   25   26 1    
    28   25   32 2    
    29   26   27 2    
    30   26   28 am   
    31   28   29 1    
    32   29   30 1    
    33   29   31 2    
    34   31   32 1    
@<TRIPOS>SUBSTRUCTURE
     1 GTP502      1 GROUP   
@<TRIPOS>SET
ATOM$ORANGE STATIC     ATOMS   COLORGROUP SYSTEM 
20 14 14 15 15 17 17 19 19 21 21 23 23 25 25 26 26 29 \
29 32 32 

