#    Name: 5xig_3_ANP_CAVITY_N1_ALL
#    Modification time : Fri May 22 19:15:01 2020

@<TRIPOS>MOLECULE
5xig_3_ANP_CAVITY_N1_ALL
   71     0     7     0     0
SMALL
NO_CHARGES


@<TRIPOS>ATOM
      1 OG          8.7200    0.4300   22.4600 O.3       1 SER1        0.0000 
      2 OG          7.1600    1.4400   24.2800 O.3       1 SER1        0.0000 
      3 N           2.7400    0.6800   24.6300 N.am      2 ALA2        0.0000 
      4 O          10.7100    0.3500   21.7400 O.2       2 ALA2        0.0000 
      5 N           3.1800    1.6000   25.7300 N.am      2 ALA2        0.0000 
      6 N           4.3700    0.7200   25.9900 N.am      2 ALA2        0.0000 
      7 N           4.4500    7.4500   22.3500 N.am      2 ALA2        0.0000 
      8 N           3.6500    6.6600   23.3300 N.am      2 ALA2        0.0000 
      9 N           5.6400    6.5700   22.6100 N.am      2 ALA2        0.0000 
     10 N           4.8300    5.7800   23.6000 N.am      2 ALA2        0.0000 
     11 N           4.0300    4.9900   24.5900 N.am      2 ALA2        0.0000 
     12 N           6.8300    5.7000   22.8800 N.am      2 ALA2        0.0000 
     13 N           6.0200    4.9100   23.8600 N.am      2 ALA2        0.0000 
     14 N           5.2200    4.1100   24.8500 N.am      2 ALA2        0.0000 
     15 N           5.6100    2.4400   26.1000 N.am      2 ALA2        0.0000 
     16 N           5.6600    5.0400   25.9500 N.am      2 ALA2        0.0000 
     17 OD1         5.9000    1.2600   20.8300 O.co2     3 ASP3        0.0000 
     18 OD1         3.5800    5.6000   20.1500 O.co2     3 ASP3        0.0000 
     19 OD1         4.7700    4.7300   20.4200 O.co2     3 ASP3        0.0000 
     20 OD1         3.9600    3.9300   21.4000 O.co2     3 ASP3        0.0000 
     21 OD1         5.9500    3.8500   20.6800 O.co2     3 ASP3        0.0000 
     22 OD1         5.1500    3.0600   21.6700 O.co2     3 ASP3        0.0000 
     23 OD1         7.1400    2.9800   20.9400 O.co2     3 ASP3        0.0000 
     24 OD1         6.3400    2.1800   21.9300 O.co2     3 ASP3        0.0000 
     25 OD1         6.0100    6.4400   20.5300 O.co2     3 ASP3        0.0000 
     26 OD1         5.2000    5.6500   21.5100 O.co2     3 ASP3        0.0000 
     27 OD1         6.3900    4.7800   21.7800 O.co2     3 ASP3        0.0000 
     28 OD1         8.3800    4.6900   21.0500 O.co2     3 ASP3        0.0000 
     29 OD1         7.5800    3.9000   22.0400 O.co2     3 ASP3        0.0000 
     30 OD1         9.5700    3.8200   21.3200 O.co2     3 ASP3        0.0000 
     31 OD1         8.7700    3.0200   22.3100 O.co2     3 ASP3        0.0000 
     32 OD1         7.9700    2.2300   23.2900 O.co2     3 ASP3        0.0000 
     33 OD1         9.9600    2.1500   22.5700 O.co2     3 ASP3        0.0000 
     34 OD1         9.1500    1.3600   23.5600 O.co2     3 ASP3        0.0000 
     35 OD1         6.4400    7.3700   21.6200 O.co2     3 ASP3        0.0000 
     36 OD1         7.6300    6.4900   21.8900 O.co2     3 ASP3        0.0000 
     37 OD1         8.0200    4.8200   23.1400 O.co2     3 ASP3        0.0000 
     38 OD1         7.2100    4.0300   24.1300 O.co2     3 ASP3        0.0000 
     39 OD1         6.4100    3.2400   25.1100 O.co2     3 ASP3        0.0000 
     40 OD1         7.6000    2.3600   25.3800 O.co2     3 ASP3        0.0000 
     41 NZ         10.3300    2.0200   20.4800 N.4       4 LYS4        0.0000 
     42 CZ          3.9100    1.3400   21.5600 C.ar      5 PHE5        0.0000 
     43 CZ          5.1000    0.4600   21.8200 C.ar      5 PHE5        0.0000 
     44 CZ          7.9000    1.1800   20.1100 C.ar      5 PHE5        0.0000 
     45 CZ          3.5400    1.4700   23.6400 C.ar      5 PHE5        0.0000 
     46 CZ          8.3300    2.1000   21.2100 C.ar      5 PHE5        0.0000 
     47 CZ          7.5300    1.3100   22.1900 C.ar      5 PHE5        0.0000 
     48 CZ          9.5200    1.2300   21.4700 C.ar      5 PHE5        0.0000 
     49 CA          2.3500    2.3500   23.3800 C.3       6 GLY6        0.0000 
     50 CA          5.5400    1.3900   22.9200 C.3       6 GLY6        0.0000 
     51 CA          4.7300    0.5900   23.9000 C.3       6 GLY6        0.0000 
     52 CA          6.7300    0.5100   23.1800 C.3       6 GLY6        0.0000 
     53 CA          2.4100    4.9400   23.2200 C.3       6 GLY6        0.0000 
     54 CA          3.5900    4.0600   23.4900 C.3       6 GLY6        0.0000 
     55 CA          2.7900    3.2700   24.4700 C.3       6 GLY6        0.0000 
     56 CA          3.9800    2.3900   24.7400 C.3       6 GLY6        0.0000 
     57 CA          5.1700    1.5200   25.0000 C.3       6 GLY6        0.0000 
     58 CA          3.2300    4.1900   25.5700 C.3       6 GLY6        0.0000 
     59 CA          4.4200    3.3200   25.8400 C.3       6 GLY6        0.0000 
     60 CA          3.6100    2.5200   26.8200 C.3       6 GLY6        0.0000 
     61 CA          4.8500    4.2400   26.9300 C.3       6 GLY6        0.0000 
     62 DU          2.7700    4.8100   21.1400 H         7 CUB7        0.0000 
     63 DU          3.1600    3.1400   22.3900 H         7 CUB7        0.0000 
     64 DU          4.3500    2.2600   22.6500 H         7 CUB7        0.0000 
     65 DU          4.0100    6.5300   21.2500 H         7 CUB7        0.0000 
     66 DU          3.2100    5.7300   22.2400 H         7 CUB7        0.0000 
     67 DU          4.4000    4.8600   22.5000 H         7 CUB7        0.0000 
     68 DU          5.5900    3.9800   22.7600 H         7 CUB7        0.0000 
     69 DU          4.7800    3.1900   23.7500 H         7 CUB7        0.0000 
     70 DU          6.7800    3.1100   23.0300 H         7 CUB7        0.0000 
     71 DU          5.9700    2.3100   24.0200 H         7 CUB7        0.0000 
@<TRIPOS>BOND
@<TRIPOS>SUBSTRUCTURE
     1 SER1        1 GROUP   
     2 ALA2        3 GROUP   
     3 ASP3       17 GROUP   
     4 LYS4       41 GROUP   
     5 PHE5       42 GROUP   
     6 GLY6       49 GROUP   
     7 CUB7       62 GROUP   
@<TRIPOS>SET

