#    Name: 5xig_2_ANP
#    Modification time : Fri May 22 19:14:51 2020

@<TRIPOS>MOLECULE
5xig_2_ANP
   31    33     1     0     1
SMALL
NO_CHARGES


@<TRIPOS>ATOM
      1 PG          7.0230  -30.1410    5.9620 P.3       1 ANP1001     0.0000 
      2 O1G         7.9530  -30.5370    4.7750 O.co2     1 ANP1001     0.0000 
      3 O2G         6.5910  -28.6690    5.6830 O.co2     1 ANP1001     0.0000 
      4 O3G         5.8700  -31.0290    6.0600 O.co2     1 ANP1001     0.0000 
      5 PB          8.9970  -29.0980    7.6340 P.3       1 ANP1001     0.0000 
      6 O1B         8.7880  -27.9060    6.8170 O.co2     1 ANP1001     0.0000 
      7 O2B        10.4290  -29.6580    7.3700 O.co2     1 ANP1001     0.0000 
      8 N3B         7.8450  -30.2260    7.3700 N.3       1 ANP1001     0.0000 
      9 PA          9.8360  -28.3310   10.3530 P.3       1 ANP1001     0.0000 
     10 O1A        10.5920  -27.1270    9.9450 O.co2     1 ANP1001     0.0000 
     11 O2A        10.5810  -29.5380   10.7740 O.co2     1 ANP1001     0.0000 
     12 O3A         8.8350  -28.7310    9.1770 O.3       1 ANP1001     0.0000 
     13 O5'         8.8400  -27.9330   11.4970 O.3       1 ANP1001     0.0000 
     14 C5'         8.6330  -28.7850   12.6020 C.3       1 ANP1001     0.0000 
     15 C4'         7.1470  -29.1170   12.7650 C.3       1 ANP1001     0.0000 
     16 O4'         6.3640  -27.9120   12.6840 O.3       1 ANP1001     0.0000 
     17 C3'         6.6730  -29.9280   11.5930 C.3       1 ANP1001     0.0000 
     18 O3'         7.0340  -31.3070   11.7730 O.3       1 ANP1001     0.0000 
     19 C2'         5.1800  -29.7500   11.6860 C.3       1 ANP1001     0.0000 
     20 O2'         4.6440  -30.5490   12.7520 O.3       1 ANP1001     0.0000 
     21 C1'         5.0890  -28.2750   12.0760 C.3       1 ANP1001     0.0000 
     22 N9          4.8710  -27.4360   10.8790 N.pl3     1 ANP1001     0.0000 
     23 C8          5.6550  -27.4080    9.7580 C.2       1 ANP1001     0.0000 
     24 N7          5.2430  -26.5250    8.8580 N.2       1 ANP1001     0.0000 
     25 C5          4.1480  -25.9330    9.4500 C.ar      1 ANP1001     0.0000 
     26 C6          3.2540  -24.9370    9.0150 C.ar      1 ANP1001     0.0000 
     27 N6          3.3650  -24.3400    7.8320 N.pl3     1 ANP1001     0.0000 
     28 N1          2.2530  -24.5760    9.8250 N.ar      1 ANP1001     0.0000 
     29 C2          2.1380  -25.1510   11.0160 C.ar      1 ANP1001     0.0000 
     30 N3          2.9290  -26.0950   11.5180 N.ar      1 ANP1001     0.0000 
     31 C4          3.9240  -26.4760   10.7040 C.ar      1 ANP1001     0.0000 
@<TRIPOS>BOND
     1    1    2 ar   
     2    1    3 ar   
     3    1    4 ar   
     4    1    8 1    
     5    5    6 ar   
     6    5    7 ar   
     7    5    8 1    
     8    5   12 1    
     9    9   10 ar   
    10    9   11 ar   
    11    9   12 1    
    12    9   13 1    
    13   13   14 1    
    14   14   15 1    
    15   15   16 1    
    16   15   17 1    
    17   16   21 1    
    18   17   18 1    
    19   17   19 1    
    20   19   20 1    
    21   19   21 1    
    22   21   22 1    
    23   22   23 1    
    24   22   31 1    
    25   23   24 2    
    26   24   25 1    
    27   25   26 ar   
    28   25   31 ar   
    29   26   27 1    
    30   26   28 ar   
    31   28   29 ar   
    32   29   30 ar   
    33   30   31 ar   
@<TRIPOS>SUBSTRUCTURE
     1 ANP1001     1 GROUP   
@<TRIPOS>SET
ATOM$ORANGE STATIC     ATOMS   COLORGROUP SYSTEM 
20 14 14 15 15 17 17 19 19 21 21 23 23 25 25 26 26 29 \
29 31 31 

