#    Name: 5xig_2_ANP_CAVITY_N1_12
#    Modification time : Fri May 22 19:14:53 2020

@<TRIPOS>MOLECULE
5xig_2_ANP_CAVITY_N1_12
   78     0     5     0     0
SMALL
NO_CHARGES


@<TRIPOS>ATOM
      1 N           7.0600  -31.5600    9.0600 N.am      1 ALA2        0.0000 
      2 N           9.0600  -31.6500    8.3400 N.am      1 ALA2        0.0000 
      3 N          10.2400  -32.5200    8.6000 N.am      1 ALA2        0.0000 
      4 N          11.4300  -33.4000    8.8600 N.am      1 ALA2        0.0000 
      5 N           2.7400  -27.1400    9.1000 N.am      1 ALA2        0.0000 
      6 N           7.5000  -30.6400   10.1600 N.am      1 ALA2        0.0000 
      7 N           6.7000  -31.4300   11.1400 N.am      1 ALA2        0.0000 
      8 N           8.6900  -31.5200   10.4200 N.am      1 ALA2        0.0000 
      9 N          10.6800  -31.6000    9.7000 N.am      1 ALA2        0.0000 
     10 N           9.8800  -32.3900   10.6900 N.am      1 ALA2        0.0000 
     11 N           2.7900  -24.5500    8.9500 N.am      1 ALA2        0.0000 
     12 N           1.9900  -25.3400    9.9300 N.am      1 ALA2        0.0000 
     13 N           3.1800  -26.2100   10.2000 N.am      1 ALA2        0.0000 
     14 N           2.3800  -27.0100   11.1900 N.am      1 ALA2        0.0000 
     15 N           5.1400  -30.4300   12.9700 N.am      1 ALA2        0.0000 
     16 N           7.5700  -29.5900   13.3400 N.am      1 ALA2        0.0000 
     17 N           8.0000  -28.6600   14.4400 N.am      1 ALA2        0.0000 
     18 OD1         6.6800  -29.8900    7.8100 O.co2     2 ASP3        0.0000 
     19 OD1         8.6700  -29.9800    7.0800 O.co2     2 ASP3        0.0000 
     20 OD1         3.5500  -26.3400    8.1100 O.co2     2 ASP3        0.0000 
     21 OD1         4.7400  -27.2200    8.3800 O.co2     2 ASP3        0.0000 
     22 OD1         3.9300  -28.0100    9.3600 O.co2     2 ASP3        0.0000 
     23 OD1         5.9200  -28.1000    8.6400 O.co2     2 ASP3        0.0000 
     24 OD1         5.1200  -28.8900    9.6300 O.co2     2 ASP3        0.0000 
     25 OD1         7.9200  -28.1800    7.9200 O.co2     2 ASP3        0.0000 
     26 OD1         5.5100  -30.5600   10.8800 O.co2     2 ASP3        0.0000 
     27 OD1         9.1100  -29.0500    8.1800 O.co2     2 ASP3        0.0000 
     28 OD1         5.1700  -26.3000    9.4800 O.co2     2 ASP3        0.0000 
     29 OD1         4.3700  -27.0900   10.4600 O.co2     2 ASP3        0.0000 
     30 OD1         3.5600  -27.8800   11.4500 O.co2     2 ASP3        0.0000 
     31 OD1         6.3600  -27.1700    9.7400 O.co2     2 ASP3        0.0000 
     32 OD1         4.7500  -28.7600   11.7100 O.co2     2 ASP3        0.0000 
     33 OD1         7.5500  -28.0500   10.0000 O.co2     2 ASP3        0.0000 
     34 OD1         9.5400  -28.1300    9.2800 O.co2     2 ASP3        0.0000 
     35 OD1         6.8000  -26.2500   10.8400 O.co2     2 ASP3        0.0000 
     36 OD1         7.9900  -27.1200   11.1000 O.co2     2 ASP3        0.0000 
     37 OD1         9.9800  -27.2000   10.3800 O.co2     2 ASP3        0.0000 
     38 CZ         11.8700  -32.4700    9.9600 C.ar      3 PHE5        0.0000 
     39 CZ          3.9800  -25.4200    9.2100 C.ar      3 PHE5        0.0000 
     40 CZ          3.6100  -25.2900   11.3000 C.ar      3 PHE5        0.0000 
     41 CZ          5.6100  -25.3700   10.5700 C.ar      3 PHE5        0.0000 
     42 CZ          9.1700  -28.0000   11.3700 C.ar      3 PHE5        0.0000 
     43 CZ          8.4200  -26.2000   12.2000 C.ar      3 PHE5        0.0000 
     44 CZ          7.6200  -26.9900   13.1900 C.ar      3 PHE5        0.0000 
     45 CZ          9.6100  -27.0700   12.4600 C.ar      3 PHE5        0.0000 
     46 CZ          8.8100  -27.8700   13.4500 C.ar      3 PHE5        0.0000 
     47 CA         12.6700  -31.6800    8.9800 C.3       4 GLY6        0.0000 
     48 CA          6.3300  -31.3000   13.2300 C.3       4 GLY6        0.0000 
     49 CA          9.1200  -30.5900   11.5200 C.3       4 GLY6        0.0000 
     50 CA          8.3200  -31.3900   12.5100 C.3       4 GLY6        0.0000 
     51 CA         11.1200  -30.6700   10.8000 C.3       4 GLY6        0.0000 
     52 CA         10.3100  -31.4700   11.7800 C.3       4 GLY6        0.0000 
     53 CA          4.8000  -26.1700   11.5600 C.3       4 GLY6        0.0000 
     54 CA          5.9900  -27.0400   11.8300 C.3       4 GLY6        0.0000 
     55 CA          5.1900  -27.8400   12.8100 C.3       4 GLY6        0.0000 
     56 CA          7.1800  -27.9200   12.0900 C.3       4 GLY6        0.0000 
     57 CA          6.3800  -28.7100   13.0800 C.3       4 GLY6        0.0000 
     58 CA          6.7600  -30.3800   14.3300 C.3       4 GLY6        0.0000 
     59 CA          9.5600  -29.6700   12.6200 C.3       4 GLY6        0.0000 
     60 CA          6.8100  -27.7900   14.1700 C.3       4 GLY6        0.0000 
     61 DU          7.8700  -30.7700    8.0700 H         5 CUB7        0.0000 
     62 DU          7.1100  -28.9700    8.9100 H         5 CUB7        0.0000 
     63 DU          6.3100  -29.7600    9.8900 H         5 CUB7        0.0000 
     64 DU          8.3000  -29.8500    9.1700 H         5 CUB7        0.0000 
     65 DU         11.1000  -29.1300    7.4600 H         5 CUB7        0.0000 
     66 DU         10.3000  -29.9300    8.4500 H         5 CUB7        0.0000 
     67 DU          9.4900  -30.7200    9.4300 H         5 CUB7        0.0000 
     68 DU         11.4800  -30.8000    8.7100 H         5 CUB7        0.0000 
     69 DU          5.5600  -27.9700   10.7300 H         5 CUB7        0.0000 
     70 DU          6.7500  -28.8400   10.9900 H         5 CUB7        0.0000 
     71 DU          5.9400  -29.6300   11.9800 H         5 CUB7        0.0000 
     72 DU          8.7400  -28.9200   10.2700 H         5 CUB7        0.0000 
     73 DU          7.9400  -29.7200   11.2600 H         5 CUB7        0.0000 
     74 DU          7.1300  -30.5100   12.2400 H         5 CUB7        0.0000 
     75 DU         10.7300  -29.0000    9.5500 H         5 CUB7        0.0000 
     76 DU          9.9300  -29.8000   10.5300 H         5 CUB7        0.0000 
     77 DU         11.9200  -29.8800    9.8100 H         5 CUB7        0.0000 
     78 DU          8.3700  -28.7900   12.3500 H         5 CUB7        0.0000 
@<TRIPOS>BOND
@<TRIPOS>SUBSTRUCTURE
     1 ALA2        1 GROUP   
     2 ASP3       18 GROUP   
     3 PHE5       38 GROUP   
     4 GLY6       47 GROUP   
     5 CUB7       61 GROUP   
@<TRIPOS>SET

