#    Name: 5xig_4_ANP_CAVITY_N1_4
#    Modification time : Fri May 22 19:15:09 2020

@<TRIPOS>MOLECULE
5xig_4_ANP_CAVITY_N1_4
   78     0     6     0     0
SMALL
NO_CHARGES


@<TRIPOS>ATOM
      1 OG         -7.1500   32.7900  -37.3900 O.3       1 SER1        0.0000 
      2 O          -6.3500   33.5800  -38.3700 O.2       2 ALA2        0.0000 
      3 O          -5.1600   32.7000  -38.1100 O.2       2 ALA2        0.0000 
      4 O          -3.1700   32.6200  -38.8300 O.2       2 ALA2        0.0000 
      5 O          -3.9700   31.8300  -37.8500 O.2       2 ALA2        0.0000 
      6 N           1.9700   27.4500  -36.5300 N.am      2 ALA2        0.0000 
      7 O          -5.5300   32.8300  -36.0300 O.2       2 ALA2        0.0000 
      8 O          -4.3400   31.9600  -35.7600 O.2       2 ALA2        0.0000 
      9 O          -1.5400   32.6700  -37.4700 O.2       2 ALA2        0.0000 
     10 O          -2.3500   31.8800  -36.4800 O.2       2 ALA2        0.0000 
     11 N          -4.7600   29.5000  -33.5200 N.am      2 ALA2        0.0000 
     12 N           1.6100   27.5800  -34.4400 N.am      2 ALA2        0.0000 
     13 N          -2.7100   32.0100  -34.4000 N.am      2 ALA2        0.0000 
     14 OD1        -3.6500   29.1100  -39.7800 O.co2     3 ASP3        0.0000 
     15 OD1        -4.4600   28.3100  -38.7900 O.co2     3 ASP3        0.0000 
     16 OD1        -2.4100   30.8200  -39.6700 O.co2     3 ASP3        0.0000 
     17 OD1        -3.2200   30.0300  -38.6800 O.co2     3 ASP3        0.0000 
     18 OD1        -4.0200   29.2400  -37.6900 O.co2     3 ASP3        0.0000 
     19 OD1        -4.8300   28.4400  -36.7100 O.co2     3 ASP3        0.0000 
     20 OD1        -1.2300   29.9500  -39.4000 O.co2     3 ASP3        0.0000 
     21 OD1        -2.0300   29.1500  -38.4200 O.co2     3 ASP3        0.0000 
     22 OD1        -2.8300   28.3600  -37.4300 O.co2     3 ASP3        0.0000 
     23 OD1        -3.6400   27.5700  -36.4400 O.co2     3 ASP3        0.0000 
     24 OD1        -1.6400   27.4900  -37.1700 O.co2     3 ASP3        0.0000 
     25 OD1        -1.1700   32.5400  -39.5600 O.co2     3 ASP3        0.0000 
     26 OD1         0.0100   31.6700  -39.2900 O.co2     3 ASP3        0.0000 
     27 OD1        -0.7900   30.8700  -38.3100 O.co2     3 ASP3        0.0000 
     28 OD1         0.4000   30.0000  -38.0400 O.co2     3 ASP3        0.0000 
     29 OD1        -0.4000   29.2000  -37.0500 O.co2     3 ASP3        0.0000 
     30 OD1         0.7900   28.3300  -36.7900 O.co2     3 ASP3        0.0000 
     31 OD1        -0.3500   31.8000  -37.2100 O.co2     3 ASP3        0.0000 
     32 OD1        -1.1600   31.0000  -36.2200 O.co2     3 ASP3        0.0000 
     33 OD1         0.0300   30.1300  -35.9600 O.co2     3 ASP3        0.0000 
     34 OD1        -0.7700   29.3300  -34.9700 O.co2     3 ASP3        0.0000 
     35 OD1         0.4200   28.4600  -34.7000 O.co2     3 ASP3        0.0000 
     36 OD1        -1.5200   31.1300  -34.1300 O.co2     3 ASP3        0.0000 
     37 OD1        -0.3300   30.2600  -33.8700 O.co2     3 ASP3        0.0000 
     38 CZ         -7.5900   31.8600  -38.4900 C.ar      4 PHE5        0.0000 
     39 CZ         -5.6300   27.6500  -35.7200 C.ar      4 PHE5        0.0000 
     40 CZ         -2.4500   26.6900  -36.1800 C.ar      4 PHE5        0.0000 
     41 CZ         -0.4500   26.6100  -36.9000 C.ar      4 PHE5        0.0000 
     42 CZ         -5.1900   28.5700  -34.6200 C.ar      4 PHE5        0.0000 
     43 CZ         -4.0000   27.7000  -34.3600 C.ar      4 PHE5        0.0000 
     44 CZ         -0.0200   27.5300  -35.8000 C.ar      4 PHE5        0.0000 
     45 CZ         -0.8200   26.7400  -34.8200 C.ar      4 PHE5        0.0000 
     46 CZ          1.1700   26.6600  -35.5400 C.ar      4 PHE5        0.0000 
     47 CZ          0.3700   25.8600  -34.5500 C.ar      4 PHE5        0.0000 
     48 CA         -7.2200   31.7300  -40.5700 C.3       5 GLY6        0.0000 
     49 CA         -6.4000   30.9900  -38.2200 C.3       5 GLY6        0.0000 
     50 CA         -5.9600   31.9100  -37.1200 C.3       5 GLY6        0.0000 
     51 CA         -4.7700   31.0400  -36.8600 C.3       5 GLY6        0.0000 
     52 CA         -5.5800   30.2400  -35.8700 C.3       5 GLY6        0.0000 
     53 CA         -2.0100   27.6200  -35.0800 C.3       5 GLY6        0.0000 
     54 CA         -5.1400   31.1700  -34.7700 C.3       5 GLY6        0.0000 
     55 CA         -3.9500   30.2900  -34.5100 C.3       5 GLY6        0.0000 
     56 CA         -2.7600   29.4100  -34.2500 C.3       5 GLY6        0.0000 
     57 CA         -3.5700   28.6200  -33.2600 C.3       5 GLY6        0.0000 
     58 CA         -1.5700   28.5400  -33.9800 C.3       5 GLY6        0.0000 
     59 CA         -3.5200   31.2100  -33.4100 C.3       5 GLY6        0.0000 
     60 DU         -6.0300   30.8600  -40.3100 H         6 CUB7        0.0000 
     61 DU         -6.8400   30.0600  -39.3200 H         6 CUB7        0.0000 
     62 DU         -4.8400   29.9800  -40.0400 H         6 CUB7        0.0000 
     63 DU         -5.6500   29.1900  -39.0600 H         6 CUB7        0.0000 
     64 DU         -6.7900   32.6600  -39.4700 H         6 CUB7        0.0000 
     65 DU         -5.6000   31.7800  -39.2100 H         6 CUB7        0.0000 
     66 DU         -4.4100   30.9000  -38.9400 H         6 CUB7        0.0000 
     67 DU         -5.2100   30.1100  -37.9600 H         6 CUB7        0.0000 
     68 DU         -1.9800   31.7500  -38.5700 H         6 CUB7        0.0000 
     69 DU         -2.7800   30.9500  -37.5800 H         6 CUB7        0.0000 
     70 DU         -3.5900   30.1600  -36.6000 H         6 CUB7        0.0000 
     71 DU         -4.3900   29.3700  -35.6100 H         6 CUB7        0.0000 
     72 DU         -1.5900   30.0800  -37.3200 H         6 CUB7        0.0000 
     73 DU         -2.4000   29.2800  -36.3300 H         6 CUB7        0.0000 
     74 DU         -3.2000   28.4900  -35.3400 H         6 CUB7        0.0000 
     75 DU         -1.2100   28.4100  -36.0700 H         6 CUB7        0.0000 
     76 DU         -3.1500   31.0800  -35.5000 H         6 CUB7        0.0000 
     77 DU         -1.9600   30.2100  -35.2300 H         6 CUB7        0.0000 
     78 DU         -2.3300   30.3400  -33.1500 H         6 CUB7        0.0000 
@<TRIPOS>BOND
@<TRIPOS>SUBSTRUCTURE
     1 SER1        1 GROUP   
     2 ALA2        2 GROUP   
     3 ASP3       14 GROUP   
     4 PHE5       38 GROUP   
     5 GLY6       48 GROUP   
     6 CUB7       60 GROUP   
@<TRIPOS>SET

