#    Name: 5xig_3_ANP
#    Modification time : Fri May 22 19:14:59 2020

@<TRIPOS>MOLECULE
5xig_3_ANP
   31    33     1     0     1
SMALL
NO_CHARGES


@<TRIPOS>ATOM
      1 PG          7.1450    7.1590   20.7880 P.3       1 ANP1001     0.0000 
      2 O1G         7.8370    6.2920   19.6930 O.co2     1 ANP1001     0.0000 
      3 O2G         6.4170    8.3030   20.0180 O.co2     1 ANP1001     0.0000 
      4 O3G         8.1110    7.6860   21.7450 O.co2     1 ANP1001     0.0000 
      5 PB          4.9600    5.5910   20.6480 P.3       1 ANP1001     0.0000 
      6 O1B         5.4720    5.3780   19.2980 O.co2     1 ANP1001     0.0000 
      7 O2B         3.6750    6.4710   20.5620 O.co2     1 ANP1001     0.0000 
      8 N3B         6.0760    6.2730   21.5990 N.3       1 ANP1001     0.0000 
      9 PA          3.1960    3.4090   21.5120 P.3       1 ANP1001     0.0000 
     10 O1A         2.6890    2.9590   20.1970 O.co2     1 ANP1001     0.0000 
     11 O2A         2.3230    4.2230   22.3860 O.co2     1 ANP1001     0.0000 
     12 O3A         4.5900    4.1780   21.3010 O.3       1 ANP1001     0.0000 
     13 O5'         3.7060    2.1490   22.3250 O.3       1 ANP1001     0.0000 
     14 C5'         3.3660    1.9680   23.6930 C.3       1 ANP1001     0.0000 
     15 C4'         4.6190    1.8700   24.5590 C.3       1 ANP1001     0.0000 
     16 O4'         5.5930    1.0570   23.9150 O.3       1 ANP1001     0.0000 
     17 C3'         5.2650    3.2080   24.6130 C.3       1 ANP1001     0.0000 
     18 O3'         4.5950    3.9930   25.5960 O.3       1 ANP1001     0.0000 
     19 C2'         6.6640    2.8740   25.0220 C.3       1 ANP1001     0.0000 
     20 O2'         6.7080    2.5760   26.4090 O.3       1 ANP1001     0.0000 
     21 C1'         6.8840    1.5730   24.2780 C.3       1 ANP1001     0.0000 
     22 N9          7.6660    1.7150   23.0470 N.pl3     1 ANP1001     0.0000 
     23 C8          7.3570    2.4690   21.9540 C.2       1 ANP1001     0.0000 
     24 N7          8.2290    2.3650   20.9680 N.2       1 ANP1001     0.0000 
     25 C5          9.1470    1.4500   21.4500 C.ar      1 ANP1001     0.0000 
     26 C6         10.3160    0.8900   20.9030 C.ar      1 ANP1001     0.0000 
     27 N6         10.7490    1.1930   19.7060 N.pl3     1 ANP1001     0.0000 
     28 N1         11.0200    0.0070   21.6140 N.ar      1 ANP1001     0.0000 
     29 C2         10.5870   -0.3100   22.8220 C.ar      1 ANP1001     0.0000 
     30 N3          9.5150    0.1640   23.4390 N.ar      1 ANP1001     0.0000 
     31 C4          8.8020    1.0370   22.7210 C.ar      1 ANP1001     0.0000 
@<TRIPOS>BOND
     1    1    2 ar   
     2    1    3 ar   
     3    1    4 ar   
     4    1    8 1    
     5    5    6 ar   
     6    5    7 ar   
     7    5    8 1    
     8    5   12 1    
     9    9   10 ar   
    10    9   11 ar   
    11    9   12 1    
    12    9   13 1    
    13   13   14 1    
    14   14   15 1    
    15   15   16 1    
    16   15   17 1    
    17   16   21 1    
    18   17   18 1    
    19   17   19 1    
    20   19   20 1    
    21   19   21 1    
    22   21   22 1    
    23   22   23 1    
    24   22   31 1    
    25   23   24 2    
    26   24   25 1    
    27   25   26 ar   
    28   25   31 ar   
    29   26   27 1    
    30   26   28 ar   
    31   28   29 ar   
    32   29   30 ar   
    33   30   31 ar   
@<TRIPOS>SUBSTRUCTURE
     1 ANP1001     1 GROUP   
@<TRIPOS>SET
ATOM$ORANGE STATIC     ATOMS   COLORGROUP SYSTEM 
20 14 14 15 15 17 17 19 19 21 21 23 23 25 25 26 26 29 \
29 31 31 

