#    Name: 5xig_4_ANP
#    Modification time : Fri May 22 19:15:07 2020

@<TRIPOS>MOLECULE
5xig_4_ANP
   31    33     1     0     1
SMALL
NO_CHARGES


@<TRIPOS>ATOM
      1 PG         -0.8240   31.3960  -40.4070 P.3       1 ANP1001     0.0000 
      2 O1G        -1.3950   31.9370  -41.7530 O.co2     1 ANP1001     0.0000 
      3 O2G        -0.2040   30.0050  -40.7430 O.co2     1 ANP1001     0.0000 
      4 O3G         0.1690   32.3040  -39.8420 O.co2     1 ANP1001     0.0000 
      5 PB         -3.1180   30.0690  -39.6640 P.3       1 ANP1001     0.0000 
      6 O1B        -2.5600   29.0400  -40.5360 O.co2     1 ANP1001     0.0000 
      7 O2B        -4.3950   30.6660  -40.3330 O.co2     1 ANP1001     0.0000 
      8 N3B        -2.0230   31.2250  -39.3210 N.3       1 ANP1001     0.0000 
      9 PA         -4.8570   28.9010  -37.5930 P.3       1 ANP1001     0.0000 
     10 O1A        -5.3610   27.7640  -38.3940 O.co2     1 ANP1001     0.0000 
     11 O2A        -5.7470   30.0590  -37.3570 O.co2     1 ANP1001     0.0000 
     12 O3A        -3.5020   29.4250  -38.2490 O.3       1 ANP1001     0.0000 
     13 O5'        -4.3620   28.3450  -36.1790 O.3       1 ANP1001     0.0000 
     14 C5'        -4.7720   29.0190  -35.0020 C.3       1 ANP1001     0.0000 
     15 C4'        -3.5350   29.4840  -34.2470 C.3       1 ANP1001     0.0000 
     16 O4'        -2.5760   28.4190  -34.1570 O.3       1 ANP1001     0.0000 
     17 C3'        -2.8400   30.5210  -35.0850 C.3       1 ANP1001     0.0000 
     18 O3'        -3.4720   31.7990  -34.9090 O.3       1 ANP1001     0.0000 
     19 C2'        -1.4520   30.5200  -34.5000 C.3       1 ANP1001     0.0000 
     20 O2'        -1.4250   31.2380  -33.2560 O.3       1 ANP1001     0.0000 
     21 C1'        -1.2550   29.0310  -34.2160 C.3       1 ANP1001     0.0000 
     22 N9         -0.4820   28.3720  -35.2880 N.pl3     1 ANP1001     0.0000 
     23 C8         -0.7660   28.3540  -36.6260 C.2       1 ANP1001     0.0000 
     24 N7          0.1000   27.6370  -37.3300 N.2       1 ANP1001     0.0000 
     25 C5          0.9780   27.1480  -36.3770 C.ar      1 ANP1001     0.0000 
     26 C6          2.1110   26.3200  -36.4540 C.ar      1 ANP1001     0.0000 
     27 N6          2.5660   25.8390  -37.6070 N.pl3     1 ANP1001     0.0000 
     28 N1          2.7850   26.0110  -35.3350 N.ar      1 ANP1001     0.0000 
     29 C2          2.3410   26.4950  -34.1790 C.ar      1 ANP1001     0.0000 
     30 N3          1.2820   27.2830  -33.9980 N.ar      1 ANP1001     0.0000 
     31 C4          0.6170   27.5870  -35.1180 C.ar      1 ANP1001     0.0000 
@<TRIPOS>BOND
     1    1    2 ar   
     2    1    3 ar   
     3    1    4 ar   
     4    1    8 1    
     5    5    6 ar   
     6    5    7 ar   
     7    5    8 1    
     8    5   12 1    
     9    9   10 ar   
    10    9   11 ar   
    11    9   12 1    
    12    9   13 1    
    13   13   14 1    
    14   14   15 1    
    15   15   16 1    
    16   15   17 1    
    17   16   21 1    
    18   17   18 1    
    19   17   19 1    
    20   19   20 1    
    21   19   21 1    
    22   21   22 1    
    23   22   23 1    
    24   22   31 1    
    25   23   24 2    
    26   24   25 1    
    27   25   26 ar   
    28   25   31 ar   
    29   26   27 1    
    30   26   28 ar   
    31   28   29 ar   
    32   29   30 ar   
    33   30   31 ar   
@<TRIPOS>SUBSTRUCTURE
     1 ANP1001     1 GROUP   
@<TRIPOS>SET
ATOM$ORANGE STATIC     ATOMS   COLORGROUP SYSTEM 
20 14 14 15 15 17 17 19 19 21 21 23 23 25 25 26 26 29 \
29 31 31 

