#    Name: 5xig_1_ANP_CAVITY_N1_4
#    Modification time : Fri May 22 19:14:44 2020

@<TRIPOS>MOLECULE
5xig_1_ANP_CAVITY_N1_4
   77     0     6     0     0
SMALL
NO_CHARGES


@<TRIPOS>ATOM
      1 OG         -4.4700   -1.3100  -26.1500 O.3       1 SER1        0.0000 
      2 OG          2.6600   -6.5600  -24.5700 O.3       1 SER1        0.0000 
      3 OG          1.9100   -4.7600  -23.7400 O.3       1 SER1        0.0000 
      4 OG          3.1000   -5.6400  -23.4700 O.3       1 SER1        0.0000 
      5 N          -2.1500   -5.6600  -25.4700 N.am      2 ALA2        0.0000 
      6 N          -0.9600   -6.5300  -25.2100 N.am      2 ALA2        0.0000 
      7 N           0.2300   -7.4100  -24.9400 N.am      2 ALA2        0.0000 
      8 O          -0.5200   -5.6100  -24.1100 O.2       2 ALA2        0.0000 
      9 O           1.4700   -5.6900  -24.8300 O.2       2 ALA2        0.0000 
     10 O           0.6700   -6.4800  -23.8500 O.2       2 ALA2        0.0000 
     11 O          -1.2700   -3.8100  -23.2800 O.2       2 ALA2        0.0000 
     12 N          -1.2200   -1.2100  -23.4300 N.am      2 ALA2        0.0000 
     13 OD1        -3.4000   -5.8300  -28.9200 O.co2     3 ASP3        0.0000 
     14 OD1        -2.2200   -6.7100  -28.6600 O.co2     3 ASP3        0.0000 
     15 OD1        -3.0200   -7.5000  -27.6700 O.co2     3 ASP3        0.0000 
     16 OD1        -3.3500   -3.2400  -29.0700 O.co2     3 ASP3        0.0000 
     17 OD1        -4.1600   -4.0300  -28.0900 O.co2     3 ASP3        0.0000 
     18 OD1        -2.1600   -4.1200  -28.8100 O.co2     3 ASP3        0.0000 
     19 OD1        -2.9700   -4.9100  -27.8200 O.co2     3 ASP3        0.0000 
     20 OD1        -3.7700   -5.7000  -26.8400 O.co2     3 ASP3        0.0000 
     21 OD1        -0.9800   -4.9900  -28.5500 O.co2     3 ASP3        0.0000 
     22 OD1        -1.7800   -5.7900  -27.5600 O.co2     3 ASP3        0.0000 
     23 OD1         0.2100   -5.8700  -28.2800 O.co2     3 ASP3        0.0000 
     24 OD1        -0.5900   -6.6600  -27.2900 O.co2     3 ASP3        0.0000 
     25 OD1         2.2100   -5.9500  -29.0000 O.co2     3 ASP3        0.0000 
     26 OD1        -4.9100   -2.2400  -27.2500 O.co2     3 ASP3        0.0000 
     27 OD1        -2.1100   -1.5200  -28.9600 O.co2     3 ASP3        0.0000 
     28 OD1        -3.7200   -3.1100  -26.9900 O.co2     3 ASP3        0.0000 
     29 OD1        -1.7300   -3.1900  -27.7100 O.co2     3 ASP3        0.0000 
     30 OD1        -3.3400   -4.7800  -25.7400 O.co2     3 ASP3        0.0000 
     31 OD1        -0.5400   -4.0700  -27.4500 O.co2     3 ASP3        0.0000 
     32 OD1         1.4500   -4.1500  -28.1700 O.co2     3 ASP3        0.0000 
     33 OD1        -4.0900   -2.9800  -24.9000 O.co2     3 ASP3        0.0000 
     34 OD1        -0.4900   -1.4700  -27.6000 O.co2     3 ASP3        0.0000 
     35 OD1        -1.2900   -2.2700  -26.6100 O.co2     3 ASP3        0.0000 
     36 OD1        -2.9000   -3.8600  -24.6400 O.co2     3 ASP3        0.0000 
     37 OD1         0.7000   -2.3500  -27.3400 O.co2     3 ASP3        0.0000 
     38 OD1         1.8900   -3.2300  -27.0700 O.co2     3 ASP3        0.0000 
     39 CZ         -4.1100   -1.4400  -28.2400 C.ar      4 PHE5        0.0000 
     40 CZ         -1.6800   -0.6000  -27.8600 C.ar      4 PHE5        0.0000 
     41 CZ          4.2700   -4.9800  -26.5400 C.ar      4 PHE5        0.0000 
     42 CZ          3.4600   -5.7700  -25.5600 C.ar      4 PHE5        0.0000 
     43 CZ         -1.2400    0.3200  -26.7700 C.ar      4 PHE5        0.0000 
     44 CZ         -0.8600   -1.3400  -25.5100 C.ar      4 PHE5        0.0000 
     45 CZ          1.1400   -1.4300  -26.2400 C.ar      4 PHE5        0.0000 
     46 CZ         -0.4200   -0.4200  -24.4200 C.ar      4 PHE5        0.0000 
     47 CA          4.2200   -7.5700  -26.3900 C.3       5 GLY6        0.0000 
     48 CA         -3.6700   -0.5200  -27.1400 C.3       5 GLY6        0.0000 
     49 CA         -2.4800   -1.3900  -26.8800 C.3       5 GLY6        0.0000 
     50 CA         -3.2800   -2.1900  -25.8900 C.3       5 GLY6        0.0000 
     51 CA         -1.7100   -4.7300  -24.3700 C.3       5 GLY6        0.0000 
     52 CA         -2.0400   -0.4700  -25.7800 C.3       5 GLY6        0.0000 
     53 CA         -2.8500   -1.2600  -24.7900 C.3       5 GLY6        0.0000 
     54 CA         -0.4700   -3.0100  -24.2600 C.3       5 GLY6        0.0000 
     55 CA          0.7200   -3.8900  -24.0000 C.3       5 GLY6        0.0000 
     56 CA          0.7700   -1.3000  -24.1500 C.3       5 GLY6        0.0000 
     57 CA         -0.0300   -2.0900  -23.1700 C.3       5 GLY6        0.0000 
     58 DU         -2.5800   -6.5800  -26.5700 H         6 CUB7        0.0000 
     59 DU         -2.9200   -2.3200  -27.9800 H         6 CUB7        0.0000 
     60 DU         -2.5300   -3.9900  -26.7200 H         6 CUB7        0.0000 
     61 DU         -1.3400   -4.8600  -26.4600 H         6 CUB7        0.0000 
     62 DU          0.6500   -4.9400  -27.1800 H         6 CUB7        0.0000 
     63 DU         -0.1500   -5.7400  -26.2000 H         6 CUB7        0.0000 
     64 DU          2.6400   -5.0200  -27.9100 H         6 CUB7        0.0000 
     65 DU          1.8400   -5.8200  -26.9200 H         6 CUB7        0.0000 
     66 DU          1.0400   -6.6100  -25.9300 H         6 CUB7        0.0000 
     67 DU          3.8300   -5.9000  -27.6400 H         6 CUB7        0.0000 
     68 DU          3.0300   -6.6900  -26.6500 H         6 CUB7        0.0000 
     69 DU         -2.1000   -3.0600  -25.6300 H         6 CUB7        0.0000 
     70 DU         -0.1000   -3.1400  -26.3500 H         6 CUB7        0.0000 
     71 DU         -0.9100   -3.9400  -25.3600 H         6 CUB7        0.0000 
     72 DU          1.0900   -4.0200  -26.0800 H         6 CUB7        0.0000 
     73 DU          0.2800   -4.8100  -25.1000 H         6 CUB7        0.0000 
     74 DU          3.0800   -4.1000  -26.8100 H         6 CUB7        0.0000 
     75 DU          2.2800   -4.8900  -25.8200 H         6 CUB7        0.0000 
     76 DU         -1.6600   -2.1400  -24.5300 H         6 CUB7        0.0000 
     77 DU          0.3300   -2.2200  -25.2500 H         6 CUB7        0.0000 
@<TRIPOS>BOND
@<TRIPOS>SUBSTRUCTURE
     1 SER1        1 GROUP   
     2 ALA2        5 GROUP   
     3 ASP3       13 GROUP   
     4 PHE5       39 GROUP   
     5 GLY6       47 GROUP   
     6 CUB7       58 GROUP   
@<TRIPOS>SET

