#    Name: 5xig_1_ANP
#    Modification time : Fri May 22 19:14:42 2020

@<TRIPOS>MOLECULE
5xig_1_ANP
   31    33     1     0     1
SMALL
NO_CHARGES


@<TRIPOS>ATOM
      1 PG         -1.8300   -7.1250  -29.1230 P.3       1 ANP1001     0.0000 
      2 O1G        -2.0080   -6.2970  -30.4320 O.co2     1 ANP1001     0.0000 
      3 O2G        -0.7710   -8.2180  -29.4600 O.co2     1 ANP1001     0.0000 
      4 O3G        -3.0900   -7.7150  -28.6850 O.co2     1 ANP1001     0.0000 
      5 PB         -0.0270   -5.2220  -28.3180 P.3       1 ANP1001     0.0000 
      6 O1B        -0.1190   -4.7420  -29.6940 O.co2     1 ANP1001     0.0000 
      7 O2B         1.3320   -5.9640  -28.1290 O.co2     1 ANP1001     0.0000 
      8 N3B        -1.2840   -6.1710  -27.9310 N.3       1 ANP1001     0.0000 
      9 PA          0.9760   -3.0050  -26.6510 P.3       1 ANP1001     0.0000 
     10 O1A         1.8090   -2.4230  -27.7260 O.co2     1 ANP1001     0.0000 
     11 O2A         1.6390   -3.7160  -25.5360 O.co2     1 ANP1001     0.0000 
     12 O3A        -0.1060   -3.9840  -27.3130 O.3       1 ANP1001     0.0000 
     13 O5'         0.0650   -1.8620  -26.0470 O.3       1 ANP1001     0.0000 
     14 C5'        -0.1900   -1.8080  -24.6340 C.3       1 ANP1001     0.0000 
     15 C4'        -1.6960   -1.9230  -24.3480 C.3       1 ANP1001     0.0000 
     16 O4'        -2.4260   -1.1340  -25.2960 O.3       1 ANP1001     0.0000 
     17 C3'        -2.1380   -3.3250  -24.6450 C.3       1 ANP1001     0.0000 
     18 O3'        -1.8480   -4.1800  -23.5260 O.3       1 ANP1001     0.0000 
     19 C2'        -3.6240   -3.1790  -24.8570 C.3       1 ANP1001     0.0000 
     20 O2'        -4.3230   -3.1350  -23.6010 O.3       1 ANP1001     0.0000 
     21 C1'        -3.7030   -1.8020  -25.5100 C.3       1 ANP1001     0.0000 
     22 N9         -3.9500   -1.8620  -26.9530 N.pl3     1 ANP1001     0.0000 
     23 C8         -3.1530   -2.4940  -27.8660 C.2       1 ANP1001     0.0000 
     24 N7         -3.5860   -2.3630  -29.1100 N.2       1 ANP1001     0.0000 
     25 C5         -4.7190   -1.5910  -28.9740 C.ar      1 ANP1001     0.0000 
     26 C6         -5.6290   -1.0890  -29.9230 C.ar      1 ANP1001     0.0000 
     27 N6         -5.5190   -1.3430  -31.2240 N.pl3     1 ANP1001     0.0000 
     28 N1         -6.6650   -0.3520  -29.5070 N.ar      1 ANP1001     0.0000 
     29 C2         -6.7860   -0.0980  -28.2040 C.ar      1 ANP1001     0.0000 
     30 N3         -5.9790   -0.5120  -27.2240 N.ar      1 ANP1001     0.0000 
     31 C4         -4.9470   -1.2640  -27.6520 C.ar      1 ANP1001     0.0000 
@<TRIPOS>BOND
     1    1    2 ar   
     2    1    3 ar   
     3    1    4 ar   
     4    1    8 1    
     5    5    6 ar   
     6    5    7 ar   
     7    5    8 1    
     8    5   12 1    
     9    9   10 ar   
    10    9   11 ar   
    11    9   12 1    
    12    9   13 1    
    13   13   14 1    
    14   14   15 1    
    15   15   16 1    
    16   15   17 1    
    17   16   21 1    
    18   17   18 1    
    19   17   19 1    
    20   19   20 1    
    21   19   21 1    
    22   21   22 1    
    23   22   23 1    
    24   22   31 1    
    25   23   24 2    
    26   24   25 1    
    27   25   26 ar   
    28   25   31 ar   
    29   26   27 1    
    30   26   28 ar   
    31   28   29 ar   
    32   29   30 ar   
    33   30   31 ar   
@<TRIPOS>SUBSTRUCTURE
     1 ANP1001     1 GROUP   
@<TRIPOS>SET
ATOM$ORANGE STATIC     ATOMS   COLORGROUP SYSTEM 
20 14 14 15 15 17 17 19 19 21 21 23 23 25 25 26 26 29 \
29 31 31 

