#    Name: 6gx7_2_GTP_CAVITY_N1_12
#    Modification time : Fri May 22 19:29:30 2020

@<TRIPOS>MOLECULE
6gx7_2_GTP_CAVITY_N1_12
   85     0     7     0     0
SMALL
NO_CHARGES


@<TRIPOS>ATOM
      1 OG         32.7000  -26.6500   91.1900 O.3       1 SER1        0.0000 
      2 OG         39.5700  -29.4900   89.3800 O.3       1 SER1        0.0000 
      3 OG         40.4500  -28.7700   90.3600 O.3       1 SER1        0.0000 
      4 OG         39.6100  -27.5400   90.2200 O.3       1 SER1        0.0000 
      5 OG         38.7300  -28.0000   91.3400 O.3       1 SER1        0.0000 
      6 OG         37.7800  -31.8500   95.0200 O.3       1 SER1        0.0000 
      7 OG         43.0100  -30.5300   91.6400 O.3       1 SER1        0.0000 
      8 OG         42.1700  -29.2900   91.4900 O.3       1 SER1        0.0000 
      9 OG         42.1300  -30.9900   92.7600 O.3       1 SER1        0.0000 
     10 OG         41.2900  -29.7500   92.6200 O.3       1 SER1        0.0000 
     11 OG         40.4200  -30.2200   93.7400 O.3       1 SER1        0.0000 
     12 OG         39.5400  -30.6800   94.8700 O.3       1 SER1        0.0000 
     13 OG         43.0500  -28.5800   92.4700 O.3       1 SER1        0.0000 
     14 OG         41.3000  -29.5000   94.7200 O.3       1 SER1        0.0000 
     15 O          34.4200  -27.4300   90.2100 O.2       2 ALA2        0.0000 
     16 O          34.3800  -29.1200   91.4900 O.2       2 ALA2        0.0000 
     17 O          33.5400  -27.8900   91.3400 O.2       2 ALA2        0.0000 
     18 O          32.6600  -28.3500   92.4700 O.2       2 ALA2        0.0000 
     19 O          31.8200  -27.1100   92.3200 O.2       2 ALA2        0.0000 
     20 O          36.1700  -26.2500   90.0700 O.2       2 ALA2        0.0000 
     21 N          37.8100  -30.4100   91.6400 N.am      2 ALA2        0.0000 
     22 O          36.1000  -29.6400   92.6100 O.2       2 ALA2        0.0000 
     23 O          35.2600  -28.4000   92.4700 O.2       2 ALA2        0.0000 
     24 O          34.3800  -28.8700   93.5900 O.2       2 ALA2        0.0000 
     25 O          33.5400  -27.6300   93.4500 O.2       2 ALA2        0.0000 
     26 O          33.5100  -29.3300   94.7200 O.2       2 ALA2        0.0000 
     27 O          43.0000  -30.7800   89.5300 O.2       2 ALA2        0.0000 
     28 N          38.7000  -29.7000   92.6200 N.am      2 ALA2        0.0000 
     29 N          38.6600  -31.3900   93.8900 N.am      2 ALA2        0.0000 
     30 N          37.8200  -30.1600   93.7400 N.am      2 ALA2        0.0000 
     31 O          36.9800  -28.9200   93.5900 O.2       2 ALA2        0.0000 
     32 O          36.1000  -29.3800   94.7200 O.2       2 ALA2        0.0000 
     33 O          35.2600  -28.1500   94.5700 O.2       2 ALA2        0.0000 
     34 O          43.8900  -30.0700   90.5100 O.2       2 ALA2        0.0000 
     35 O          40.4900  -26.8200   91.2000 O.2       2 ALA2        0.0000 
     36 N          40.4500  -28.5200   92.4700 N.am      2 ALA2        0.0000 
     37 N          39.6200  -27.2900   92.3200 N.am      2 ALA2        0.0000 
     38 N          39.5800  -28.9800   93.6000 N.am      2 ALA2        0.0000 
     39 N          38.7400  -27.7500   93.4500 N.am      2 ALA2        0.0000 
     40 N          37.8600  -28.2100   94.5700 N.am      2 ALA2        0.0000 
     41 N          44.8100  -27.6500   90.2200 N.am      2 ALA2        0.0000 
     42 N          42.2100  -27.3400   92.3200 N.am      2 ALA2        0.0000 
     43 O          41.3700  -26.1100   92.1800 O.2       2 ALA2        0.0000 
     44 N          41.3400  -27.8000   93.4500 N.am      2 ALA2        0.0000 
     45 N          40.4600  -28.2600   94.5800 N.am      2 ALA2        0.0000 
     46 O          43.9700  -26.1700   92.1800 O.2       2 ALA2        0.0000 
     47 O          43.0900  -26.6300   93.3000 O.2       2 ALA2        0.0000 
     48 OD1        35.3000  -26.7100   91.1900 O.co2     3 ASP3        0.0000 
     49 OD1        34.4200  -27.1700   92.3200 O.co2     3 ASP3        0.0000 
     50 OD1        33.5800  -25.9400   92.1700 O.co2     3 ASP3        0.0000 
     51 OD1        37.0200  -27.2300   92.3200 O.co2     3 ASP3        0.0000 
     52 OD1        36.1400  -27.6900   93.4500 O.co2     3 ASP3        0.0000 
     53 OD1        34.4300  -26.9200   94.4300 O.co2     3 ASP3        0.0000 
     54 OD1        33.5900  -25.6800   94.2800 O.co2     3 ASP3        0.0000 
     55 OD1        37.0200  -26.9700   94.4300 O.co2     3 ASP3        0.0000 
     56 NZ         41.2500  -31.9600   89.6800 N.4       4 LYS4        0.0000 
     57 NZ         40.4100  -30.7300   89.5300 N.4       4 LYS4        0.0000 
     58 NZ         39.5300  -31.1900   90.6600 N.4       4 LYS4        0.0000 
     59 NZ         42.1300  -31.2400   90.6600 N.4       4 LYS4        0.0000 
     60 NZ         41.2500  -31.7100   91.7900 N.4       4 LYS4        0.0000 
     61 NZ         40.4100  -30.4700   91.6400 N.4       4 LYS4        0.0000 
     62 NZ         39.5300  -30.9300   92.7600 N.4       4 LYS4        0.0000 
     63 NZ         32.7100  -26.1400   95.4000 N.4       4 LYS4        0.0000 
     64 CZ         43.9300  -28.1200   91.3400 C.ar      5 PHE5        0.0000 
     65 CA         42.1200  -31.5000   88.5500 C.3       6 GLY6        0.0000 
     66 CA         41.2800  -30.2600   88.4100 C.3       6 GLY6        0.0000 
     67 CA         38.6900  -29.9500   90.5100 C.3       6 GLY6        0.0000 
     68 CA         37.8500  -28.7200   90.3600 C.3       6 GLY6        0.0000 
     69 CA         37.0100  -27.4800   90.2100 C.3       6 GLY6        0.0000 
     70 CA         36.9800  -29.1800   91.4900 C.3       6 GLY6        0.0000 
     71 CA         36.1400  -27.9400   91.3400 C.3       6 GLY6        0.0000 
     72 CA         32.7100  -26.4000   93.3000 C.3       6 GLY6        0.0000 
     73 CA         32.6700  -28.0900   94.5700 C.3       6 GLY6        0.0000 
     74 CA         31.8300  -26.8600   94.4200 C.3       6 GLY6        0.0000 
     75 CA         42.1700  -29.5500   89.3900 C.3       6 GLY6        0.0000 
     76 CA         42.9700  -32.4800   90.8100 C.3       6 GLY6        0.0000 
     77 CA         37.9000  -26.7700   91.1900 C.3       6 GLY6        0.0000 
     78 CA         43.0500  -28.8300   90.3700 C.3       6 GLY6        0.0000 
     79 CA         41.3300  -28.0600   91.3400 C.3       6 GLY6        0.0000 
     80 CA         37.9000  -26.5100   93.3000 C.3       6 GLY6        0.0000 
     81 CA         43.0900  -26.8800   91.2000 C.3       6 GLY6        0.0000 
     82 DU         41.2900  -30.0100   90.5100 H         7 CUB7        0.0000 
     83 DU         39.5700  -29.2400   91.4900 H         7 CUB7        0.0000 
     84 DU         37.8600  -28.4600   92.4700 H         7 CUB7        0.0000 
     85 DU         38.7000  -29.4400   94.7200 H         7 CUB7        0.0000 
@<TRIPOS>BOND
@<TRIPOS>SUBSTRUCTURE
     1 SER1        1 GROUP   
     2 ALA2       15 GROUP   
     3 ASP3       48 GROUP   
     4 LYS4       56 GROUP   
     5 PHE5       64 GROUP   
     6 GLY6       65 GROUP   
     7 CUB7       82 GROUP   
@<TRIPOS>SET

