#    Name: 6gx7_4_GTP
#    Modification time : Fri May 22 19:29:52 2020

@<TRIPOS>MOLECULE
6gx7_4_GTP
   32    34     1     0     1
SMALL
NO_CHARGES


@<TRIPOS>ATOM
      1 PG        -20.6890   -1.4670   19.5900 P.3       1 GTP501      0.0000 
      2 O1G       -21.0940   -0.0090   19.6100 O.co2     1 GTP501      0.0000 
      3 O2G       -20.9660   -2.2030   20.9010 O.co2     1 GTP501      0.0000 
      4 O3G       -21.3050   -2.3130   18.4090 O.co2     1 GTP501      0.0000 
      5 O3B       -19.1120   -1.4880   19.3860 O.3       1 GTP501      0.0000 
      6 PB        -18.3540   -1.8280   18.0330 P.3       1 GTP501      0.0000 
      7 O1B       -18.7820   -3.1780   17.6420 O.co2     1 GTP501      0.0000 
      8 O2B       -16.8180   -1.6770   18.1650 O.co2     1 GTP501      0.0000 
      9 O3A       -18.8810   -0.8300   16.9140 O.3       1 GTP501      0.0000 
     10 PA        -18.4850   -0.7040   15.3790 P.3       1 GTP501      0.0000 
     11 O1A       -19.7350   -0.7180   14.5790 O.co2     1 GTP501      0.0000 
     12 O2A       -17.6510   -1.9500   15.0650 O.co2     1 GTP501      0.0000 
     13 O5'       -17.4510    0.5510   15.1750 O.3       1 GTP501      0.0000 
     14 C5'       -17.8270    1.7740   14.4920 C.3       1 GTP501      0.0000 
     15 C4'       -16.8670    1.9780   13.3480 C.3       1 GTP501      0.0000 
     16 O4'       -16.7120    0.7130   12.6780 O.3       1 GTP501      0.0000 
     17 C3'       -17.2820    2.9860   12.2700 C.3       1 GTP501      0.0000 
     18 O3'       -16.2040    3.8150   11.8300 O.3       1 GTP501      0.0000 
     19 C2'       -17.8340    2.0930   11.1550 C.3       1 GTP501      0.0000 
     20 O2'       -17.6640    2.7380    9.8950 O.3       1 GTP501      0.0000 
     21 C1'       -16.9140    0.8880   11.2960 C.3       1 GTP501      0.0000 
     22 N9        -17.3620   -0.3950   10.7210 N.pl3     1 GTP501      0.0000 
     23 C8        -18.3990   -1.1980   11.1140 C.2       1 GTP501      0.0000 
     24 N7        -18.4490   -2.3420   10.4710 N.2       1 GTP501      0.0000 
     25 C5        -17.3850   -2.2820    9.5870 C.2       1 GTP501      0.0000 
     26 C6        -16.9470   -3.1980    8.5530 C.2       1 GTP501      0.0000 
     27 O6        -17.4510   -4.2920    8.2580 O.2       1 GTP501      0.0000 
     28 N1        -15.8520   -2.7070    7.8560 N.am      1 GTP501      0.0000 
     29 C2        -15.2280   -1.5060    8.0990 C.2       1 GTP501      0.0000 
     30 N2        -14.1880   -1.1930    7.3280 N.pl3     1 GTP501      0.0000 
     31 N3        -15.6170   -0.6560    9.0440 N.2       1 GTP501      0.0000 
     32 C4        -16.7000   -1.0930    9.7360 C.2       1 GTP501      0.0000 
@<TRIPOS>BOND
     1    1    2 ar   
     2    1    3 ar   
     3    1    4 ar   
     4    1    5 1    
     5    5    6 1    
     6    6    7 ar   
     7    6    8 ar   
     8    6    9 1    
     9    9   10 1    
    10   10   11 ar   
    11   10   12 ar   
    12   10   13 1    
    13   13   14 1    
    14   14   15 1    
    15   15   16 1    
    16   15   17 1    
    17   16   21 1    
    18   17   18 1    
    19   17   19 1    
    20   19   20 1    
    21   19   21 1    
    22   21   22 1    
    23   22   23 1    
    24   22   32 1    
    25   23   24 2    
    26   24   25 1    
    27   25   26 1    
    28   25   32 2    
    29   26   27 2    
    30   26   28 am   
    31   28   29 1    
    32   29   30 1    
    33   29   31 2    
    34   31   32 1    
@<TRIPOS>SUBSTRUCTURE
     1 GTP501      1 GROUP   
@<TRIPOS>SET
ATOM$ORANGE STATIC     ATOMS   COLORGROUP SYSTEM 
20 14 14 15 15 17 17 19 19 21 21 23 23 25 25 26 26 29 \
29 32 32 

