#    Name: 6gx7_3_GTP_CAVITY_N1_8
#    Modification time : Fri May 22 19:29:46 2020

@<TRIPOS>MOLECULE
6gx7_3_GTP_CAVITY_N1_8
   42     0     4     0     0
SMALL
NO_CHARGES


@<TRIPOS>ATOM
      1 N          16.5000  -17.2900    2.4800 N.am      1 ALA2        0.0000 
      2 N          20.8900  -14.7300   -1.0400 N.am      1 ALA2        0.0000 
      3 N          19.2100  -12.2600   -1.3400 N.am      1 ALA2        0.0000 
      4 N          18.3700  -11.0300   -1.4800 N.am      1 ALA2        0.0000 
      5 O          20.0100  -15.1900    0.0900 O.2       1 ALA2        0.0000 
      6 N          17.4900  -11.4900   -0.3600 N.am      1 ALA2        0.0000 
      7 N          17.5300   -9.5400    0.4700 N.am      1 ALA2        0.0000 
      8 N          18.3300  -12.4700    1.9000 N.am      1 ALA2        0.0000 
      9 N          17.5000  -11.2300    1.7500 N.am      1 ALA2        0.0000 
     10 N          16.6600  -10.0000    1.6000 N.am      1 ALA2        0.0000 
     11 N          16.6200  -11.7000    2.8700 N.am      1 ALA2        0.0000 
     12 N          18.4500   -7.1300    0.1800 N.am      1 ALA2        0.0000 
     13 N          17.5800   -7.5900    1.3100 N.am      1 ALA2        0.0000 
     14 N          17.5400   -9.2800    2.5800 N.am      1 ALA2        0.0000 
     15 N          16.7000   -8.0500    2.4300 N.am      1 ALA2        0.0000 
     16 N          17.5000  -10.9800    3.8500 N.am      1 ALA2        0.0000 
     17 N          16.6600   -9.7500    3.7100 N.am      1 ALA2        0.0000 
     18 N          15.8200   -8.5100    3.5600 N.am      1 ALA2        0.0000 
     19 CZ         18.2500  -16.3700    0.2300 C.ar      2 PHE5        0.0000 
     20 CZ         18.2100  -18.0700    1.5100 C.ar      2 PHE5        0.0000 
     21 CZ         17.3700  -16.8300    1.3600 C.ar      2 PHE5        0.0000 
     22 CZ         17.3300  -18.5300    2.6300 C.ar      2 PHE5        0.0000 
     23 CZ         19.1300  -15.6600    1.2100 C.ar      2 PHE5        0.0000 
     24 CZ         18.2900  -14.4200    1.0600 C.ar      2 PHE5        0.0000 
     25 CZ         19.1700  -13.7000    2.0400 C.ar      2 PHE5        0.0000 
     26 CA         19.1300  -15.9100   -0.8900 C.3       3 GLY6        0.0000 
     27 CA         16.5300  -15.6000    1.2100 C.3       3 GLY6        0.0000 
     28 CA         20.0500  -13.5000   -1.1900 C.3       3 GLY6        0.0000 
     29 CA         17.4200  -14.8800    2.1900 C.3       3 GLY6        0.0000 
     30 CA         16.5800  -13.6500    2.0400 C.3       3 GLY6        0.0000 
     31 CA         15.7400  -12.4100    1.8900 C.3       3 GLY6        0.0000 
     32 CA         20.0500  -13.2400    0.9200 C.3       3 GLY6        0.0000 
     33 CA         19.2100  -12.0100    0.7700 C.3       3 GLY6        0.0000 
     34 CA         18.3700  -10.7700    0.6200 C.3       3 GLY6        0.0000 
     35 CA         17.4600  -12.9300    3.0200 C.3       3 GLY6        0.0000 
     36 CA         15.7800  -10.4600    2.7300 C.3       3 GLY6        0.0000 
     37 CA         15.7400  -12.1600    4.0000 C.3       3 GLY6        0.0000 
     38 CA         18.4200   -8.8200    1.4500 C.3       3 GLY6        0.0000 
     39 DU         19.1700  -13.9600   -0.0600 H         4 CUB7        0.0000 
     40 DU         18.3300  -12.7200   -0.2100 H         4 CUB7        0.0000 
     41 DU         17.4500  -13.1900    0.9200 H         4 CUB7        0.0000 
     42 DU         16.6100  -11.9500    0.7700 H         4 CUB7        0.0000 
@<TRIPOS>BOND
@<TRIPOS>SUBSTRUCTURE
     1 ALA2        1 GROUP   
     2 PHE5       19 GROUP   
     3 GLY6       26 GROUP   
     4 CUB7       39 GROUP   
@<TRIPOS>SET

