#    Name: 6gx7_1_GTP_CAVITY_N1_6
#    Modification time : Fri May 22 19:29:22 2020

@<TRIPOS>MOLECULE
6gx7_1_GTP_CAVITY_N1_6
   73     0     7     0     0
SMALL
NO_CHARGES


@<TRIPOS>ATOM
      1 OG         52.9300  -13.9300   52.2100 O.3       1 SER1        0.0000 
      2 OG         55.5200  -13.9900   52.2100 O.3       1 SER1        0.0000 
      3 OG         54.6500  -14.4500   53.3400 O.3       1 SER1        0.0000 
      4 OG         58.0800  -15.7400   53.4900 O.3       1 SER1        0.0000 
      5 OG         57.2100  -16.2000   54.6200 O.3       1 SER1        0.0000 
      6 OG         56.3700  -14.9700   54.4700 O.3       1 SER1        0.0000 
      7 OG         55.4900  -15.4300   55.5900 O.3       1 SER1        0.0000 
      8 OG         53.7700  -14.6500   56.5700 O.3       1 SER1        0.0000 
      9 OG         58.1300  -13.7900   54.3200 O.3       1 SER1        0.0000 
     10 OG         57.2500  -14.2500   55.4500 O.3       1 SER1        0.0000 
     11 OG         56.3700  -14.7100   56.5700 O.3       1 SER1        0.0000 
     12 O          50.3300  -13.8700   52.2100 O.2       2 ALA2        0.0000 
     13 O          49.4500  -14.3300   53.3400 O.2       2 ALA2        0.0000 
     14 O          48.5700  -14.7900   54.4600 O.2       2 ALA2        0.0000 
     15 N          58.0400  -17.9500   50.5500 N.am      2 ALA2        0.0000 
     16 O          54.6000  -16.4000   52.5100 O.2       2 ALA2        0.0000 
     17 O          51.2100  -13.1600   53.1900 O.2       2 ALA2        0.0000 
     18 O          50.2900  -15.3100   55.5900 O.2       2 ALA2        0.0000 
     19 O          58.9200  -17.2300   51.5300 O.2       2 ALA2        0.0000 
     20 N          54.6100  -16.1400   54.6100 N.am      2 ALA2        0.0000 
     21 N          53.7300  -16.6000   55.7400 N.am      2 ALA2        0.0000 
     22 N          52.8900  -15.3700   55.5900 N.am      2 ALA2        0.0000 
     23 O          52.0200  -15.8300   56.7200 O.2       2 ALA2        0.0000 
     24 O          58.9600  -15.2800   52.3600 O.2       2 ALA2        0.0000 
     25 O          58.9200  -16.9700   53.6400 O.2       2 ALA2        0.0000 
     26 O          55.5300  -13.7300   54.3200 O.2       2 ALA2        0.0000 
     27 N          60.7600  -12.4000   50.9400 N.am      2 ALA2        0.0000 
     28 O          60.7200  -14.1000   52.2200 O.2       2 ALA2        0.0000 
     29 O          57.2900  -12.5500   54.1700 O.2       2 ALA2        0.0000 
     30 O          56.4100  -13.0100   55.3000 O.2       2 ALA2        0.0000 
     31 O          55.5300  -13.4800   56.4300 O.2       2 ALA2        0.0000 
     32 O          54.6600  -13.9400   57.5500 O.2       2 ALA2        0.0000 
     33 OD1        50.3300  -13.6200   54.3200 O.co2     3 ASP3        0.0000 
     34 OD1        49.4900  -12.3800   54.1700 O.co2     3 ASP3        0.0000 
     35 OD1        49.4600  -14.0800   55.4400 O.co2     3 ASP3        0.0000 
     36 OD1        52.0900  -12.4400   54.1700 O.co2     3 ASP3        0.0000 
     37 OD1        52.0500  -14.1300   55.4500 O.co2     3 ASP3        0.0000 
     38 OD1        52.9300  -13.4200   56.4300 O.co2     3 ASP3        0.0000 
     39 OD1        52.0600  -13.8800   57.5500 O.co2     3 ASP3        0.0000 
     40 OD1        52.9400  -13.1600   58.5300 O.co2     3 ASP3        0.0000 
     41 NZ         57.1600  -18.4100   51.6800 N.4       4 LYS4        0.0000 
     42 NZ         55.4400  -17.6300   52.6600 N.4       4 LYS4        0.0000 
     43 NZ         58.0400  -17.6900   52.6600 N.4       4 LYS4        0.0000 
     44 NZ         56.3200  -16.9200   53.6400 N.4       4 LYS4        0.0000 
     45 CZ         59.8800  -12.8700   52.0700 C.ar      5 PHE5        0.0000 
     46 CZ         59.8400  -14.5600   53.3400 C.ar      5 PHE5        0.0000 
     47 CZ         59.0000  -13.3300   53.2000 C.ar      5 PHE5        0.0000 
     48 CZ         59.9200  -10.9200   52.9000 C.ar      5 PHE5        0.0000 
     49 CA         57.2000  -16.7100   50.4000 C.3       6 GLY6        0.0000 
     50 CA         56.3200  -17.1700   51.5300 C.3       6 GLY6        0.0000 
     51 CA         53.7300  -16.8600   53.6300 C.3       6 GLY6        0.0000 
     52 CA         52.0500  -14.3900   53.3400 C.3       6 GLY6        0.0000 
     53 CA         52.0100  -16.0900   54.6100 C.3       6 GLY6        0.0000 
     54 CA         51.1700  -14.8500   54.4700 C.3       6 GLY6        0.0000 
     55 CA         58.0800  -15.9900   51.3800 C.3       6 GLY6        0.0000 
     56 CA         57.2400  -14.7600   51.2400 C.3       6 GLY6        0.0000 
     57 CA         57.2000  -16.4600   52.5100 C.3       6 GLY6        0.0000 
     58 CA         56.3600  -15.2200   52.3600 C.3       6 GLY6        0.0000 
     59 CA         53.8100  -13.2100   53.1900 C.3       6 GLY6        0.0000 
     60 CA         53.7700  -14.9100   54.4700 C.3       6 GLY6        0.0000 
     61 CA         52.9300  -13.6700   54.3200 C.3       6 GLY6        0.0000 
     62 CA         51.1800  -14.6000   56.5700 C.3       6 GLY6        0.0000 
     63 CA         59.0000  -13.5800   51.0900 C.3       6 GLY6        0.0000 
     64 CA         58.1200  -14.0400   52.2200 C.3       6 GLY6        0.0000 
     65 CA         56.4000  -13.2700   53.1900 C.3       6 GLY6        0.0000 
     66 CA         54.6900  -12.5000   54.1700 C.3       6 GLY6        0.0000 
     67 CA         53.8100  -12.9600   55.3000 C.3       6 GLY6        0.0000 
     68 CA         59.9200  -11.1700   50.8000 C.3       6 GLY6        0.0000 
     69 CA         59.0400  -11.6300   51.9200 C.3       6 GLY6        0.0000 
     70 CA         58.1600  -12.0900   53.0500 C.3       6 GLY6        0.0000 
     71 DU         55.4900  -15.6800   53.4900 H         7 CUB7        0.0000 
     72 DU         57.2400  -14.5000   53.3400 H         7 CUB7        0.0000 
     73 DU         54.6500  -14.1900   55.4500 H         7 CUB7        0.0000 
@<TRIPOS>BOND
@<TRIPOS>SUBSTRUCTURE
     1 SER1        1 GROUP   
     2 ALA2       12 GROUP   
     3 ASP3       33 GROUP   
     4 LYS4       41 GROUP   
     5 PHE5       45 GROUP   
     6 GLY6       49 GROUP   
     7 CUB7       71 GROUP   
@<TRIPOS>SET

