#    Name: 6gx7_2_GTP
#    Modification time : Fri May 22 19:29:28 2020

@<TRIPOS>MOLECULE
6gx7_2_GTP
   32    34     1     0     1
SMALL
NO_CHARGES


@<TRIPOS>ATOM
      1 PG         33.7760  -27.1350   91.8840 P.3       1 GTP501      0.0000 
      2 O1G        32.3030  -27.2580   91.7260 O.co2     1 GTP501      0.0000 
      3 O2G        34.1890  -25.8370   92.6350 O.co2     1 GTP501      0.0000 
      4 O3G        34.4220  -28.3900   92.5690 O.co2     1 GTP501      0.0000 
      5 O3B        34.4710  -27.0110   90.4570 O.3       1 GTP501      0.0000 
      6 PB         35.9700  -26.5900   90.1360 P.3       1 GTP501      0.0000 
      7 O1B        36.2790  -25.4280   90.9920 O.co2     1 GTP501      0.0000 
      8 O2B        36.2000  -26.3500   88.6300 O.co2     1 GTP501      0.0000 
      9 O3A        36.9250  -27.7880   90.5590 O.3       1 GTP501      0.0000 
     10 PA         38.5010  -27.8430   90.7550 P.3       1 GTP501      0.0000 
     11 O1A        38.8370  -27.7750   92.1990 O.co2     1 GTP501      0.0000 
     12 O2A        39.0460  -26.6290   90.0170 O.co2     1 GTP501      0.0000 
     13 O5'        38.9410  -29.1710   89.9570 O.3       1 GTP501      0.0000 
     14 C5'        39.5620  -30.3050   90.5970 C.3       1 GTP501      0.0000 
     15 C4'        40.8840  -30.5280   89.9080 C.3       1 GTP501      0.0000 
     16 O4'        41.6070  -29.2810   89.8670 O.3       1 GTP501      0.0000 
     17 C3'        41.8230  -31.5370   90.5640 C.3       1 GTP501      0.0000 
     18 O3'        42.5020  -32.3260   89.5890 O.3       1 GTP501      0.0000 
     19 C2'        42.7690  -30.6490   91.3720 C.3       1 GTP501      0.0000 
     20 O2'        43.9950  -31.3530   91.5340 O.3       1 GTP501      0.0000 
     21 C1'        42.8870  -29.4470   90.4380 C.3       1 GTP501      0.0000 
     22 N9         43.2980  -28.1540   91.0370 N.pl3     1 GTP501      0.0000 
     23 C8         42.5870  -27.4000   91.9290 C.2       1 GTP501      0.0000 
     24 N7         43.1280  -26.2310   92.1710 N.2       1 GTP501      0.0000 
     25 C5         44.2760  -26.2140   91.3960 C.2       1 GTP501      0.0000 
     26 C6         45.3290  -25.2090   91.2560 C.2       1 GTP501      0.0000 
     27 O6         45.4530  -24.1430   91.8830 O.2       1 GTP501      0.0000 
     28 N1         46.3200  -25.6280   90.3850 N.am      1 GTP501      0.0000 
     29 C2         46.3730  -26.8530   89.7700 C.2       1 GTP501      0.0000 
     30 N2         47.5080  -27.1650   89.1350 N.pl3     1 GTP501      0.0000 
     31 N3         45.4140  -27.7710   89.8810 N.2       1 GTP501      0.0000 
     32 C4         44.4020  -27.3910   90.6990 C.2       1 GTP501      0.0000 
@<TRIPOS>BOND
     1    1    2 ar   
     2    1    3 ar   
     3    1    4 ar   
     4    1    5 1    
     5    5    6 1    
     6    6    7 ar   
     7    6    8 ar   
     8    6    9 1    
     9    9   10 1    
    10   10   11 ar   
    11   10   12 ar   
    12   10   13 1    
    13   13   14 1    
    14   14   15 1    
    15   15   16 1    
    16   15   17 1    
    17   16   21 1    
    18   17   18 1    
    19   17   19 1    
    20   19   20 1    
    21   19   21 1    
    22   21   22 1    
    23   22   23 1    
    24   22   32 1    
    25   23   24 2    
    26   24   25 1    
    27   25   26 1    
    28   25   32 2    
    29   26   27 2    
    30   26   28 am   
    31   28   29 1    
    32   29   30 1    
    33   29   31 2    
    34   31   32 1    
@<TRIPOS>SUBSTRUCTURE
     1 GTP501      1 GROUP   
@<TRIPOS>SET
ATOM$ORANGE STATIC     ATOMS   COLORGROUP SYSTEM 
20 14 14 15 15 17 17 19 19 21 21 23 23 25 25 26 26 29 \
29 32 32 

