#    Name: 6gx7_4_GTP_CAVITY_N1_6
#    Modification time : Fri May 22 19:29:54 2020

@<TRIPOS>MOLECULE
6gx7_4_GTP_CAVITY_N1_6
  103     0     7     0     0
SMALL
NO_CHARGES


@<TRIPOS>ATOM
      1 OG        -20.3600    0.6100   11.0800 O.3       1 SER1        0.0000 
      2 OG        -17.7300    2.2500    9.8100 O.3       1 SER1        0.0000 
      3 OG        -17.7600    0.5500   11.0800 O.3       1 SER1        0.0000 
      4 OG        -18.6000    1.7800   10.9300 O.3       1 SER1        0.0000 
      5 OG        -19.4800    1.3200   12.0600 O.3       1 SER1        0.0000 
      6 OG        -20.3200    2.5600   11.9100 O.3       1 SER1        0.0000 
      7 OG        -21.2000    2.1000   13.0400 O.3       1 SER1        0.0000 
      8 OG        -22.0300    3.3300   12.8900 O.3       1 SER1        0.0000 
      9 OG        -17.7600    0.8000   13.1900 O.3       1 SER1        0.0000 
     10 OG        -17.8000   -0.8900   14.4600 O.3       1 SER1        0.0000 
     11 OG        -18.6400    0.3400   14.3100 O.3       1 SER1        0.0000 
     12 OG        -16.8800    1.5200   14.1700 O.3       1 SER1        0.0000 
     13 OG        -17.7900   -0.6400   16.5700 O.3       1 SER1        0.0000 
     14 OG        -20.4200   -2.0200   19.9500 O.3       1 SER1        0.0000 
     15 O         -19.6100   -4.5300    9.5600 O.2       2 ALA2        0.0000 
     16 N         -16.1000   -2.4300    7.1600 N.am      2 ALA2        0.0000 
     17 N         -16.1300   -4.1300    8.4400 N.am      2 ALA2        0.0000 
     18 O         -18.7300   -3.8100   10.5400 O.2       2 ALA2        0.0000 
     19 O         -20.4000   -1.3400   10.2500 O.2       2 ALA2        0.0000 
     20 N         -14.3400   -1.2500    7.0200 N.am      2 ALA2        0.0000 
     21 N         -15.2100   -1.7100    8.1400 N.am      2 ALA2        0.0000 
     22 N         -16.0900   -2.1800    9.2700 N.am      2 ALA2        0.0000 
     23 O         -18.6800   -1.8600   11.3800 O.2       2 ALA2        0.0000 
     24 O         -19.5200   -0.6300   11.2300 O.2       2 ALA2        0.0000 
     25 O         -20.4000   -1.0900   12.3500 O.2       2 ALA2        0.0000 
     26 O         -21.2400    0.1500   12.2100 O.2       2 ALA2        0.0000 
     27 N         -22.1200   -0.3200   13.3300 N.am      2 ALA2        0.0000 
     28 N         -14.3300   -1.0000    9.1200 N.am      2 ALA2        0.0000 
     29 O         -15.1700    0.2400    8.9800 O.2       2 ALA2        0.0000 
     30 N         -16.0500   -0.2200   10.1000 N.am      2 ALA2        0.0000 
     31 O         -16.8900    1.0100    9.9600 O.2       2 ALA2        0.0000 
     32 O         -18.6800   -1.6100   13.4800 O.2       2 ALA2        0.0000 
     33 O         -19.5200   -0.3700   13.3300 O.2       2 ALA2        0.0000 
     34 N         -20.4000   -0.8300   14.4600 N.am      2 ALA2        0.0000 
     35 N         -21.2300    0.4000   14.3100 N.am      2 ALA2        0.0000 
     36 O         -22.0700    1.6400   14.1600 O.2       2 ALA2        0.0000 
     37 N         -21.2700   -1.3000   15.5900 N.am      2 ALA2        0.0000 
     38 N         -22.1100   -0.0600   15.4400 N.am      2 ALA2        0.0000 
     39 O         -22.9900   -0.5200   16.5600 O.2       2 ALA2        0.0000 
     40 N         -15.1700    0.4900   11.0800 N.am      2 ALA2        0.0000 
     41 O         -16.0100    1.7300   10.9300 O.2       2 ALA2        0.0000 
     42 O         -16.8400    2.9600   10.7900 O.2       2 ALA2        0.0000 
     43 O         -17.8400   -2.5900   15.7300 O.2       2 ALA2        0.0000 
     44 O         -20.3500    1.1200   15.2900 O.2       2 ALA2        0.0000 
     45 O         -21.1900    2.3500   15.1400 O.2       2 ALA2        0.0000 
     46 O         -20.3900   -0.5800   16.5700 O.2       2 ALA2        0.0000 
     47 O         -22.9800   -0.2700   18.6700 O.2       2 ALA2        0.0000 
     48 O         -23.8200    0.9700   18.5200 O.2       2 ALA2        0.0000 
     49 O         -23.0200   -1.9600   19.9400 O.2       2 ALA2        0.0000 
     50 O         -23.8600   -0.7300   19.8000 O.2       2 ALA2        0.0000 
     51 O         -15.1200    2.4400   11.9100 O.2       2 ALA2        0.0000 
     52 O         -17.7500    1.0600   15.2900 O.2       2 ALA2        0.0000 
     53 N         -19.4700    1.8300   16.2700 N.am      2 ALA2        0.0000 
     54 O         -20.3900   -0.3200   18.6700 O.2       2 ALA2        0.0000 
     55 O         -21.2600   -0.7900   19.8000 O.2       2 ALA2        0.0000 
     56 O         -22.1000    0.4500   19.6500 O.2       2 ALA2        0.0000 
     57 OD1       -23.9100   -2.9300   16.8600 O.co2     3 ASP3        0.0000 
     58 OD1       -22.1500   -1.7600   16.7100 O.co2     3 ASP3        0.0000 
     59 OD1       -23.0300   -2.2200   17.8400 O.co2     3 ASP3        0.0000 
     60 OD1       -19.5500   -1.8100   16.7100 O.co2     3 ASP3        0.0000 
     61 OD1       -21.2700   -1.0400   17.6900 O.co2     3 ASP3        0.0000 
     62 OD1       -22.1400   -1.5000   18.8200 O.co2     3 ASP3        0.0000 
     63 OD1       -22.1800   -3.2000   20.0900 O.co2     3 ASP3        0.0000 
     64 OD1       -19.5500   -1.5600   18.8200 O.co2     3 ASP3        0.0000 
     65 NZ        -24.7800   -3.3900   17.9800 N.4       4 LYS4        0.0000 
     66 NZ        -23.9000   -2.6800   18.9600 N.4       4 LYS4        0.0000 
     67 NZ        -24.7400   -1.4400   18.8200 N.4       4 LYS4        0.0000 
     68 NZ        -25.6200   -1.9100   19.9400 N.4       4 LYS4        0.0000 
     69 NZ        -17.7200    2.5000   11.9100 N.4       4 LYS4        0.0000 
     70 NZ        -18.6000    2.0400   13.0400 N.4       4 LYS4        0.0000 
     71 NZ        -19.4800    1.5800   14.1700 N.4       4 LYS4        0.0000 
     72 NZ        -20.3100    2.8100   14.0200 N.4       4 LYS4        0.0000 
     73 NZ        -15.9600    3.6800   11.7700 N.4       4 LYS4        0.0000 
     74 NZ        -16.8400    3.2200   12.8900 N.4       4 LYS4        0.0000 
     75 NZ        -17.7200    2.7600   14.0200 N.4       4 LYS4        0.0000 
     76 NZ        -18.5900    2.2900   15.1500 N.4       4 LYS4        0.0000 
     77 CZ        -16.9700   -2.8900    8.2900 C.ar      5 PHE5        0.0000 
     78 CZ        -17.8500   -3.3500    9.4200 C.ar      5 PHE5        0.0000 
     79 CZ        -18.6900   -2.1200    9.2700 C.ar      5 PHE5        0.0000 
     80 CZ        -21.2400   -0.1100   10.1000 C.ar      5 PHE5        0.0000 
     81 CZ        -16.0500   -0.4800    8.0000 C.ar      5 PHE5        0.0000 
     82 CZ        -16.9300   -0.9400    9.1200 C.ar      5 PHE5        0.0000 
     83 CZ        -17.8100   -1.4000   10.2500 C.ar      5 PHE5        0.0000 
     84 CZ        -18.6500   -0.1700   10.1000 C.ar      5 PHE5        0.0000 
     85 CA        -17.8900   -5.3000    8.5800 C.3       6 GLY6        0.0000 
     86 CA        -18.7300   -4.0700    8.4400 C.3       6 GLY6        0.0000 
     87 CA        -17.0100   -4.5900    9.5600 C.3       6 GLY6        0.0000 
     88 CA        -14.3700   -2.9500    8.2900 C.3       6 GLY6        0.0000 
     89 CA        -16.9700   -2.6400   10.4000 C.3       6 GLY6        0.0000 
     90 CA        -16.9300   -0.6900   11.2300 C.3       6 GLY6        0.0000 
     91 CA        -17.8000   -1.1500   12.3500 C.3       6 GLY6        0.0000 
     92 CA        -19.5600   -2.0700   14.6100 C.3       6 GLY6        0.0000 
     93 CA        -16.0400    0.0300   12.2100 C.3       6 GLY6        0.0000 
     94 CA        -16.8800    1.2700   12.0600 C.3       6 GLY6        0.0000 
     95 CA        -18.6700   -1.3500   15.5900 C.3       6 GLY6        0.0000 
     96 CA        -16.0000    1.9800   13.0400 C.3       6 GLY6        0.0000 
     97 CA        -18.6300    0.6000   16.4200 C.3       6 GLY6        0.0000 
     98 CA        -18.6700   -1.1000   17.6900 C.3       6 GLY6        0.0000 
     99 CA        -19.5100    0.1400   17.5500 C.3       6 GLY6        0.0000 
    100 DU        -18.6400    0.0900   12.2100 H         7 CUB7        0.0000 
    101 DU        -20.3600    0.8600   13.1900 H         7 CUB7        0.0000 
    102 DU        -23.8700   -0.9800   17.6900 H         7 CUB7        0.0000 
    103 DU        -19.5100   -0.1200   15.4400 H         7 CUB7        0.0000 
@<TRIPOS>BOND
@<TRIPOS>SUBSTRUCTURE
     1 SER1        1 GROUP   
     2 ALA2       15 GROUP   
     3 ASP3       57 GROUP   
     4 LYS4       65 GROUP   
     5 PHE5       77 GROUP   
     6 GLY6       85 GROUP   
     7 CUB7      100 GROUP   
@<TRIPOS>SET

