#    Name: 6gx7_3_GTP
#    Modification time : Fri May 22 19:29:44 2020

@<TRIPOS>MOLECULE
6gx7_3_GTP
   32    34     1     0     1
SMALL
NO_CHARGES


@<TRIPOS>ATOM
      1 PG         18.9410  -14.1210   15.0930 P.3       1 GTP501      0.0000 
      2 O1G        18.5710  -14.5920   16.4700 O.co2     1 GTP501      0.0000 
      3 O2G        18.1640  -14.8900   13.9900 O.co2     1 GTP501      0.0000 
      4 O3G        18.8200  -12.5970   14.8630 O.co2     1 GTP501      0.0000 
      5 O3B        20.4800  -14.4070   14.8100 O.3       1 GTP501      0.0000 
      6 PB         21.1190  -15.2200   13.6060 P.3       1 GTP501      0.0000 
      7 O1B        20.3660  -16.4890   13.4620 O.co2     1 GTP501      0.0000 
      8 O2B        22.6310  -15.3920   13.7860 O.co2     1 GTP501      0.0000 
      9 O3A        20.8890  -14.2920   12.3400 O.3       1 GTP501      0.0000 
     10 PA         21.5780  -14.2870   10.9090 P.3       1 GTP501      0.0000 
     11 O1A        20.5610  -14.7810    9.9500 O.co2     1 GTP501      0.0000 
     12 O2A        22.8250  -15.1760   10.9870 O.co2     1 GTP501      0.0000 
     13 O5'        22.0380  -12.7810   10.5850 O.3       1 GTP501      0.0000 
     14 C5'        21.5540  -12.0270    9.4500 C.3       1 GTP501      0.0000 
     15 C4'        22.7510  -11.8180    8.5570 C.3       1 GTP501      0.0000 
     16 O4'        23.3400  -13.0950    8.2220 O.3       1 GTP501      0.0000 
     17 C3'        22.5100  -11.0840    7.2420 C.3       1 GTP501      0.0000 
     18 O3'        23.5660  -10.1560    7.0090 O.3       1 GTP501      0.0000 
     19 C2'        22.4720  -12.2170    6.2120 C.3       1 GTP501      0.0000 
     20 O2'        22.8770  -11.6880    4.9510 O.3       1 GTP501      0.0000 
     21 C1'        23.4690  -13.2190    6.8190 C.3       1 GTP501      0.0000 
     22 N9         23.2910  -14.6620    6.4550 N.pl3     1 GTP501      0.0000 
     23 C8         22.2610  -15.4840    6.8380 C.2       1 GTP501      0.0000 
     24 N7         22.3960  -16.7250    6.4470 N.2       1 GTP501      0.0000 
     25 C5         23.5840  -16.7290    5.7420 C.2       1 GTP501      0.0000 
     26 C6         24.2010  -17.7550    4.9610 C.2       1 GTP501      0.0000 
     27 O6         23.7770  -18.8860    4.7650 O.2       1 GTP501      0.0000 
     28 N1         25.3280  -17.3130    4.3000 N.am      1 GTP501      0.0000 
     29 C2         25.8230  -16.0390    4.3500 C.2       1 GTP501      0.0000 
     30 N2         26.8960  -15.7820    3.5980 N.pl3     1 GTP501      0.0000 
     31 N3         25.2680  -15.0630    5.0760 N.2       1 GTP501      0.0000 
     32 C4         24.1530  -15.4690    5.7370 C.2       1 GTP501      0.0000 
@<TRIPOS>BOND
     1    1    2 ar   
     2    1    3 ar   
     3    1    4 ar   
     4    1    5 1    
     5    5    6 1    
     6    6    7 ar   
     7    6    8 ar   
     8    6    9 1    
     9    9   10 1    
    10   10   11 ar   
    11   10   12 ar   
    12   10   13 1    
    13   13   14 1    
    14   14   15 1    
    15   15   16 1    
    16   15   17 1    
    17   16   21 1    
    18   17   18 1    
    19   17   19 1    
    20   19   20 1    
    21   19   21 1    
    22   21   22 1    
    23   22   23 1    
    24   22   32 1    
    25   23   24 2    
    26   24   25 1    
    27   25   26 1    
    28   25   32 2    
    29   26   27 2    
    30   26   28 am   
    31   28   29 1    
    32   29   30 1    
    33   29   31 2    
    34   31   32 1    
@<TRIPOS>SUBSTRUCTURE
     1 GTP501      1 GROUP   
@<TRIPOS>SET
ATOM$ORANGE STATIC     ATOMS   COLORGROUP SYSTEM 
20 14 14 15 15 17 17 19 19 21 21 23 23 25 25 26 26 29 \
29 32 32 

