#    Name: 6gx7_1_GTP
#    Modification time : Fri May 22 19:29:20 2020

@<TRIPOS>MOLECULE
6gx7_1_GTP
   32    34     1     0     1
SMALL
NO_CHARGES


@<TRIPOS>ATOM
      1 PG         49.1150  -14.2440   55.1680 P.3       1 GTP501      0.0000 
      2 O1G        47.7280  -13.7850   54.9460 O.co2     1 GTP501      0.0000 
      3 O2G        49.9530  -13.3500   56.2440 O.co2     1 GTP501      0.0000 
      4 O3G        49.1940  -15.7380   55.4500 O.co2     1 GTP501      0.0000 
      5 O3B        49.8790  -14.1290   53.7800 O.3       1 GTP501      0.0000 
      6 PB         51.0910  -13.1650   53.4370 P.3       1 GTP501      0.0000 
      7 O1B        50.8620  -11.9000   54.1860 O.co2     1 GTP501      0.0000 
      8 O2B        51.1800  -13.0120   51.9180 O.co2     1 GTP501      0.0000 
      9 O3A        52.4080  -13.9110   53.9250 O.3       1 GTP501      0.0000 
     10 PA         53.8770  -14.0200   53.3240 P.3       1 GTP501      0.0000 
     11 O1A        54.7520  -13.3360   54.2890 O.co2     1 GTP501      0.0000 
     12 O2A        53.8950  -13.2880   51.9830 O.co2     1 GTP501      0.0000 
     13 O5'        54.3580  -15.5360   53.0350 O.3       1 GTP501      0.0000 
     14 C5'        55.3560  -16.2440   53.8080 C.3       1 GTP501      0.0000 
     15 C4'        56.4990  -16.5640   52.8730 C.3       1 GTP501      0.0000 
     16 O4'        57.0010  -15.3470   52.2710 O.3       1 GTP501      0.0000 
     17 C3'        57.7110  -17.2440   53.5010 C.3       1 GTP501      0.0000 
     18 O3'        58.3500  -18.0770   52.5370 O.3       1 GTP501      0.0000 
     19 C2'        58.5940  -16.0540   53.8730 C.3       1 GTP501      0.0000 
     20 O2'        59.9380  -16.4990   54.0430 O.3       1 GTP501      0.0000 
     21 C1'        58.3420  -15.1190   52.6740 C.3       1 GTP501      0.0000 
     22 N9         58.5370  -13.6470   52.9080 N.pl3     1 GTP501      0.0000 
     23 C8         57.8300  -12.8290   53.7530 C.2       1 GTP501      0.0000 
     24 N7         58.2480  -11.5870   53.7610 N.2       1 GTP501      0.0000 
     25 C5         59.3130  -11.5840   52.8800 C.2       1 GTP501      0.0000 
     26 C6         60.2870  -10.5770   52.5990 C.2       1 GTP501      0.0000 
     27 O6         60.3570   -9.4640   53.1110 O.2       1 GTP501      0.0000 
     28 N1         61.2890  -11.0260   51.7630 N.am      1 GTP501      0.0000 
     29 C2         61.3750  -12.2880   51.2530 C.2       1 GTP501      0.0000 
     30 N2         62.4520  -12.5740   50.5240 N.pl3     1 GTP501      0.0000 
     31 N3         60.4770  -13.2400   51.4960 N.2       1 GTP501      0.0000 
     32 C4         59.4930  -12.8350   52.3290 C.2       1 GTP501      0.0000 
@<TRIPOS>BOND
     1    1    2 ar   
     2    1    3 ar   
     3    1    4 ar   
     4    1    5 1    
     5    5    6 1    
     6    6    7 ar   
     7    6    8 ar   
     8    6    9 1    
     9    9   10 1    
    10   10   11 ar   
    11   10   12 ar   
    12   10   13 1    
    13   13   14 1    
    14   14   15 1    
    15   15   16 1    
    16   15   17 1    
    17   16   21 1    
    18   17   18 1    
    19   17   19 1    
    20   19   20 1    
    21   19   21 1    
    22   21   22 1    
    23   22   23 1    
    24   22   32 1    
    25   23   24 2    
    26   24   25 1    
    27   25   26 1    
    28   25   32 2    
    29   26   27 2    
    30   26   28 am   
    31   28   29 1    
    32   29   30 1    
    33   29   31 2    
    34   31   32 1    
@<TRIPOS>SUBSTRUCTURE
     1 GTP501      1 GROUP   
@<TRIPOS>SET
ATOM$ORANGE STATIC     ATOMS   COLORGROUP SYSTEM 
20 14 14 15 15 17 17 19 19 21 21 23 23 25 25 26 26 29 \
29 32 32 

