#    Name: 6emu_2_SAM
#    Modification time : Fri May 22 19:24:32 2020

@<TRIPOS>MOLECULE
6emu_2_SAM
   27    29     1     0     0
SMALL
NO_CHARGES


@<TRIPOS>ATOM
      1 N          21.7650  -25.9590   -2.9260 N.4       1 SAM301      0.0000 
      2 CA         21.9070  -27.3930   -3.1440 C.3       1 SAM301      0.0000 
      3 C          23.2910  -27.7140   -3.7000 C.2       1 SAM301      0.0000 
      4 O          23.6770  -28.8750   -3.8360 O.co2     1 SAM301      0.0000 
      5 OXT        24.0590  -26.8110   -4.0300 O.co2     1 SAM301      0.0000 
      6 CB         20.8260  -27.9020   -4.0900 C.3       1 SAM301      0.0000 
      7 CG         20.5270  -29.3860   -3.9300 C.3       1 SAM301      0.0000 
      8 SD         19.5550  -30.0590   -5.3010 S.3       1 SAM301      0.0000 
      9 CE         17.9020  -29.7920   -4.6090 C.3       1 SAM301      0.0000 
     10 C5'        19.7560  -31.8420   -5.0380 C.3       1 SAM301      0.0000 
     11 C4'        20.8340  -32.5220   -5.8820 C.3       1 SAM301      0.0000 
     12 O4'        20.4820  -32.5760   -7.2530 O.3       1 SAM301      0.0000 
     13 C3'        22.1790  -31.8160   -5.8030 C.3       1 SAM301      0.0000 
     14 O3'        22.9760  -32.3590   -4.7810 O.3       1 SAM301      0.0000 
     15 C2'        22.8030  -32.0490   -7.1580 C.3       1 SAM301      0.0000 
     16 O2'        23.6730  -33.1570   -7.0980 O.3       1 SAM301      0.0000 
     17 C1'        21.6320  -32.3920   -8.0570 C.3       1 SAM301      0.0000 
     18 N9         21.3960  -31.2760   -8.9870 N.pl3     1 SAM301      0.0000 
     19 C8         20.4320  -30.3100   -8.8570 C.2       1 SAM301      0.0000 
     20 N7         20.5350  -29.4580   -9.9000 N.2       1 SAM301      0.0000 
     21 C5         21.5550  -29.8620  -10.6870 C.ar      1 SAM301      0.0000 
     22 C6         22.0810  -29.3500  -11.8630 C.ar      1 SAM301      0.0000 
     23 N6         21.5560  -28.2580  -12.4110 N.pl3     1 SAM301      0.0000 
     24 N1         23.1520  -29.9810  -12.4540 N.ar      1 SAM301      0.0000 
     25 C2         23.6940  -31.1160  -11.8860 C.ar      1 SAM301      0.0000 
     26 N3         23.1630  -31.6180  -10.7160 N.ar      1 SAM301      0.0000 
     27 C4         22.1080  -31.0040  -10.1280 C.ar      1 SAM301      0.0000 
@<TRIPOS>BOND
     1    2    3 1    
     2    2    6 1    
     3    3    4 ar   
     4    3    5 ar   
     5    6    7 1    
     6    7    8 1    
     7    8    9 1    
     8    8   10 1    
     9   10   11 1    
    10   11   12 1    
    11   11   13 1    
    12   12   17 1    
    13   13   14 1    
    14   13   15 1    
    15   15   16 1    
    16   15   17 1    
    17   17   18 1    
    18   18   19 1    
    19   18   27 1    
    20   19   20 2    
    21   20   21 1    
    22   21   22 ar   
    23   21   27 ar   
    24   22   23 1    
    25   22   24 ar   
    26   24   25 ar   
    27   25   26 ar   
    28   26   27 ar   
    29    1    2 1    
@<TRIPOS>SUBSTRUCTURE
     1 SAM301      1 GROUP   
@<TRIPOS>SET

