#    Name: 6emu_3_SAM
#    Modification time : Fri May 22 19:24:35 2020

@<TRIPOS>MOLECULE
6emu_3_SAM
   27    29     1     0     0
SMALL
NO_CHARGES


@<TRIPOS>ATOM
      1 N          21.9070  -11.8150  -34.8220 N.4       1 SAM301      0.0000 
      2 CA         21.6980  -13.1480  -35.3720 C.3       1 SAM301      0.0000 
      3 C          23.0040  -13.8090  -35.8020 C.2       1 SAM301      0.0000 
      4 O          23.0220  -14.9820  -36.1740 O.co2     1 SAM301      0.0000 
      5 OXT        24.0680  -13.1880  -35.7820 O.co2     1 SAM301      0.0000 
      6 CB         20.7300  -13.0800  -36.5440 C.3       1 SAM301      0.0000 
      7 CG         19.4090  -12.3940  -36.2080 C.3       1 SAM301      0.0000 
      8 SD         18.3770  -12.1060  -37.6690 S.3       1 SAM301      0.0000 
      9 CE         17.5920  -10.5640  -37.1360 C.3       1 SAM301      0.0000 
     10 C5'        17.0090  -13.2700  -37.4230 C.3       1 SAM301      0.0000 
     11 C4'        17.0950  -14.5530  -38.2460 C.3       1 SAM301      0.0000 
     12 O4'        17.0360  -14.2980  -39.6380 O.3       1 SAM301      0.0000 
     13 C3'        18.3880  -15.3090  -37.9890 C.3       1 SAM301      0.0000 
     14 O3'        18.2100  -16.3090  -37.0150 O.3       1 SAM301      0.0000 
     15 C2'        18.7530  -15.9180  -39.3210 C.3       1 SAM301      0.0000 
     16 O2'        18.4020  -17.2810  -39.3330 O.3       1 SAM301      0.0000 
     17 C1'        17.9050  -15.1720  -40.3340 C.3       1 SAM301      0.0000 
     18 N9         18.7980  -14.3950  -41.2130 N.pl3     1 SAM301      0.0000 
     19 C8         19.0740  -13.0570  -41.1120 C.2       1 SAM301      0.0000 
     20 N7         19.9430  -12.7200  -42.0910 N.2       1 SAM301      0.0000 
     21 C5         20.2340  -13.8280  -42.8070 C.ar      1 SAM301      0.0000 
     22 C6         21.0600  -14.0390  -43.9010 C.ar      1 SAM301      0.0000 
     23 N6         21.7440  -13.0270  -44.4280 N.pl3     1 SAM301      0.0000 
     24 N1         21.1650  -15.3060  -44.4330 N.ar      1 SAM301      0.0000 
     25 C2         20.4520  -16.3520  -43.8840 C.ar      1 SAM301      0.0000 
     26 N3         19.6330  -16.1320  -42.7960 N.ar      1 SAM301      0.0000 
     27 C4         19.5220  -14.8890  -42.2670 C.ar      1 SAM301      0.0000 
@<TRIPOS>BOND
     1    1    2 1    
     2    2    3 1    
     3    2    6 1    
     4    3    4 ar   
     5    3    5 ar   
     6    6    7 1    
     7    7    8 1    
     8    8    9 1    
     9    8   10 1    
    10   10   11 1    
    11   11   12 1    
    12   11   13 1    
    13   12   17 1    
    14   13   14 1    
    15   13   15 1    
    16   15   16 1    
    17   15   17 1    
    18   17   18 1    
    19   18   19 1    
    20   18   27 1    
    21   19   20 2    
    22   20   21 1    
    23   21   22 ar   
    24   21   27 ar   
    25   22   23 1    
    26   22   24 ar   
    27   24   25 ar   
    28   25   26 ar   
    29   26   27 ar   
@<TRIPOS>SUBSTRUCTURE
     1 SAM301      1 GROUP   
@<TRIPOS>SET

