#    Name: 6emu_1_SAM
#    Modification time : Fri May 22 19:24:28 2020

@<TRIPOS>MOLECULE
6emu_1_SAM
   27    29     1     0     0
SMALL
NO_CHARGES


@<TRIPOS>ATOM
      1 N           3.3900  -15.9520  -10.6270 N.4       1 SAM501      0.0000 
      2 CA          2.0280  -16.4680  -10.5890 C.3       1 SAM501      0.0000 
      3 C           1.0320  -15.3350  -10.3660 C.2       1 SAM501      0.0000 
      4 O          -0.1810  -15.5410  -10.3420 O.co2     1 SAM501      0.0000 
      5 OXT         1.4210  -14.1800  -10.2000 O.co2     1 SAM501      0.0000 
      6 CB          1.8820  -17.5220   -9.4990 C.3       1 SAM501      0.0000 
      7 CG          0.7740  -18.5310   -9.7730 C.3       1 SAM501      0.0000 
      8 SD          0.5890  -19.7450   -8.4420 S.3       1 SAM501      0.0000 
      9 CE          1.5800  -21.0820   -9.1560 C.3       1 SAM501      0.0000 
     10 C5'        -1.0880  -20.3730   -8.7210 C.3       1 SAM501      0.0000 
     11 C4'        -2.1800  -19.7210   -7.8740 C.3       1 SAM501      0.0000 
     12 O4'        -1.9870  -19.9410   -6.4860 O.3       1 SAM501      0.0000 
     13 C3'        -2.2520  -18.2160   -8.0770 C.3       1 SAM501      0.0000 
     14 O3'        -3.2050  -17.8860   -9.0570 O.3       1 SAM501      0.0000 
     15 C2'        -2.6670  -17.6740   -6.7300 C.3       1 SAM501      0.0000 
     16 O2'        -4.0520  -17.4150   -6.7360 O.3       1 SAM501      0.0000 
     17 C1'        -2.3860  -18.7970   -5.7510 C.3       1 SAM501      0.0000 
     18 N9         -1.3030  -18.3900   -4.8390 N.pl3     1 SAM501      0.0000 
     19 C8          0.0110  -18.7590   -4.9440 C.2       1 SAM501      0.0000 
     20 N7          0.7030  -18.1860   -3.9350 N.2       1 SAM501      0.0000 
     21 C5         -0.1490  -17.4460   -3.1920 C.ar      1 SAM501      0.0000 
     22 C6          0.0360  -16.6620   -2.0590 C.ar      1 SAM501      0.0000 
     23 N6          1.2430  -16.5390   -1.5120 N.pl3     1 SAM501      0.0000 
     24 N1         -1.0430  -16.0070   -1.5050 N.ar      1 SAM501      0.0000 
     25 C2         -2.2950  -16.1320   -2.0720 C.ar      1 SAM501      0.0000 
     26 N3         -2.4690  -16.9140   -3.1970 N.ar      1 SAM501      0.0000 
     27 C4         -1.4170  -17.5660   -3.7470 C.ar      1 SAM501      0.0000 
@<TRIPOS>BOND
     1    1    2 1    
     2    2    3 1    
     3    2    6 1    
     4    3    4 ar   
     5    3    5 ar   
     6    6    7 1    
     7    7    8 1    
     8    8    9 1    
     9    8   10 1    
    10   10   11 1    
    11   11   12 1    
    12   11   13 1    
    13   12   17 1    
    14   13   14 1    
    15   13   15 1    
    16   15   16 1    
    17   15   17 1    
    18   17   18 1    
    19   18   19 1    
    20   18   27 1    
    21   19   20 2    
    22   20   21 1    
    23   21   22 ar   
    24   21   27 ar   
    25   22   23 1    
    26   22   24 ar   
    27   24   25 ar   
    28   25   26 ar   
    29   26   27 ar   
@<TRIPOS>SUBSTRUCTURE
     1 SAM501      1 GROUP   
@<TRIPOS>SET

