#    Name: 6irw_2_SAH
#    Modification time : Fri May 22 19:24:39 2020

@<TRIPOS>MOLECULE
6irw_2_SAH
   26    28     1     0     0
SMALL
NO_CHARGES


@<TRIPOS>ATOM
      1 N         -34.8270   -7.2480  -38.3690 N.4       1 SAH701      0.0000 
      2 CA        -34.2760   -8.4850  -37.8380 C.3       1 SAH701      0.0000 
      3 CB        -34.4650   -8.5340  -36.3270 C.3       1 SAH701      0.0000 
      4 CG        -35.9120   -8.5760  -35.8450 C.3       1 SAH701      0.0000 
      5 SD        -36.0030   -8.5440  -34.0350 S.3       1 SAH701      0.0000 
      6 C         -34.9200   -9.6960  -38.5040 C.2       1 SAH701      0.0000 
      7 O         -36.0170   -9.6070  -39.0530 O.co2     1 SAH701      0.0000 
      8 OXT       -34.3590  -10.7910  -38.5140 O.co2     1 SAH701      0.0000 
      9 C5'       -37.6560   -7.8100  -34.0680 C.3       1 SAH701      0.0000 
     10 C4'       -37.6330   -6.3010  -34.2680 C.3       1 SAH701      0.0000 
     11 O4'       -38.9510   -5.8390  -34.4670 O.3       1 SAH701      0.0000 
     12 C3'       -37.0910   -5.5380  -33.0670 C.3       1 SAH701      0.0000 
     13 O3'       -35.9130   -4.8550  -33.4330 O.3       1 SAH701      0.0000 
     14 C2'       -38.1630   -4.5230  -32.7240 C.3       1 SAH701      0.0000 
     15 O2'       -37.5970   -3.2530  -32.5040 O.3       1 SAH701      0.0000 
     16 C1'       -39.0390   -4.5240  -33.9650 C.3       1 SAH701      0.0000 
     17 N9        -40.4340   -4.1410  -33.6930 N.pl3     1 SAH701      0.0000 
     18 C8        -41.0620   -4.0540  -32.4800 C.2       1 SAH701      0.0000 
     19 N7        -42.3380   -3.6580  -32.6940 N.2       1 SAH701      0.0000 
     20 C5        -42.5320   -3.4920  -34.0230 C.ar      1 SAH701      0.0000 
     21 C6        -43.6320   -3.1060  -34.7800 C.ar      1 SAH701      0.0000 
     22 N6        -44.7880   -2.8130  -34.1950 N.pl3     1 SAH701      0.0000 
     23 N1        -43.5210   -3.0260  -36.1530 N.ar      1 SAH701      0.0000 
     24 C2        -42.3240   -3.3300  -36.7650 C.ar      1 SAH701      0.0000 
     25 N3        -41.2370   -3.7120  -36.0060 N.ar      1 SAH701      0.0000 
     26 C4        -41.3380   -3.7900  -34.6590 C.ar      1 SAH701      0.0000 
@<TRIPOS>BOND
     1    1    2 1    
     2    2    3 1    
     3    2    6 1    
     4    3    4 1    
     5    4    5 1    
     6    5    9 1    
     7    6    7 ar   
     8    6    8 ar   
     9    9   10 1    
    10   10   11 1    
    11   10   12 1    
    12   11   16 1    
    13   12   13 1    
    14   12   14 1    
    15   14   15 1    
    16   14   16 1    
    17   16   17 1    
    18   17   18 1    
    19   17   26 1    
    20   18   19 2    
    21   19   20 1    
    22   20   21 ar   
    23   20   26 ar   
    24   21   22 1    
    25   21   23 ar   
    26   23   24 ar   
    27   24   25 ar   
    28   25   26 ar   
@<TRIPOS>SUBSTRUCTURE
     1 SAH701      1 GROUP   
@<TRIPOS>SET

