#    Name: 6irw_2_SAH_CAVITY_N1_6
#    Modification time : Fri May 22 19:24:41 2020

@<TRIPOS>MOLECULE
6irw_2_SAH_CAVITY_N1_6
   91     0     5     0     0
SMALL
NO_CHARGES


@<TRIPOS>ATOM
      1 OG        -33.4900   -8.1000  -34.8300 O.3       1 SER1        0.0000 
      2 N         -37.1100   -8.3100  -35.4400 N.am      2 ALA2        0.0000 
      3 N         -36.4700   -9.6300  -35.1100 N.am      2 ALA2        0.0000 
      4 N         -35.8100   -7.8100  -35.9800 N.am      2 ALA2        0.0000 
      5 O         -35.1600   -9.1200  -35.6500 O.2       2 ALA2        0.0000 
      6 N         -38.0500   -8.3000  -33.5300 N.am      2 ALA2        0.0000 
      7 N         -37.4100   -9.6100  -33.2100 N.am      2 ALA2        0.0000 
      8 N         -38.0300   -5.1700  -34.7300 N.am      2 ALA2        0.0000 
      9 N         -37.3900   -6.4800  -34.4000 N.am      2 ALA2        0.0000 
     10 N         -36.7500   -7.8000  -34.0800 N.am      2 ALA2        0.0000 
     11 N         -36.1000   -9.1100  -33.7500 N.am      2 ALA2        0.0000 
     12 O         -36.0900   -5.9800  -34.9400 O.2       2 ALA2        0.0000 
     13 O         -35.4400   -7.2900  -34.6200 O.2       2 ALA2        0.0000 
     14 N         -34.8000   -8.6100  -34.2900 N.am      2 ALA2        0.0000 
     15 N         -37.6700   -4.6500  -33.3700 N.am      2 ALA2        0.0000 
     16 N         -35.7400   -8.5900  -32.3900 N.am      2 ALA2        0.0000 
     17 N         -36.3600   -4.1400  -33.9100 N.am      2 ALA2        0.0000 
     18 O         -35.7200   -5.4600  -33.5800 O.2       2 ALA2        0.0000 
     19 O         -35.0800   -6.7800  -33.2600 O.2       2 ALA2        0.0000 
     20 N         -34.4300   -8.0900  -32.9300 N.am      2 ALA2        0.0000 
     21 O         -33.1300   -7.5900  -33.4700 O.2       2 ALA2        0.0000 
     22 O         -37.3200   -7.2700  -30.8100 O.2       2 ALA2        0.0000 
     23 N         -36.0200   -6.7600  -31.3600 N.am      2 ALA2        0.0000 
     24 O         -36.0000   -3.6300  -32.5500 O.2       2 ALA2        0.0000 
     25 O         -35.3600   -4.9400  -32.2200 O.2       2 ALA2        0.0000 
     26 O         -34.7100   -6.2600  -31.9000 O.2       2 ALA2        0.0000 
     27 N         -32.7600   -7.0700  -32.1100 N.am      2 ALA2        0.0000 
     28 O         -37.6200   -8.5700  -28.5900 O.2       2 ALA2        0.0000 
     29 O         -36.9600   -6.7500  -29.4500 O.2       2 ALA2        0.0000 
     30 O         -36.3200   -8.0600  -29.1300 O.2       2 ALA2        0.0000 
     31 N         -35.0100   -7.5600  -29.6700 N.am      2 ALA2        0.0000 
     32 N         -33.7000   -7.0600  -30.2100 N.am      2 ALA2        0.0000 
     33 O         -33.6900   -3.9200  -31.4000 O.2       2 ALA2        0.0000 
     34 N         -33.0400   -5.2400  -31.0800 N.am      2 ALA2        0.0000 
     35 N         -32.4000   -6.5500  -30.7500 N.am      2 ALA2        0.0000 
     36 O         -32.3800   -3.4200  -31.9500 O.2       2 ALA2        0.0000 
     37 N         -31.7400   -4.7300  -31.6200 N.am      2 ALA2        0.0000 
     38 O         -35.9500   -7.5500  -27.7700 O.2       2 ALA2        0.0000 
     39 N         -34.6500   -7.0400  -28.3100 N.am      2 ALA2        0.0000 
     40 N         -33.3400   -6.5400  -28.8500 N.am      2 ALA2        0.0000 
     41 N         -32.6800   -4.7200  -29.7200 N.am      2 ALA2        0.0000 
     42 N         -32.0200   -2.9000  -30.5900 N.am      2 ALA2        0.0000 
     43 N         -35.5700   -3.9000  -27.6000 N.am      2 ALA2        0.0000 
     44 N         -34.2600   -3.3900  -28.1400 N.am      2 ALA2        0.0000 
     45 N         -32.9600   -2.8900  -28.6800 N.am      2 ALA2        0.0000 
     46 CZ        -37.5800   -2.3000  -30.9800 C.ar      3 PHE5        0.0000 
     47 CZ        -35.6300   -3.1100  -31.1900 C.ar      3 PHE5        0.0000 
     48 CZ        -34.3300   -2.6100  -31.7300 C.ar      3 PHE5        0.0000 
     49 CZ        -35.2700   -2.6000  -29.8300 C.ar      3 PHE5        0.0000 
     50 CZ        -33.3200   -3.4100  -30.0400 C.ar      3 PHE5        0.0000 
     51 CZ        -34.9100   -2.0800  -28.4700 C.ar      3 PHE5        0.0000 
     52 CZ        -33.6000   -1.5800  -29.0100 C.ar      3 PHE5        0.0000 
     53 CA        -39.3400   -5.6700  -34.1900 C.3       4 GLY6        0.0000 
     54 CA        -38.7000   -6.9800  -33.8600 C.3       4 GLY6        0.0000 
     55 CA        -38.9700   -5.1500  -32.8300 C.3       4 GLY6        0.0000 
     56 CA        -38.3300   -6.4700  -32.5000 C.3       4 GLY6        0.0000 
     57 CA        -37.6900   -7.7800  -32.1700 C.3       4 GLY6        0.0000 
     58 CA        -39.9100   -5.1400  -30.9300 C.3       4 GLY6        0.0000 
     59 CA        -39.2500   -3.3200  -31.8000 C.3       4 GLY6        0.0000 
     60 CA        -38.6100   -4.6400  -31.4700 C.3       4 GLY6        0.0000 
     61 CA        -37.9700   -5.9500  -31.1400 C.3       4 GLY6        0.0000 
     62 CA        -39.5700   -7.7600  -28.3700 C.3       4 GLY6        0.0000 
     63 CA        -39.5500   -4.6200  -29.5700 C.3       4 GLY6        0.0000 
     64 CA        -38.9100   -5.9400  -29.2400 C.3       4 GLY6        0.0000 
     65 CA        -38.2600   -7.2500  -28.9100 C.3       4 GLY6        0.0000 
     66 CA        -38.8900   -2.8000  -30.4300 C.3       4 GLY6        0.0000 
     67 CA        -38.2400   -4.1200  -30.1100 C.3       4 GLY6        0.0000 
     68 CA        -40.4900   -4.6100  -27.6700 C.3       4 GLY6        0.0000 
     69 CA        -39.8500   -5.9300  -27.3400 C.3       4 GLY6        0.0000 
     70 CA        -38.5400   -5.4200  -27.8800 C.3       4 GLY6        0.0000 
     71 CA        -37.8800   -3.6000  -28.7500 C.3       4 GLY6        0.0000 
     72 CA        -37.2200   -1.7800  -29.6200 C.3       4 GLY6        0.0000 
     73 CA        -36.5800   -3.1000  -29.2900 C.3       4 GLY6        0.0000 
     74 CA        -38.8200   -3.5900  -26.8500 C.3       4 GLY6        0.0000 
     75 CA        -36.8700   -4.4000  -27.0600 C.3       4 GLY6        0.0000 
     76 DU        -37.0300   -5.9600  -33.0400 H         5 CUB7        0.0000 
     77 DU        -36.3800   -7.2800  -32.7200 H         5 CUB7        0.0000 
     78 DU        -37.3000   -4.1300  -32.0100 H         5 CUB7        0.0000 
     79 DU        -36.6600   -5.4500  -31.6800 H         5 CUB7        0.0000 
     80 DU        -37.6000   -5.4300  -29.7800 H         5 CUB7        0.0000 
     81 DU        -36.9400   -3.6200  -30.6500 H         5 CUB7        0.0000 
     82 DU        -35.6500   -6.2500  -30.0000 H         5 CUB7        0.0000 
     83 DU        -34.9900   -4.4300  -30.8600 H         5 CUB7        0.0000 
     84 DU        -34.3500   -5.7400  -30.5400 H         5 CUB7        0.0000 
     85 DU        -37.9000   -6.7400  -27.5500 H         5 CUB7        0.0000 
     86 DU        -37.2400   -4.9200  -28.4200 H         5 CUB7        0.0000 
     87 DU        -36.5900   -6.2300  -28.0900 H         5 CUB7        0.0000 
     88 DU        -35.9300   -4.4100  -28.9600 H         5 CUB7        0.0000 
     89 DU        -35.2900   -5.7300  -28.6300 H         5 CUB7        0.0000 
     90 DU        -34.6300   -3.9100  -29.5000 H         5 CUB7        0.0000 
     91 DU        -33.9800   -5.2300  -29.1800 H         5 CUB7        0.0000 
@<TRIPOS>BOND
@<TRIPOS>SUBSTRUCTURE
     1 SER1        1 GROUP   
     2 ALA2        2 GROUP   
     3 PHE5       46 GROUP   
     4 GLY6       53 GROUP   
     5 CUB7       76 GROUP   
@<TRIPOS>SET

