#    Name: 6irw_1_SAH
#    Modification time : Fri May 22 19:24:31 2020

@<TRIPOS>MOLECULE
6irw_1_SAH
   26    28     1     0     0
SMALL
NO_CHARGES


@<TRIPOS>ATOM
      1 N         -35.2680   -7.2170   15.3210 N.4       1 SAH701      0.0000 
      2 CA        -35.8220   -8.4640   14.8140 C.3       1 SAH701      0.0000 
      3 CB        -35.6140   -8.5590   13.3070 C.3       1 SAH701      0.0000 
      4 CG        -34.1650   -8.5290   12.8260 C.3       1 SAH701      0.0000 
      5 SD        -34.0780   -8.3200   11.0290 S.3       1 SAH701      0.0000 
      6 C         -35.2020   -9.6630   15.5240 C.2       1 SAH701      0.0000 
      7 O         -35.6990  -10.7870   15.4290 O.co2     1 SAH701      0.0000 
      8 OXT       -34.1930   -9.5360   16.2180 O.co2     1 SAH701      0.0000 
      9 C5'       -32.4100   -7.6210   11.1320 C.3       1 SAH701      0.0000 
     10 C4'       -32.4110   -6.1110   11.3230 C.3       1 SAH701      0.0000 
     11 O4'       -31.0970   -5.6400   11.5430 O.3       1 SAH701      0.0000 
     12 C3'       -32.9300   -5.3520   10.1110 C.3       1 SAH701      0.0000 
     13 O3'       -34.1670   -4.7590   10.4260 O.3       1 SAH701      0.0000 
     14 C2'       -31.9010   -4.2680    9.8520 C.3       1 SAH701      0.0000 
     15 O2'       -32.5220   -3.0140    9.7030 O.3       1 SAH701      0.0000 
     16 C1'       -31.0350   -4.3010   11.1000 C.3       1 SAH701      0.0000 
     17 N9        -29.6530   -3.8650   10.8350 N.pl3     1 SAH701      0.0000 
     18 C8        -29.0470   -3.7140    9.6150 C.2       1 SAH701      0.0000 
     19 N7        -27.7790   -3.2860    9.8190 N.2       1 SAH701      0.0000 
     20 C5        -27.5690   -3.1610   11.1500 C.ar      1 SAH701      0.0000 
     21 C6        -26.4640   -2.7670   11.8980 C.ar      1 SAH701      0.0000 
     22 N6        -25.3300   -2.4190   11.2970 N.pl3     1 SAH701      0.0000 
     23 N1        -26.5470   -2.7380   13.2740 N.ar      1 SAH701      0.0000 
     24 C2        -27.7230   -3.0990   13.9000 C.ar      1 SAH701      0.0000 
     25 N3        -28.8160   -3.4900   13.1510 N.ar      1 SAH701      0.0000 
     26 C4        -28.7410   -3.5190   11.7990 C.ar      1 SAH701      0.0000 
@<TRIPOS>BOND
     1    1    2 1    
     2    2    3 1    
     3    2    6 1    
     4    3    4 1    
     5    4    5 1    
     6    5    9 1    
     7    6    7 ar   
     8    6    8 ar   
     9    9   10 1    
    10   10   11 1    
    11   10   12 1    
    12   11   16 1    
    13   12   13 1    
    14   12   14 1    
    15   14   15 1    
    16   14   16 1    
    17   16   17 1    
    18   17   18 1    
    19   17   26 1    
    20   18   19 2    
    21   19   20 1    
    22   20   21 ar   
    23   20   26 ar   
    24   21   22 1    
    25   21   23 ar   
    26   23   24 ar   
    27   24   25 ar   
    28   25   26 ar   
@<TRIPOS>SUBSTRUCTURE
     1 SAH701      1 GROUP   
@<TRIPOS>SET

