#    Name: 6e07_6_NAP_CAVITY_N1_6
#    Modification time : Fri May 22 19:27:08 2020

@<TRIPOS>MOLECULE
6e07_6_NAP_CAVITY_N1_6
   74     0     6     0     0
SMALL
NO_CHARGES


@<TRIPOS>ATOM
      1 OG         27.4800  -40.3400   -6.1000 O.3       1 SER1        0.0000 
      2 OG         29.0500  -40.2700   -4.6800 O.3       1 SER1        0.0000 
      3 OG         28.1000  -39.2700   -5.2500 O.3       1 SER1        0.0000 
      4 OG         30.6500  -38.9000   -4.9200 O.3       1 SER1        0.0000 
      5 OD1        24.5700  -39.9400   -4.4800 O.co2     2 ASP3        0.0000 
      6 OD1        25.5500  -39.6400   -5.5800 O.co2     2 ASP3        0.0000 
      7 OD1        27.1200  -39.5700   -4.1500 O.co2     2 ASP3        0.0000 
      8 OD1        25.1900  -38.8700   -3.6300 O.co2     2 ASP3        0.0000 
      9 OD1        26.1700  -38.5700   -4.7300 O.co2     2 ASP3        0.0000 
     10 OD1        23.2600  -38.1700   -3.1100 O.co2     2 ASP3        0.0000 
     11 OD1        24.2300  -37.8700   -4.2100 O.co2     2 ASP3        0.0000 
     12 OD1        27.7400  -38.5000   -3.3100 O.co2     2 ASP3        0.0000 
     13 OD1        28.7200  -38.2000   -4.4000 O.co2     2 ASP3        0.0000 
     14 OD1        25.8100  -37.8000   -2.7800 O.co2     2 ASP3        0.0000 
     15 OD1        24.8500  -36.7900   -3.3600 O.co2     2 ASP3        0.0000 
     16 OD1        23.9000  -35.7900   -3.9300 O.co2     2 ASP3        0.0000 
     17 OD1        29.3100  -38.4300   -1.8800 O.co2     2 ASP3        0.0000 
     18 OD1        28.3600  -37.4300   -2.4600 O.co2     2 ASP3        0.0000 
     19 OD1        26.4200  -36.7300   -1.9400 O.co2     2 ASP3        0.0000 
     20 OD1        27.4000  -36.4200   -3.0300 O.co2     2 ASP3        0.0000 
     21 OD1        25.4700  -35.7200   -2.5100 O.co2     2 ASP3        0.0000 
     22 OD1        24.5200  -34.7200   -3.0800 O.co2     2 ASP3        0.0000 
     23 OD1        28.9500  -37.6600    0.0600 O.co2     2 ASP3        0.0000 
     24 OD1        29.9300  -37.3600   -1.0400 O.co2     2 ASP3        0.0000 
     25 OD1        27.0200  -36.9600    0.5800 O.co2     2 ASP3        0.0000 
     26 OD1        28.0000  -36.6600   -0.5100 O.co2     2 ASP3        0.0000 
     27 OD1        25.0900  -36.2600    1.1000 O.co2     2 ASP3        0.0000 
     28 OD1        26.0600  -35.9600    0.0100 O.co2     2 ASP3        0.0000 
     29 OD1        27.0400  -35.6500   -1.0900 O.co2     2 ASP3        0.0000 
     30 OD1        28.0200  -35.3500   -2.1800 O.co2     2 ASP3        0.0000 
     31 OD1        24.1300  -35.2600    0.5300 O.co2     2 ASP3        0.0000 
     32 OD1        26.0900  -34.6500   -1.6600 O.co2     2 ASP3        0.0000 
     33 OD1        25.1300  -33.6500   -2.2400 O.co2     2 ASP3        0.0000 
     34 OD1        26.1100  -33.3400   -3.3300 O.co2     2 ASP3        0.0000 
     35 OD1        28.5900  -36.9000    2.0000 O.co2     2 ASP3        0.0000 
     36 OD1        29.5700  -36.5900    0.9100 O.co2     2 ASP3        0.0000 
     37 OD1        27.6400  -35.8900    1.4300 O.co2     2 ASP3        0.0000 
     38 OD1        28.6200  -35.5900    0.3300 O.co2     2 ASP3        0.0000 
     39 OD1        26.6800  -34.8900    0.8600 O.co2     2 ASP3        0.0000 
     40 OD1        27.6600  -34.5800   -0.2400 O.co2     2 ASP3        0.0000 
     41 OD1        25.7300  -33.8800    0.2800 O.co2     2 ASP3        0.0000 
     42 OD1        25.7500  -32.5700   -1.3900 O.co2     2 ASP3        0.0000 
     43 NZ         27.0700  -34.3500   -2.7600 N.4       3 LYS4        0.0000 
     44 CZ         26.4800  -41.9500   -3.3300 C.ar      4 PHE5        0.0000 
     45 CZ         27.4600  -41.6500   -4.4300 C.ar      4 PHE5        0.0000 
     46 CZ         25.5200  -40.9500   -3.9100 C.ar      4 PHE5        0.0000 
     47 CZ         26.5000  -40.6400   -5.0000 C.ar      4 PHE5        0.0000 
     48 CZ         24.2100  -39.1700   -2.5400 C.ar      4 PHE5        0.0000 
     49 CZ         25.7800  -39.1100   -1.1100 C.ar      4 PHE5        0.0000 
     50 CZ         24.8300  -38.1000   -1.6900 C.ar      4 PHE5        0.0000 
     51 CZ         23.8700  -37.1000   -2.2600 C.ar      4 PHE5        0.0000 
     52 CZ         22.9200  -36.0900   -2.8400 C.ar      4 PHE5        0.0000 
     53 CZ         25.4200  -38.3400    0.8300 C.ar      4 PHE5        0.0000 
     54 CZ         24.4700  -37.3300    0.2600 C.ar      4 PHE5        0.0000 
     55 CZ         23.5100  -36.3300   -0.3200 C.ar      4 PHE5        0.0000 
     56 CZ         23.5400  -35.0200   -1.9900 C.ar      4 PHE5        0.0000 
     57 CZ         22.2000  -34.5500    1.0500 C.ar      4 PHE5        0.0000 
     58 CZ         23.1800  -34.2500   -0.0400 C.ar      4 PHE5        0.0000 
     59 CZ         24.1600  -33.9500   -1.1400 C.ar      4 PHE5        0.0000 
     60 CZ         23.2000  -32.9400   -1.7100 C.ar      4 PHE5        0.0000 
     61 CA         23.5600  -33.7100   -3.6600 C.3       5 GLY6        0.0000 
     62 CA         24.1800  -32.6400   -2.8100 C.3       5 GLY6        0.0000 
     63 CA         24.7700  -32.8800   -0.2900 C.3       5 GLY6        0.0000 
     64 DU         28.0700  -40.5800   -3.5800 H         6 CUB7        0.0000 
     65 DU         26.1400  -39.8700   -3.0600 H         6 CUB7        0.0000 
     66 DU         28.6900  -39.5100   -2.7300 H         6 CUB7        0.0000 
     67 DU         29.6700  -39.2000   -3.8300 H         6 CUB7        0.0000 
     68 DU         26.7600  -38.8000   -2.2100 H         6 CUB7        0.0000 
     69 DU         28.3300  -38.7400   -0.7900 H         6 CUB7        0.0000 
     70 DU         26.4000  -38.0300   -0.2700 H         6 CUB7        0.0000 
     71 DU         27.3800  -37.7300   -1.3600 H         6 CUB7        0.0000 
     72 DU         25.4500  -37.0300   -0.8400 H         6 CUB7        0.0000 
     73 DU         24.4900  -36.0200   -1.4100 H         6 CUB7        0.0000 
     74 DU         25.1100  -34.9500   -0.5700 H         6 CUB7        0.0000 
@<TRIPOS>BOND
@<TRIPOS>SUBSTRUCTURE
     1 SER1        1 GROUP   
     2 ASP3        5 GROUP   
     3 LYS4       43 GROUP   
     4 PHE5       44 GROUP   
     5 GLY6       61 GROUP   
     6 CUB7       64 GROUP   
@<TRIPOS>SET

