#    Name: 6e07_2_NAP
#    Modification time : Fri May 22 19:26:23 2020

@<TRIPOS>MOLECULE
6e07_2_NAP
   48    52     1     0     1
SMALL
NO_CHARGES


@<TRIPOS>ATOM
      1 PA         20.7950   42.0150   38.9370 P.3       1 NAP601      0.0000 
      2 O1A        20.9470   40.5990   39.4900 O.co2     1 NAP601      0.0000 
      3 O2A        21.9130   43.0180   39.0430 O.co2     1 NAP601      0.0000 
      4 O5B        19.4610   42.7040   39.6100 O.3       1 NAP601      0.0000 
      5 C5B        18.2850   41.9050   39.6910 C.3       1 NAP601      0.0000 
      6 C4B        17.2960   42.2840   40.7760 C.3       1 NAP601      0.0000 
      7 O4B        17.9060   42.1380   42.0540 O.3       1 NAP601      0.0000 
      8 C3B        16.8050   43.7300   40.6790 C.3       1 NAP601      0.0000 
      9 O3B        15.3890   43.7810   40.9400 O.3       1 NAP601      0.0000 
     10 C2B        17.5680   44.4580   41.7750 C.3       1 NAP601      0.0000 
     11 O2B        16.9150   45.5480   42.4010 O.3       1 NAP601      0.0000 
     12 C1B        17.5970   43.3480   42.7960 C.3       1 NAP601      0.0000 
     13 N9A        18.5420   43.6020   43.9080 N.pl3     1 NAP601      0.0000 
     14 C8A        19.6910   44.3190   43.8980 C.2       1 NAP601      0.0000 
     15 N7A        20.2590   44.2590   45.1200 N.2       1 NAP601      0.0000 
     16 C5A        19.4580   43.5030   45.9020 C.ar      1 NAP601      0.0000 
     17 C6A        19.4540   43.0180   47.2950 C.ar      1 NAP601      0.0000 
     18 N6A        20.4730   43.3940   48.0750 N.pl3     1 NAP601      0.0000 
     19 N1A        18.4520   42.2220   47.7560 N.ar      1 NAP601      0.0000 
     20 C2A        17.4300   41.8670   46.9450 C.ar      1 NAP601      0.0000 
     21 N3A        17.3730   42.2810   45.6580 N.ar      1 NAP601      0.0000 
     22 C4A        18.3330   43.0710   45.1030 C.ar      1 NAP601      0.0000 
     23 O3         20.5810   41.8190   37.3270 O.3       1 NAP601      0.0000 
     24 PN         19.8300   42.9120   36.4160 P.3       1 NAP601      0.0000 
     25 O1N        19.4390   44.0470   37.3470 O.co2     1 NAP601      0.0000 
     26 O2N        18.7600   42.2370   35.6250 O.co2     1 NAP601      0.0000 
     27 O5D        21.0190   43.3740   35.4550 O.3       1 NAP601      0.0000 
     28 C5D        22.2100   43.9330   35.9870 C.3       1 NAP601      0.0000 
     29 C4D        22.5670   45.2250   35.2690 C.3       1 NAP601      0.0000 
     30 O4D        22.9060   44.9700   33.9030 O.3       1 NAP601      0.0000 
     31 C3D        21.4040   46.2040   35.2440 C.3       1 NAP601      0.0000 
     32 O3D        21.9220   47.5140   35.3880 O.3       1 NAP601      0.0000 
     33 C2D        20.8020   46.0820   33.8660 C.3       1 NAP601      0.0000 
     34 O2D        20.1180   47.2840   33.4510 O.3       1 NAP601      0.0000 
     35 C1D        22.0180   45.6790   33.0310 C.3       1 NAP601      0.0000 
     36 N1N        21.6290   44.8260   31.9030 N.pl3     1 NAP601      0.0000 
     37 C2N        21.1710   45.4580   30.8100 C.ar      1 NAP601      0.0000 
     38 C3N        20.7740   44.7400   29.6810 C.ar      1 NAP601      0.0000 
     39 C7N        20.2650   45.5410   28.5320 C.2       1 NAP601      0.0000 
     40 O7N        20.2460   46.7370   28.6290 O.2       1 NAP601      0.0000 
     41 N7N        19.8200   44.9960   27.4280 N.am      1 NAP601      0.0000 
     42 C4N        20.8550   43.3420   29.6820 C.ar      1 NAP601      0.0000 
     43 C5N        21.3360   42.7010   30.8190 C.ar      1 NAP601      0.0000 
     44 C6N        21.7180   43.4680   31.9300 C.ar      1 NAP601      0.0000 
     45 P2B        16.6790   46.9640   41.6840 P.3       1 NAP601      0.0000 
     46 O1X        15.7160   46.6720   40.5730 O.co2     1 NAP601      0.0000 
     47 O2X        18.0510   47.3140   41.1910 O.co2     1 NAP601      0.0000 
     48 O3X        16.0400   47.7920   42.7900 O.co2     1 NAP601      0.0000 
@<TRIPOS>BOND
     1    1    2 ar   
     2    1    3 ar   
     3    1    4 1    
     4    1   23 1    
     5    4    5 1    
     6    5    6 1    
     7    6    7 1    
     8    6    8 1    
     9    7   12 1    
    10    8    9 1    
    11    8   10 1    
    12   10   11 1    
    13   10   12 1    
    14   11   45 1    
    15   12   13 1    
    16   13   14 1    
    17   13   22 1    
    18   14   15 2    
    19   15   16 1    
    20   16   17 ar   
    21   16   22 ar   
    22   17   18 1    
    23   17   19 ar   
    24   19   20 ar   
    25   20   21 ar   
    26   21   22 ar   
    27   23   24 1    
    28   24   25 ar   
    29   24   26 ar   
    30   24   27 1    
    31   27   28 1    
    32   28   29 1    
    33   29   30 1    
    34   29   31 1    
    35   30   35 1    
    36   31   32 1    
    37   31   33 1    
    38   33   34 1    
    39   33   35 1    
    40   35   36 1    
    41   36   37 ar   
    42   36   44 ar   
    43   37   38 ar   
    44   38   39 1    
    45   38   42 ar   
    46   39   40 2    
    47   39   41 am   
    48   42   43 ar   
    49   43   44 ar   
    50   45   46 ar   
    51   45   47 ar   
    52   45   48 ar   
@<TRIPOS>SUBSTRUCTURE
     1 NAP601      1 GROUP   
@<TRIPOS>SET
ATOM$ORANGE STATIC     ATOMS   COLORGROUP SYSTEM 
42 5 5 6 6 8 8 10 10 12 12 14 14 16 16 17 17 20 \
20 22 22 28 28 29 29 31 31 33 33 35 35 37 37 38 38 39 \
39 42 42 43 43 44 44 

