#    Name: 6e07_8_NAP
#    Modification time : Fri May 22 19:27:30 2020

@<TRIPOS>MOLECULE
6e07_8_NAP
   48    52     1     0     1
SMALL
NO_CHARGES


@<TRIPOS>ATOM
      1 PA        -13.6600  -12.8390  -14.7930 P.3       1 NAP601      0.0000 
      2 O1A       -12.2300  -12.6320  -14.2780 O.co2     1 NAP601      0.0000 
      3 O2A       -14.7640  -11.8420  -14.5780 O.co2     1 NAP601      0.0000 
      4 O5B       -14.2490  -14.2230  -14.2190 O.3       1 NAP601      0.0000 
      5 C5B       -13.3890  -15.3570  -14.0730 C.3       1 NAP601      0.0000 
      6 C4B       -13.9700  -16.4660  -13.1960 C.3       1 NAP601      0.0000 
      7 O4B       -13.8200  -16.1020  -11.8200 O.3       1 NAP601      0.0000 
      8 C3B       -15.4430  -16.7360  -13.4270 C.3       1 NAP601      0.0000 
      9 O3B       -15.6640  -18.1320  -13.5440 O.3       1 NAP601      0.0000 
     10 C2B       -16.1090  -16.2230  -12.1750 C.3       1 NAP601      0.0000 
     11 O2B       -17.2300  -16.9740  -11.7580 O.3       1 NAP601      0.0000 
     12 C1B       -15.0350  -16.3480  -11.1310 C.3       1 NAP601      0.0000 
     13 N9A       -15.2300  -15.4020  -10.0060 N.pl3     1 NAP601      0.0000 
     14 C8A       -15.9650  -14.2620   -9.9440 C.2       1 NAP601      0.0000 
     15 N7A       -15.8700  -13.7250   -8.6950 N.2       1 NAP601      0.0000 
     16 C5A       -15.0720  -14.5180   -7.9640 C.ar      1 NAP601      0.0000 
     17 C6A       -14.5530  -14.5360   -6.5910 C.ar      1 NAP601      0.0000 
     18 N6A       -14.8870  -13.5480   -5.7390 N.pl3     1 NAP601      0.0000 
     19 N1A       -13.7330  -15.5510   -6.2190 N.ar      1 NAP601      0.0000 
     20 C2A       -13.3900  -16.5460   -7.0700 C.ar      1 NAP601      0.0000 
     21 N3A       -13.8330  -16.5850   -8.3410 N.ar      1 NAP601      0.0000 
     22 C4A       -14.6500  -15.6160   -8.8280 C.ar      1 NAP601      0.0000 
     23 O3        -13.5230  -12.9920  -16.3940 O.3       1 NAP601      0.0000 
     24 PN        -14.7020  -13.5230  -17.3360 P.3       1 NAP601      0.0000 
     25 O1N       -15.8300  -13.8960  -16.4140 O.co2     1 NAP601      0.0000 
     26 O2N       -14.0450  -14.4910  -18.2750 O.co2     1 NAP601      0.0000 
     27 O5D       -15.1310  -12.2880  -18.2470 O.3       1 NAP601      0.0000 
     28 C5D       -15.5070  -11.0590  -17.6500 C.3       1 NAP601      0.0000 
     29 C4D       -16.7980  -10.6220  -18.3080 C.3       1 NAP601      0.0000 
     30 O4D       -16.5530  -10.1310  -19.6410 O.3       1 NAP601      0.0000 
     31 C3D       -17.7500  -11.7940  -18.4250 C.3       1 NAP601      0.0000 
     32 O3D       -19.0580  -11.3560  -18.1100 O.3       1 NAP601      0.0000 
     33 C2D       -17.6640  -12.1840  -19.8820 C.3       1 NAP601      0.0000 
     34 O2D       -18.8810  -12.7720  -20.3570 O.3       1 NAP601      0.0000 
     35 C1D       -17.2890  -10.8900  -20.5990 C.3       1 NAP601      0.0000 
     36 N1N       -16.4930  -11.2210  -21.7840 N.pl3     1 NAP601      0.0000 
     37 C2N       -17.1720  -11.5850  -22.8810 C.ar      1 NAP601      0.0000 
     38 C3N       -16.4950  -11.9460  -24.0420 C.ar      1 NAP601      0.0000 
     39 C7N       -17.3280  -12.3060  -25.2240 C.2       1 NAP601      0.0000 
     40 O7N       -18.5260  -12.1690  -25.1280 O.2       1 NAP601      0.0000 
     41 N7N       -16.7920  -12.7320  -26.3610 N.am      1 NAP601      0.0000 
     42 C4N       -15.0950  -11.9420  -24.0700 C.ar      1 NAP601      0.0000 
     43 C5N       -14.4030  -11.5820  -22.9200 C.ar      1 NAP601      0.0000 
     44 C6N       -15.1350  -11.2210  -21.7730 C.ar      1 NAP601      0.0000 
     45 P2B       -18.6320  -16.9710  -12.5560 P.3       1 NAP601      0.0000 
     46 O1X       -18.5740  -18.0730  -13.5850 O.co2     1 NAP601      0.0000 
     47 O2X       -18.7710  -15.5840  -13.1690 O.co2     1 NAP601      0.0000 
     48 O3X       -19.5140  -17.3110  -11.3880 O.co2     1 NAP601      0.0000 
@<TRIPOS>BOND
     1    1    2 ar   
     2    1    3 ar   
     3    1    4 1    
     4    1   23 1    
     5    4    5 1    
     6    5    6 1    
     7    6    7 1    
     8    6    8 1    
     9    7   12 1    
    10    8    9 1    
    11    8   10 1    
    12   10   11 1    
    13   10   12 1    
    14   11   45 1    
    15   12   13 1    
    16   13   14 1    
    17   13   22 1    
    18   14   15 2    
    19   15   16 1    
    20   16   17 ar   
    21   16   22 ar   
    22   17   18 1    
    23   17   19 ar   
    24   19   20 ar   
    25   20   21 ar   
    26   21   22 ar   
    27   23   24 1    
    28   24   25 ar   
    29   24   26 ar   
    30   24   27 1    
    31   27   28 1    
    32   28   29 1    
    33   29   30 1    
    34   29   31 1    
    35   30   35 1    
    36   31   32 1    
    37   31   33 1    
    38   33   34 1    
    39   33   35 1    
    40   35   36 1    
    41   36   37 ar   
    42   36   44 ar   
    43   37   38 ar   
    44   38   39 1    
    45   38   42 ar   
    46   39   40 2    
    47   39   41 am   
    48   42   43 ar   
    49   43   44 ar   
    50   45   46 ar   
    51   45   47 ar   
    52   45   48 ar   
@<TRIPOS>SUBSTRUCTURE
     1 NAP601      1 GROUP   
@<TRIPOS>SET
ATOM$ORANGE STATIC     ATOMS   COLORGROUP SYSTEM 
42 5 5 6 6 8 8 10 10 12 12 14 14 16 16 17 17 20 \
20 22 22 28 28 29 29 31 31 33 33 35 35 37 37 38 38 39 \
39 42 42 43 43 44 44 

