#    Name: 6e07_3_NAP
#    Modification time : Fri May 22 19:26:32 2020

@<TRIPOS>MOLECULE
6e07_3_NAP
   48    52     1     0     1
SMALL
NO_CHARGES


@<TRIPOS>ATOM
      1 PA         -4.1430  -13.5840  -45.7940 P.3       1 NAP601      0.0000 
      2 O1A        -4.0250  -15.0970  -45.8180 O.co2     1 NAP601      0.0000 
      3 O2A        -4.9980  -12.8670  -46.8200 O.co2     1 NAP601      0.0000 
      4 O5B        -2.6930  -12.8860  -46.0420 O.3       1 NAP601      0.0000 
      5 C5B        -1.4980  -13.5110  -45.5580 C.3       1 NAP601      0.0000 
      6 C4B        -0.2230  -13.0270  -46.2480 C.3       1 NAP601      0.0000 
      7 O4B        -0.0990  -13.6950  -47.5030 O.3       1 NAP601      0.0000 
      8 C3B        -0.1710  -11.5310  -46.5580 C.3       1 NAP601      0.0000 
      9 O3B         1.1140  -11.0230  -46.1950 O.3       1 NAP601      0.0000 
     10 C2B        -0.3490  -11.4140  -48.0490 C.3       1 NAP601      0.0000 
     11 O2B         0.3790  -10.3470  -48.6430 O.3       1 NAP601      0.0000 
     12 C1B         0.2640  -12.7260  -48.4900 C.3       1 NAP601      0.0000 
     13 N9A        -0.1120  -13.1300  -49.8710 N.pl3     1 NAP601      0.0000 
     14 C8A        -1.2100  -12.8080  -50.6030 C.2       1 NAP601      0.0000 
     15 N7A        -1.1420  -13.3980  -51.8290 N.2       1 NAP601      0.0000 
     16 C5A         0.0030  -14.0890  -51.8650 C.ar      1 NAP601      0.0000 
     17 C6A         0.6900  -14.9310  -52.8480 C.ar      1 NAP601      0.0000 
     18 N6A         0.1050  -15.1160  -54.0510 N.pl3     1 NAP601      0.0000 
     19 N1A         1.8850  -15.4910  -52.4990 N.ar      1 NAP601      0.0000 
     20 C2A         2.4680  -15.2860  -51.2880 C.ar      1 NAP601      0.0000 
     21 N3A         1.8860  -14.5190  -50.3430 N.ar      1 NAP601      0.0000 
     22 C4A         0.6830  -13.9160  -50.5810 C.ar      1 NAP601      0.0000 
     23 O3         -4.6250  -13.2980  -44.2450 O.3       1 NAP601      0.0000 
     24 PN         -4.6900  -11.8140  -43.6230 P.3       1 NAP601      0.0000 
     25 O1N        -4.1000  -10.9470  -44.7270 O.co2     1 NAP601      0.0000 
     26 O2N        -4.0790  -11.8080  -42.2730 O.co2     1 NAP601      0.0000 
     27 O5D        -6.2620  -11.5730  -43.5050 O.3       1 NAP601      0.0000 
     28 C5D        -7.0630  -11.4460  -44.6850 C.3       1 NAP601      0.0000 
     29 C4D        -7.9310  -10.1940  -44.6200 C.3       1 NAP601      0.0000 
     30 O4D        -8.7550  -10.1990  -43.4440 O.3       1 NAP601      0.0000 
     31 C3D        -7.1020   -8.9200  -44.5510 C.3       1 NAP601      0.0000 
     32 O3D        -7.7270   -7.9150  -45.3460 O.3       1 NAP601      0.0000 
     33 C2D        -7.1340   -8.5060  -43.0950 C.3       1 NAP601      0.0000 
     34 O2D        -7.0230   -7.0900  -42.9230 O.3       1 NAP601      0.0000 
     35 C1D        -8.4880   -9.0370  -42.6550 C.3       1 NAP601      0.0000 
     36 N1N        -8.5450   -9.3250  -41.2140 N.pl3     1 NAP601      0.0000 
     37 C2N        -8.7380   -8.2780  -40.4030 C.ar      1 NAP601      0.0000 
     38 C3N        -8.8220   -8.4300  -39.0370 C.ar      1 NAP601      0.0000 
     39 C7N        -9.0210   -7.2070  -38.1990 C.2       1 NAP601      0.0000 
     40 O7N        -9.3470   -6.1780  -38.7530 O.2       1 NAP601      0.0000 
     41 N7N        -8.8650   -7.2200  -36.8860 N.am      1 NAP601      0.0000 
     42 C4N        -8.7330   -9.7080  -38.5080 C.ar      1 NAP601      0.0000 
     43 C5N        -8.5540  -10.7910  -39.3540 C.ar      1 NAP601      0.0000 
     44 C6N        -8.4560  -10.5700  -40.7250 C.ar      1 NAP601      0.0000 
     45 P2B         0.0830   -8.7790  -48.3750 P.3       1 NAP601      0.0000 
     46 O1X         0.8430   -8.4090  -47.1230 O.co2     1 NAP601      0.0000 
     47 O2X        -1.4250   -8.7000  -48.1940 O.co2     1 NAP601      0.0000 
     48 O3X         0.7350   -8.0890  -49.5510 O.co2     1 NAP601      0.0000 
@<TRIPOS>BOND
     1    1    2 ar   
     2    1    3 ar   
     3    1    4 1    
     4    1   23 1    
     5    4    5 1    
     6    5    6 1    
     7    6    7 1    
     8    6    8 1    
     9    7   12 1    
    10    8    9 1    
    11    8   10 1    
    12   10   11 1    
    13   10   12 1    
    14   11   45 1    
    15   12   13 1    
    16   13   14 1    
    17   13   22 1    
    18   14   15 2    
    19   15   16 1    
    20   16   17 ar   
    21   16   22 ar   
    22   17   18 1    
    23   17   19 ar   
    24   19   20 ar   
    25   20   21 ar   
    26   21   22 ar   
    27   23   24 1    
    28   24   25 ar   
    29   24   26 ar   
    30   24   27 1    
    31   27   28 1    
    32   28   29 1    
    33   29   30 1    
    34   29   31 1    
    35   30   35 1    
    36   31   32 1    
    37   31   33 1    
    38   33   34 1    
    39   33   35 1    
    40   35   36 1    
    41   36   37 ar   
    42   36   44 ar   
    43   37   38 ar   
    44   38   39 1    
    45   38   42 ar   
    46   39   40 2    
    47   39   41 am   
    48   42   43 ar   
    49   43   44 ar   
    50   45   46 ar   
    51   45   47 ar   
    52   45   48 ar   
@<TRIPOS>SUBSTRUCTURE
     1 NAP601      1 GROUP   
@<TRIPOS>SET
ATOM$ORANGE STATIC     ATOMS   COLORGROUP SYSTEM 
42 5 5 6 6 8 8 10 10 12 12 14 14 16 16 17 17 20 \
20 22 22 28 28 29 29 31 31 33 33 35 35 37 37 38 38 39 \
39 42 42 43 43 44 44 

