#    Name: 6e07_3_NAP_CAVITY_N1_4
#    Modification time : Fri May 22 19:26:34 2020

@<TRIPOS>MOLECULE
6e07_3_NAP_CAVITY_N1_4
   89     0     7     0     0
SMALL
NO_CHARGES


@<TRIPOS>ATOM
      1 OG         -4.6100  -11.3900  -43.1700 O.3       1 SER1        0.0000 
      2 OG         -6.5400  -10.6900  -42.6500 O.3       1 SER1        0.0000 
      3 OG         -5.5600  -10.3800  -43.7500 O.3       1 SER1        0.0000 
      4 OG         -7.4900   -9.6800  -43.2200 O.3       1 SER1        0.0000 
      5 OG          2.4500  -10.0400  -44.7100 O.3       1 SER1        0.0000 
      6 N          -7.0500  -14.3700  -48.2300 N.am      2 ALA2        0.0000 
      7 N          -9.3500  -12.9000  -45.7700 N.am      2 ALA2        0.0000 
      8 OD1        -5.5100  -15.6100  -45.1400 O.co2     3 ASP3        0.0000 
      9 OD1         0.3600  -13.7900  -51.7200 O.co2     3 ASP3        0.0000 
     10 OD1        -2.9600  -15.2400  -44.8100 O.co2     3 ASP3        0.0000 
     11 OD1         1.9400  -13.7300  -50.2900 O.co2     3 ASP3        0.0000 
     12 OD1        -4.8900  -14.5400  -44.2900 O.co2     3 ASP3        0.0000 
     13 OD1        -3.9100  -14.2300  -45.3900 O.co2     3 ASP3        0.0000 
     14 OD1         0.0000  -13.0200  -49.7700 O.co2     3 ASP3        0.0000 
     15 OD1        -0.9500  -12.0200  -50.3500 O.co2     3 ASP3        0.0000 
     16 OD1        -1.9000  -11.0100  -50.9200 O.co2     3 ASP3        0.0000 
     17 OD1        -1.3600  -13.8600  -45.0600 O.co2     3 ASP3        0.0000 
     18 OD1        -4.2700  -13.4600  -43.4400 O.co2     3 ASP3        0.0000 
     19 OD1        -3.2900  -13.1600  -44.5400 O.co2     3 ASP3        0.0000 
     20 OD1        -2.3100  -12.8600  -45.6400 O.co2     3 ASP3        0.0000 
     21 OD1         0.6200  -11.9500  -48.9200 O.co2     3 ASP3        0.0000 
     22 OD1        -0.3300  -10.9500  -49.5000 O.co2     3 ASP3        0.0000 
     23 OD1         0.2400  -12.4900  -45.3100 O.co2     3 ASP3        0.0000 
     24 OD1         2.1900  -11.8800  -47.5000 O.co2     3 ASP3        0.0000 
     25 OD1        -0.7200  -11.4900  -45.8800 O.co2     3 ASP3        0.0000 
     26 OD1         1.2400  -10.8800  -48.0800 O.co2     3 ASP3        0.0000 
     27 OD1        -3.6300  -11.0900  -44.2700 O.co2     3 ASP3        0.0000 
     28 OD1        -2.6500  -10.7800  -45.3600 O.co2     3 ASP3        0.0000 
     29 OD1        -1.6700  -10.4800  -46.4600 O.co2     3 ASP3        0.0000 
     30 OD1         0.2900   -9.8800  -48.6500 O.co2     3 ASP3        0.0000 
     31 OD1        -2.6200   -9.4800  -47.0300 O.co2     3 ASP3        0.0000 
     32 OD1        -1.6500   -9.1700  -48.1300 O.co2     3 ASP3        0.0000 
     33 OD1         1.8300  -11.1200  -45.5600 O.co2     3 ASP3        0.0000 
     34 OD1         2.8100  -10.8100  -46.6500 O.co2     3 ASP3        0.0000 
     35 OD1        -0.1000  -10.4100  -45.0400 O.co2     3 ASP3        0.0000 
     36 OD1         0.8800  -10.1100  -46.1300 O.co2     3 ASP3        0.0000 
     37 OD1        -2.0300   -9.7100  -44.5200 O.co2     3 ASP3        0.0000 
     38 OD1        -1.0500   -9.4100  -45.6100 O.co2     3 ASP3        0.0000 
     39 OD1        -0.0700   -9.1100  -46.7100 O.co2     3 ASP3        0.0000 
     40 OD1        -2.9800   -8.7100  -45.0900 O.co2     3 ASP3        0.0000 
     41 NZ          1.5000   -9.0400  -45.2900 N.4       4 LYS4        0.0000 
     42 CZ         -4.5300  -15.3100  -46.2400 C.ar      5 PHE5        0.0000 
     43 CZ         -0.6100  -14.1000  -50.6200 C.ar      5 PHE5        0.0000 
     44 CZ         -6.4600  -14.6000  -45.7200 C.ar      5 PHE5        0.0000 
     45 CZ         -5.4800  -14.3000  -46.8100 C.ar      5 PHE5        0.0000 
     46 CZ         -4.5000  -14.0000  -47.9100 C.ar      5 PHE5        0.0000 
     47 CZ         -1.9800  -14.9400  -45.9100 C.ar      5 PHE5        0.0000 
     48 CZ          0.9600  -14.0300  -49.2000 C.ar      5 PHE5        0.0000 
     49 CZ         -2.9300  -13.9300  -46.4800 C.ar      5 PHE5        0.0000 
     50 CZ         -1.9500  -13.6300  -47.5800 C.ar      5 PHE5        0.0000 
     51 CZ         -0.9700  -13.3300  -48.6800 C.ar      5 PHE5        0.0000 
     52 CZ         -5.8400  -13.5300  -44.8700 C.ar      5 PHE5        0.0000 
     53 CZ         -3.8900  -12.9300  -47.0600 C.ar      5 PHE5        0.0000 
     54 CZ         -2.9100  -12.6200  -48.1600 C.ar      5 PHE5        0.0000 
     55 CZ         -1.9300  -12.3200  -49.2500 C.ar      5 PHE5        0.0000 
     56 CZ         -7.7700  -12.8300  -44.3500 C.ar      5 PHE5        0.0000 
     57 CZ         -6.8000  -12.5300  -45.4400 C.ar      5 PHE5        0.0000 
     58 CZ         -0.3800  -13.5600  -46.1600 C.ar      5 PHE5        0.0000 
     59 CZ          0.6000  -13.2600  -47.2500 C.ar      5 PHE5        0.0000 
     60 CZ          1.5800  -12.9600  -48.3500 C.ar      5 PHE5        0.0000 
     61 CZ         -6.2000  -12.7600  -42.9200 C.ar      5 PHE5        0.0000 
     62 CZ         -5.2200  -12.4600  -44.0200 C.ar      5 PHE5        0.0000 
     63 CZ         -7.1600  -11.7600  -43.5000 C.ar      5 PHE5        0.0000 
     64 CZ          2.1700  -13.1900  -45.8300 C.ar      5 PHE5        0.0000 
     65 CZ          3.1500  -12.8900  -46.9300 C.ar      5 PHE5        0.0000 
     66 CA         -6.1000  -15.3700  -47.6600 C.3       6 GLY6        0.0000 
     67 CA          2.8900  -14.7300  -49.7200 C.3       6 GLY6        0.0000 
     68 CA         -8.7300  -11.8200  -44.9200 C.3       6 GLY6        0.0000 
     69 CA          2.5500  -12.6500  -49.4500 C.3       6 GLY6        0.0000 
     70 CA          3.1700  -11.5800  -48.6000 C.3       6 GLY6        0.0000 
     71 CA          2.7900  -12.1200  -44.9800 C.3       6 GLY6        0.0000 
     72 CA          3.7700  -11.8200  -46.0800 C.3       6 GLY6        0.0000 
     73 DU         -4.8600  -13.2300  -45.9600 H         7 CUB7        0.0000 
     74 DU         -5.8200  -12.2200  -46.5400 H         7 CUB7        0.0000 
     75 DU         -4.8400  -11.9200  -47.6300 H         7 CUB7        0.0000 
     76 DU         -1.3300  -12.5600  -46.7300 H         7 CUB7        0.0000 
     77 DU         -0.3600  -12.2500  -47.8300 H         7 CUB7        0.0000 
     78 DU         -4.2500  -12.1600  -45.1200 H         7 CUB7        0.0000 
     79 DU         -3.2700  -11.8500  -46.2100 H         7 CUB7        0.0000 
     80 DU         -2.2900  -11.5500  -47.3100 H         7 CUB7        0.0000 
     81 DU         -1.3100  -11.2500  -48.4000 H         7 CUB7        0.0000 
     82 DU         -6.1800  -11.4500  -44.5900 H         7 CUB7        0.0000 
     83 DU         -2.2600  -10.2400  -48.9800 H         7 CUB7        0.0000 
     84 DU         -8.1100  -10.7500  -44.0700 H         7 CUB7        0.0000 
     85 DU          1.2200  -12.1900  -46.4100 H         7 CUB7        0.0000 
     86 DU          0.2600  -11.1800  -46.9800 H         7 CUB7        0.0000 
     87 DU         -0.6900  -10.1800  -47.5600 H         7 CUB7        0.0000 
     88 DU         -4.5800  -10.0800  -44.8400 H         7 CUB7        0.0000 
     89 DU         -3.6000   -9.7800  -45.9400 H         7 CUB7        0.0000 
@<TRIPOS>BOND
@<TRIPOS>SUBSTRUCTURE
     1 SER1        1 GROUP   
     2 ALA2        6 GROUP   
     3 ASP3        8 GROUP   
     4 LYS4       41 GROUP   
     5 PHE5       42 GROUP   
     6 GLY6       66 GROUP   
     7 CUB7       73 GROUP   
@<TRIPOS>SET

