#    Name: 6e07_1_NAP_CAVITY_N1_12
#    Modification time : Fri May 22 19:26:17 2020

@<TRIPOS>MOLECULE
6e07_1_NAP_CAVITY_N1_12
   70     0     6     0     0
SMALL
NO_CHARGES


@<TRIPOS>ATOM
      1 OG          2.5000    0.9500   52.8000 O.3       1 SER1        0.0000 
      2 OG          3.1200    2.0200   53.6500 O.3       1 SER1        0.0000 
      3 OG         -3.0600    3.5900   58.8300 O.3       1 SER1        0.0000 
      4 OD1        -2.0100   -0.0200   54.6700 O.co2     2 ASP3        0.0000 
      5 OD1        -1.0300    0.2800   53.5700 O.co2     2 ASP3        0.0000 
      6 OD1        -1.9800    1.2800   53.0000 O.co2     2 ASP3        0.0000 
      7 OD1        -0.4600   -1.2700   57.7600 O.co2     2 ASP3        0.0000 
      8 OD1         0.5200   -0.9600   56.6700 O.co2     2 ASP3        0.0000 
      9 OD1         1.5000   -0.6600   55.5700 O.co2     2 ASP3        0.0000 
     10 OD1         2.4800   -0.3600   54.4700 O.co2     2 ASP3        0.0000 
     11 OD1        -1.4100   -0.2600   57.1900 O.co2     2 ASP3        0.0000 
     12 OD1        -0.4300    0.0400   56.0900 O.co2     2 ASP3        0.0000 
     13 OD1         0.5500    0.3400   55.0000 O.co2     2 ASP3        0.0000 
     14 OD1         1.5200    0.6500   53.9000 O.co2     2 ASP3        0.0000 
     15 OD1         0.5700    1.6500   53.3300 O.co2     2 ASP3        0.0000 
     16 OD1         1.5500    1.9500   52.2300 O.co2     2 ASP3        0.0000 
     17 OD1        -1.3600    2.3500   53.8500 O.co2     2 ASP3        0.0000 
     18 OD1        -0.3800    2.6600   52.7500 O.co2     2 ASP3        0.0000 
     19 OD1         3.0700   -0.5900   56.9900 O.co2     2 ASP3        0.0000 
     20 OD1         1.1400    0.1100   57.5100 O.co2     2 ASP3        0.0000 
     21 OD1         2.1200    0.4100   56.4200 O.co2     2 ASP3        0.0000 
     22 OD1         3.1000    0.7100   55.3200 O.co2     2 ASP3        0.0000 
     23 OD1        -0.7900    0.8100   58.0400 O.co2     2 ASP3        0.0000 
     24 OD1         0.1900    1.1100   56.9400 O.co2     2 ASP3        0.0000 
     25 OD1         1.1600    1.4200   55.8400 O.co2     2 ASP3        0.0000 
     26 OD1        -1.7500    1.8200   57.4600 O.co2     2 ASP3        0.0000 
     27 OD1        -0.7700    2.1200   56.3700 O.co2     2 ASP3        0.0000 
     28 OD1         2.1700    3.0300   53.0800 O.co2     2 ASP3        0.0000 
     29 OD1         0.2300    3.7300   53.6000 O.co2     2 ASP3        0.0000 
     30 OD1         1.2100    4.0300   52.5000 O.co2     2 ASP3        0.0000 
     31 OD1         1.7800    2.4900   56.6900 O.co2     2 ASP3        0.0000 
     32 OD1        -1.1300    2.8900   58.3100 O.co2     2 ASP3        0.0000 
     33 OD1        -0.1500    3.1900   57.2100 O.co2     2 ASP3        0.0000 
     34 OD1         0.8300    3.4900   56.1200 O.co2     2 ASP3        0.0000 
     35 OD1        -0.5100    3.9600   59.1600 O.co2     2 ASP3        0.0000 
     36 OD1         0.4700    4.2600   58.0600 O.co2     2 ASP3        0.0000 
     37 NZ          0.1100    5.0300   60.0100 N.4       3 LYS4        0.0000 
     38 NZ          1.0900    5.3300   58.9100 N.4       3 LYS4        0.0000 
     39 CZ         -2.7000    2.8200   56.8900 C.ar      4 PHE5        0.0000 
     40 CZ         -1.7200    3.1200   55.7900 C.ar      4 PHE5        0.0000 
     41 CZ         -1.7000    4.4300   54.1200 C.ar      4 PHE5        0.0000 
     42 CZ         -0.7200    4.7300   53.0300 C.ar      4 PHE5        0.0000 
     43 CZ         -2.0800    3.8900   57.7400 C.ar      4 PHE5        0.0000 
     44 CZ         -1.1000    4.2000   56.6400 C.ar      4 PHE5        0.0000 
     45 CZ         -0.1300    4.5000   55.5400 C.ar      4 PHE5        0.0000 
     46 CZ          0.8500    4.8000   54.4500 C.ar      4 PHE5        0.0000 
     47 CZ         -1.0800    5.5000   54.9700 C.ar      4 PHE5        0.0000 
     48 CZ         -2.4400    4.6600   59.6800 C.ar      4 PHE5        0.0000 
     49 CZ         -1.4600    4.9600   58.5800 C.ar      4 PHE5        0.0000 
     50 CZ         -0.4900    5.2700   57.4900 C.ar      4 PHE5        0.0000 
     51 CZ          0.4900    5.5700   56.3900 C.ar      4 PHE5        0.0000 
     52 CZ         -0.8500    6.0400   59.4300 C.ar      4 PHE5        0.0000 
     53 CZ          0.1300    6.3400   58.3400 C.ar      4 PHE5        0.0000 
     54 CZ         -0.2300    7.1100   60.2800 C.ar      4 PHE5        0.0000 
     55 CA          2.4500   -1.6600   56.1400 C.3       5 GLY6        0.0000 
     56 CA          2.7600    2.7900   55.6000 C.3       5 GLY6        0.0000 
     57 CA          3.7400    3.0900   54.5000 C.3       5 GLY6        0.0000 
     58 CA          1.8100    3.8000   55.0200 C.3       5 GLY6        0.0000 
     59 CA          2.7900    4.1000   53.9300 C.3       5 GLY6        0.0000 
     60 CA          1.4500    4.5600   56.9700 C.3       5 GLY6        0.0000 
     61 CA          0.7500    7.4100   59.1800 C.3       5 GLY6        0.0000 
     62 DU         -2.3700    0.7400   56.6100 H         6 CUB7        0.0000 
     63 DU         -1.3900    1.0500   55.5200 H         6 CUB7        0.0000 
     64 DU         -0.4100    1.3500   54.4200 H         6 CUB7        0.0000 
     65 DU         -3.3200    1.7500   56.0400 H         6 CUB7        0.0000 
     66 DU         -2.3400    2.0500   54.9400 H         6 CUB7        0.0000 
     67 DU          2.1400    1.7200   54.7500 H         6 CUB7        0.0000 
     68 DU          0.2100    2.4200   55.2700 H         6 CUB7        0.0000 
     69 DU          1.1900    2.7200   54.1700 H         6 CUB7        0.0000 
     70 DU         -0.7400    3.4300   54.7000 H         6 CUB7        0.0000 
@<TRIPOS>BOND
@<TRIPOS>SUBSTRUCTURE
     1 SER1        1 GROUP   
     2 ASP3        4 GROUP   
     3 LYS4       37 GROUP   
     4 PHE5       39 GROUP   
     5 GLY6       55 GROUP   
     6 CUB7       62 GROUP   
@<TRIPOS>SET

