#    Name: 6e07_4_NAP
#    Modification time : Fri May 22 19:26:42 2020

@<TRIPOS>MOLECULE
6e07_4_NAP
   48    52     1     0     1
SMALL
NO_CHARGES


@<TRIPOS>ATOM
      1 PA         17.4810   32.1690    8.2590 P.3       1 NAP601      0.0000 
      2 O1A        15.9540   32.1360    8.3350 O.co2     1 NAP601      0.0000 
      3 O2A        18.2410   33.0170    7.2670 O.co2     1 NAP601      0.0000 
      4 O5B        18.1310   30.7230    7.8960 O.3       1 NAP601      0.0000 
      5 C5B        17.4790   29.5720    8.4450 C.3       1 NAP601      0.0000 
      6 C4B        17.8880   28.2550    7.8360 C.3       1 NAP601      0.0000 
      7 O4B        17.1610   28.0930    6.6260 O.3       1 NAP601      0.0000 
      8 C3B        19.3540   28.1730    7.4620 C.3       1 NAP601      0.0000 
      9 O3B        19.8030   26.8670    7.7610 O.3       1 NAP601      0.0000 
     10 C2B        19.3860   28.3570    5.9650 C.3       1 NAP601      0.0000 
     11 O2B        20.4030   27.6520    5.2840 O.3       1 NAP601      0.0000 
     12 C1B        18.0740   27.7240    5.5800 C.3       1 NAP601      0.0000 
     13 N9A        17.5780   28.1240    4.2270 N.pl3     1 NAP601      0.0000 
     14 C8A        17.9140   29.2080    3.4680 C.2       1 NAP601      0.0000 
     15 N7A        17.2150   29.1980    2.3090 N.2       1 NAP601      0.0000 
     16 C5A        16.4440   28.0900    2.3280 C.ar      1 NAP601      0.0000 
     17 C6A        15.4510   27.4580    1.4220 C.ar      1 NAP601      0.0000 
     18 N6A        15.2100   28.0810    0.2560 N.pl3     1 NAP601      0.0000 
     19 N1A        14.8270   26.2890    1.7800 N.ar      1 NAP601      0.0000 
     20 C2A        15.1160   25.6800    2.9670 C.ar      1 NAP601      0.0000 
     21 N3A        16.0160   26.2150    3.8450 N.ar      1 NAP601      0.0000 
     22 C4A        16.6820   27.3850    3.5830 C.ar      1 NAP601      0.0000 
     23 O3         17.8070   32.5470    9.8190 O.3       1 NAP601      0.0000 
     24 PN         19.3330   32.5940   10.2930 P.3       1 NAP601      0.0000 
     25 O1N        20.0890   31.9910    9.1090 O.co2     1 NAP601      0.0000 
     26 O2N        19.3750   32.0970   11.6810 O.co2     1 NAP601      0.0000 
     27 O5D        19.6730   34.1630   10.3690 O.3       1 NAP601      0.0000 
     28 C5D        19.6410   35.0100    9.2130 C.3       1 NAP601      0.0000 
     29 C4D        20.8340   35.9360    9.1810 C.3       1 NAP601      0.0000 
     30 O4D        20.9050   36.8470   10.3200 O.3       1 NAP601      0.0000 
     31 C3D        22.0920   35.1210    9.2110 C.3       1 NAP601      0.0000 
     32 O3D        23.0250   35.8090    8.3940 O.3       1 NAP601      0.0000 
     33 C2D        22.5950   35.2140   10.6290 C.3       1 NAP601      0.0000 
     34 O2D        24.0250   35.1310   10.7080 O.3       1 NAP601      0.0000 
     35 C1D        22.1240   36.5960   11.0550 C.3       1 NAP601      0.0000 
     36 N1N        22.0000   36.6120   12.5140 N.pl3     1 NAP601      0.0000 
     37 C2N        23.1300   36.7480   13.1960 C.ar      1 NAP601      0.0000 
     38 C3N        23.1140   36.7770   14.5840 C.ar      1 NAP601      0.0000 
     39 C7N        24.4420   36.9350   15.2530 C.2       1 NAP601      0.0000 
     40 O7N        25.4560   37.0070   14.5630 O.2       1 NAP601      0.0000 
     41 N7N        24.5230   37.0010   16.5680 N.am      1 NAP601      0.0000 
     42 C4N        21.9120   36.6560   15.2790 C.ar      1 NAP601      0.0000 
     43 C5N        20.7400   36.5120   14.5510 C.ar      1 NAP601      0.0000 
     44 C6N        20.8120   36.4930   13.1590 C.ar      1 NAP601      0.0000 
     45 P2B        21.9740   27.9580    5.3170 P.3       1 NAP601      0.0000 
     46 O1X        22.4080   27.6100    6.7170 O.co2     1 NAP601      0.0000 
     47 O2X        22.0610   29.4520    5.0270 O.co2     1 NAP601      0.0000 
     48 O3X        22.4370   26.9650    4.2720 O.co2     1 NAP601      0.0000 
@<TRIPOS>BOND
     1    1    2 ar   
     2    1    3 ar   
     3    1    4 1    
     4    1   23 1    
     5    4    5 1    
     6    5    6 1    
     7    6    7 1    
     8    6    8 1    
     9    7   12 1    
    10    8    9 1    
    11    8   10 1    
    12   10   11 1    
    13   10   12 1    
    14   11   45 1    
    15   12   13 1    
    16   13   14 1    
    17   13   22 1    
    18   14   15 2    
    19   15   16 1    
    20   16   17 ar   
    21   16   22 ar   
    22   17   18 1    
    23   17   19 ar   
    24   19   20 ar   
    25   20   21 ar   
    26   21   22 ar   
    27   23   24 1    
    28   24   25 ar   
    29   24   26 ar   
    30   24   27 1    
    31   27   28 1    
    32   28   29 1    
    33   29   30 1    
    34   29   31 1    
    35   30   35 1    
    36   31   32 1    
    37   31   33 1    
    38   33   34 1    
    39   33   35 1    
    40   35   36 1    
    41   36   37 ar   
    42   36   44 ar   
    43   37   38 ar   
    44   38   39 1    
    45   38   42 ar   
    46   39   40 2    
    47   39   41 am   
    48   42   43 ar   
    49   43   44 ar   
    50   45   46 ar   
    51   45   47 ar   
    52   45   48 ar   
@<TRIPOS>SUBSTRUCTURE
     1 NAP601      1 GROUP   
@<TRIPOS>SET
ATOM$ORANGE STATIC     ATOMS   COLORGROUP SYSTEM 
42 5 5 6 6 8 8 10 10 12 12 14 14 16 16 17 17 20 \
20 22 22 28 28 29 29 31 31 33 33 35 35 37 37 38 38 39 \
39 42 42 43 43 44 44 

