#    Name: 6e07_5_NAP
#    Modification time : Fri May 22 19:26:51 2020

@<TRIPOS>MOLECULE
6e07_5_NAP
   48    52     1     0     1
SMALL
NO_CHARGES


@<TRIPOS>ATOM
      1 PA        -13.8310   -2.0070   22.8750 P.3       1 NAP601      0.0000 
      2 O1A       -12.4630   -2.0470   22.1670 O.co2     1 NAP601      0.0000 
      3 O2A       -14.7270   -3.2180   22.8440 O.co2     1 NAP601      0.0000 
      4 O5B       -14.7880   -0.8380   22.2700 O.3       1 NAP601      0.0000 
      5 C5B       -14.2530    0.4770   22.1290 C.3       1 NAP601      0.0000 
      6 C4B       -14.8600    1.2560   20.9820 C.3       1 NAP601      0.0000 
      7 O4B       -14.5380    0.7100   19.6990 O.3       1 NAP601      0.0000 
      8 C3B       -16.3800    1.2610   21.0440 C.3       1 NAP601      0.0000 
      9 O3B       -16.7790    2.6330   21.1260 O.3       1 NAP601      0.0000 
     10 C2B       -16.8020    0.5480   19.7590 C.3       1 NAP601      0.0000 
     11 O2B       -18.0980    0.9260   19.3480 O.3       1 NAP601      0.0000 
     12 C1B       -15.6740    1.0430   18.8630 C.3       1 NAP601      0.0000 
     13 N9A       -15.4580    0.5420   17.4660 N.pl3     1 NAP601      0.0000 
     14 C8A       -14.8640    1.2660   16.4540 C.2       1 NAP601      0.0000 
     15 N7A       -14.7380    0.5730   15.2950 N.2       1 NAP601      0.0000 
     16 C5A       -15.2800   -0.6130   15.5990 C.ar      1 NAP601      0.0000 
     17 C6A       -15.4820   -1.8330   14.8290 C.ar      1 NAP601      0.0000 
     18 N6A       -15.0560   -1.7920   13.5360 N.pl3     1 NAP601      0.0000 
     19 N1A       -16.0820   -2.9020   15.4670 N.ar      1 NAP601      0.0000 
     20 C2A       -16.4730   -2.8260   16.7710 C.ar      1 NAP601      0.0000 
     21 N3A       -16.3140   -1.7290   17.5420 N.ar      1 NAP601      0.0000 
     22 C4A       -15.7420   -0.6420   17.0070 C.ar      1 NAP601      0.0000 
     23 O3        -13.5990   -1.6270   24.4330 O.3       1 NAP601      0.0000 
     24 PN        -14.8520   -1.3690   25.4050 P.3       1 NAP601      0.0000 
     25 O1N       -16.0790   -1.3020   24.5210 O.co2     1 NAP601      0.0000 
     26 O2N       -14.5710   -0.2270   26.3570 O.co2     1 NAP601      0.0000 
     27 O5D       -14.9300   -2.7200   26.3070 O.3       1 NAP601      0.0000 
     28 C5D       -15.1960   -4.0570   25.8140 C.3       1 NAP601      0.0000 
     29 C4D       -16.3070   -4.7360   26.6090 C.3       1 NAP601      0.0000 
     30 O4D       -15.9390   -4.9140   27.9860 O.3       1 NAP601      0.0000 
     31 C3D       -17.5770   -3.8800   26.6190 C.3       1 NAP601      0.0000 
     32 O3D       -18.7720   -4.6800   26.5250 O.3       1 NAP601      0.0000 
     33 C2D       -17.5380   -3.1910   27.9550 C.3       1 NAP601      0.0000 
     34 O2D       -18.8470   -2.8870   28.3760 O.3       1 NAP601      0.0000 
     35 C1D       -16.8870   -4.2350   28.8340 C.3       1 NAP601      0.0000 
     36 N1N       -16.2390   -3.6510   30.0060 N.pl3     1 NAP601      0.0000 
     37 C2N       -16.9800   -3.3380   31.0710 C.ar      1 NAP601      0.0000 
     38 C3N       -16.3600   -2.8140   32.2130 C.ar      1 NAP601      0.0000 
     39 C7N       -17.2150   -2.4680   33.3700 C.2       1 NAP601      0.0000 
     40 O7N       -18.3570   -2.8490   33.3150 O.2       1 NAP601      0.0000 
     41 N7N       -16.7580   -1.7570   34.3980 N.am      1 NAP601      0.0000 
     42 C4N       -14.9900   -2.5920   32.2600 C.ar      1 NAP601      0.0000 
     43 C5N       -14.2470   -2.9260   31.1370 C.ar      1 NAP601      0.0000 
     44 C6N       -14.8950   -3.4580   30.0200 C.ar      1 NAP601      0.0000 
     45 P2B       -19.4260    0.8190   20.2490 P.3       1 NAP601      0.0000 
     46 O1X       -19.4970    1.9020   21.2960 O.co2     1 NAP601      0.0000 
     47 O2X       -19.2990   -0.5760   20.8290 O.co2     1 NAP601      0.0000 
     48 O3X       -20.4360    1.0820   19.1590 O.co2     1 NAP601      0.0000 
@<TRIPOS>BOND
     1    1    2 ar   
     2    1    3 ar   
     3    1    4 1    
     4    1   23 1    
     5    4    5 1    
     6    5    6 1    
     7    6    7 1    
     8    6    8 1    
     9    7   12 1    
    10    8    9 1    
    11    8   10 1    
    12   10   11 1    
    13   10   12 1    
    14   11   45 1    
    15   12   13 1    
    16   13   14 1    
    17   13   22 1    
    18   14   15 2    
    19   15   16 1    
    20   16   17 ar   
    21   16   22 ar   
    22   17   18 1    
    23   17   19 ar   
    24   19   20 ar   
    25   20   21 ar   
    26   21   22 ar   
    27   23   24 1    
    28   24   25 ar   
    29   24   26 ar   
    30   24   27 1    
    31   27   28 1    
    32   28   29 1    
    33   29   30 1    
    34   29   31 1    
    35   30   35 1    
    36   31   32 1    
    37   31   33 1    
    38   33   34 1    
    39   33   35 1    
    40   35   36 1    
    41   36   37 ar   
    42   36   44 ar   
    43   37   38 ar   
    44   38   39 1    
    45   38   42 ar   
    46   39   40 2    
    47   39   41 am   
    48   42   43 ar   
    49   43   44 ar   
    50   45   46 ar   
    51   45   47 ar   
    52   45   48 ar   
@<TRIPOS>SUBSTRUCTURE
     1 NAP601      1 GROUP   
@<TRIPOS>SET
ATOM$ORANGE STATIC     ATOMS   COLORGROUP SYSTEM 
42 5 5 6 6 8 8 10 10 12 12 14 14 16 16 17 17 20 \
20 22 22 28 28 29 29 31 31 33 33 35 35 37 37 38 38 39 \
39 42 42 43 43 44 44 

