#    Name: 6e07_8_NAP_CAVITY_N1_ALL
#    Modification time : Fri May 22 19:27:32 2020

@<TRIPOS>MOLECULE
6e07_8_NAP_CAVITY_N1_ALL
   90     0     7     0     0
SMALL
NO_CHARGES


@<TRIPOS>ATOM
      1 OG        -16.0000  -20.4900  -12.7400 O.3       1 SER1        0.0000 
      2 OG        -16.9500  -19.4800  -13.3200 O.3       1 SER1        0.0000 
      3 N         -15.3400   -8.9600  -17.1800 N.am      2 ALA2        0.0000 
      4 N         -13.7900  -10.2000  -14.0900 N.am      2 ALA2        0.0000 
      5 N         -14.7400   -9.2000  -14.6600 N.am      2 ALA2        0.0000 
      6 OD1       -17.9300  -19.7900  -12.2200 O.co2     3 ASP3        0.0000 
      7 OD1       -18.8900  -18.7800  -12.8000 O.co2     3 ASP3        0.0000 
      8 OD1       -17.9100  -18.4800  -13.8900 O.co2     3 ASP3        0.0000 
      9 OD1       -16.9000  -16.8700  -16.6600 O.co2     3 ASP3        0.0000 
     10 OD1       -16.3600  -19.7200  -10.8000 O.co2     3 ASP3        0.0000 
     11 OD1       -14.4000  -19.1200  -12.9900 O.co2     3 ASP3        0.0000 
     12 OD1       -18.2900  -19.0200  -10.2800 O.co2     3 ASP3        0.0000 
     13 OD1       -17.3100  -18.7200  -11.3700 O.co2     3 ASP3        0.0000 
     14 OD1       -15.3600  -18.1100  -13.5700 O.co2     3 ASP3        0.0000 
     15 OD1       -18.2700  -17.7100  -11.9500 O.co2     3 ASP3        0.0000 
     16 OD1       -17.2900  -17.4100  -13.0400 O.co2     3 ASP3        0.0000 
     17 OD1       -16.3100  -17.1100  -14.1400 O.co2     3 ASP3        0.0000 
     18 OD1       -19.2200  -16.7100  -12.5200 O.co2     3 ASP3        0.0000 
     19 OD1       -18.2400  -16.4000  -13.6200 O.co2     3 ASP3        0.0000 
     20 OD1       -17.2600  -16.1000  -14.7100 O.co2     3 ASP3        0.0000 
     21 OD1       -16.2900  -15.8000  -15.8100 O.co2     3 ASP3        0.0000 
     22 OD1       -20.1800  -15.7000  -13.1000 O.co2     3 ASP3        0.0000 
     23 OD1       -19.2000  -15.4000  -14.1900 O.co2     3 ASP3        0.0000 
     24 OD1       -18.2200  -15.1000  -15.2900 O.co2     3 ASP3        0.0000 
     25 OD1       -17.2400  -14.7900  -16.3800 O.co2     3 ASP3        0.0000 
     26 OD1       -15.7400  -18.6500   -9.9500 O.co2     3 ASP3        0.0000 
     27 OD1       -15.7200  -17.3400  -11.6200 O.co2     3 ASP3        0.0000 
     28 OD1       -13.7600  -16.7400  -13.8100 O.co2     3 ASP3        0.0000 
     29 OD1       -17.6500  -16.6400  -11.1000 O.co2     3 ASP3        0.0000 
     30 OD1       -16.6700  -16.3400  -12.2000 O.co2     3 ASP3        0.0000 
     31 OD1       -14.7100  -15.7300  -14.3900 O.co2     3 ASP3        0.0000 
     32 OD1       -13.7400  -15.4300  -15.4800 O.co2     3 ASP3        0.0000 
     33 OD1       -18.6000  -15.6300  -11.6700 O.co2     3 ASP3        0.0000 
     34 OD1       -15.6700  -14.7300  -14.9600 O.co2     3 ASP3        0.0000 
     35 OD1       -14.6900  -14.4200  -16.0600 O.co2     3 ASP3        0.0000 
     36 OD1       -13.7100  -14.1200  -17.1500 O.co2     3 ASP3        0.0000 
     37 OD1       -19.5600  -14.6300  -12.2500 O.co2     3 ASP3        0.0000 
     38 OD1       -15.1200  -17.5800   -9.1000 O.co2     3 ASP3        0.0000 
     39 OD1       -15.1000  -16.2700  -10.7700 O.co2     3 ASP3        0.0000 
     40 OD1       -16.0500  -15.2600  -11.3500 O.co2     3 ASP3        0.0000 
     41 OD1       -13.1200  -14.3600  -14.6400 O.co2     3 ASP3        0.0000 
     42 OD1       -17.9800  -14.5600  -10.8300 O.co2     3 ASP3        0.0000 
     43 OD1       -17.0100  -14.2600  -11.9200 O.co2     3 ASP3        0.0000 
     44 OD1       -13.0900  -13.0500  -16.3100 O.co2     3 ASP3        0.0000 
     45 OD1       -14.5000  -16.5100   -8.2600 O.co2     3 ASP3        0.0000 
     46 OD1       -15.4600  -15.5000   -8.8300 O.co2     3 ASP3        0.0000 
     47 OD1       -16.4100  -14.5000   -9.4000 O.co2     3 ASP3        0.0000 
     48 OD1       -12.4700  -11.9800  -15.4600 O.co2     3 ASP3        0.0000 
     49 OD1       -15.8200  -14.7300   -6.8900 O.co2     3 ASP3        0.0000 
     50 NZ        -15.9800  -19.1800  -14.4100 N.4       4 LYS4        0.0000 
     51 NZ        -16.9300  -18.1800  -14.9900 N.4       4 LYS4        0.0000 
     52 CZ        -14.7600  -18.3500  -11.0500 C.ar      5 PHE5        0.0000 
     53 CZ        -13.7800  -18.0400  -12.1400 C.ar      5 PHE5        0.0000 
     54 CZ        -14.1400  -17.2700  -10.2000 C.ar      5 PHE5        0.0000 
     55 CZ        -13.1700  -16.9700  -11.3000 C.ar      5 PHE5        0.0000 
     56 CZ        -14.1200  -15.9700  -11.8700 C.ar      5 PHE5        0.0000 
     57 CZ        -13.1400  -15.6600  -12.9700 C.ar      5 PHE5        0.0000 
     58 CZ        -15.0700  -14.9600  -12.4400 C.ar      5 PHE5        0.0000 
     59 CZ        -14.1000  -14.6600  -13.5400 C.ar      5 PHE5        0.0000 
     60 CZ        -14.0500  -12.0400  -16.8800 C.ar      5 PHE5        0.0000 
     61 CZ        -15.0000  -11.0400  -17.4600 C.ar      5 PHE5        0.0000 
     62 CZ        -13.5300  -16.2000   -9.3500 C.ar      5 PHE5        0.0000 
     63 CZ        -14.4800  -15.2000   -9.9300 C.ar      5 PHE5        0.0000 
     64 CZ        -13.4500  -12.2800  -14.3600 C.ar      5 PHE5        0.0000 
     65 CZ        -13.4300  -10.9700  -16.0300 C.ar      5 PHE5        0.0000 
     66 CZ        -14.3800   -9.9700  -16.6100 C.ar      5 PHE5        0.0000 
     67 CZ        -13.8900  -15.4300   -7.4100 C.ar      5 PHE5        0.0000 
     68 CZ        -14.8400  -14.4300   -7.9800 C.ar      5 PHE5        0.0000 
     69 CZ        -15.7900  -13.4200   -8.5600 C.ar      5 PHE5        0.0000 
     70 CA        -15.3800  -19.4200  -11.9000 C.3       6 GLY6        0.0000 
     71 CA        -13.8100  -19.3500  -10.4700 C.3       6 GLY6        0.0000 
     72 CA        -15.9600  -10.0300  -18.0300 C.3       6 GLY6        0.0000 
     73 CA        -12.8100   -9.9000  -15.1900 C.3       6 GLY6        0.0000 
     74 DU        -16.3400  -18.4100  -12.4700 H         7 CUB7        0.0000 
     75 DU        -14.7400  -17.0400  -12.7200 H         7 CUB7        0.0000 
     76 DU        -15.6900  -16.0300  -13.2900 H         7 CUB7        0.0000 
     77 DU        -17.6200  -15.3300  -12.7700 H         7 CUB7        0.0000 
     78 DU        -16.6500  -15.0300  -13.8700 H         7 CUB7        0.0000 
     79 DU        -18.5800  -14.3300  -13.3500 H         7 CUB7        0.0000 
     80 DU        -17.6000  -14.0200  -14.4400 H         7 CUB7        0.0000 
     81 DU        -16.6200  -13.7200  -15.5400 H         7 CUB7        0.0000 
     82 DU        -15.6400  -13.4200  -16.6300 H         7 CUB7        0.0000 
     83 DU        -16.6000  -12.4100  -17.2100 H         7 CUB7        0.0000 
     84 DU        -16.0300  -13.9600  -13.0200 H         7 CUB7        0.0000 
     85 DU        -15.0500  -13.6500  -14.1100 H         7 CUB7        0.0000 
     86 DU        -14.0700  -13.3500  -15.2100 H         7 CUB7        0.0000 
     87 DU        -15.0300  -12.3500  -15.7900 H         7 CUB7        0.0000 
     88 DU        -15.9800  -11.3400  -16.3600 H         7 CUB7        0.0000 
     89 DU        -14.4100  -11.2800  -14.9400 H         7 CUB7        0.0000 
     90 DU        -15.3600  -10.2700  -15.5100 H         7 CUB7        0.0000 
@<TRIPOS>BOND
@<TRIPOS>SUBSTRUCTURE
     1 SER1        1 GROUP   
     2 ALA2        3 GROUP   
     3 ASP3        6 GROUP   
     4 LYS4       50 GROUP   
     5 PHE5       52 GROUP   
     6 GLY6       70 GROUP   
     7 CUB7       74 GROUP   
@<TRIPOS>SET

