#    Name: 6e07_1_NAP
#    Modification time : Fri May 22 19:26:15 2020

@<TRIPOS>MOLECULE
6e07_1_NAP
   48    52     1     0     1
SMALL
NO_CHARGES


@<TRIPOS>ATOM
      1 PA         -4.7490    3.0890   53.5000 P.3       1 NAP601      0.0000 
      2 O1A        -5.0390    4.5920   53.6670 O.co2     1 NAP601      0.0000 
      3 O2A        -5.1180    2.0540   54.5580 O.co2     1 NAP601      0.0000 
      4 O5B        -3.1710    2.7590   53.4720 O.3       1 NAP601      0.0000 
      5 C5B        -2.4230    3.5530   54.3640 C.3       1 NAP601      0.0000 
      6 C4B        -0.9390    3.3880   54.1940 C.3       1 NAP601      0.0000 
      7 O4B        -0.4520    4.3700   55.0920 O.3       1 NAP601      0.0000 
      8 C3B        -0.3940    2.0730   54.7180 C.3       1 NAP601      0.0000 
      9 O3B         0.9120    1.9260   54.1460 O.3       1 NAP601      0.0000 
     10 C2B        -0.3270    2.2630   56.2300 C.3       1 NAP601      0.0000 
     11 O2B         0.5560    1.3590   56.8970 O.3       1 NAP601      0.0000 
     12 C1B         0.2150    3.6920   56.1710 C.3       1 NAP601      0.0000 
     13 N9A         0.1780    4.5590   57.3670 N.pl3     1 NAP601      0.0000 
     14 C8A         1.0300    5.6280   57.5750 C.2       1 NAP601      0.0000 
     15 N7A         0.8280    6.2930   58.7350 N.2       1 NAP601      0.0000 
     16 C5A        -0.1790    5.5700   59.2450 C.ar      1 NAP601      0.0000 
     17 C6A        -0.8940    5.7110   60.4570 C.ar      1 NAP601      0.0000 
     18 N6A        -0.4770    6.7390   61.2220 N.pl3     1 NAP601      0.0000 
     19 N1A        -1.8980    4.8110   60.6920 N.ar      1 NAP601      0.0000 
     20 C2A        -2.2300    3.8000   59.8300 C.ar      1 NAP601      0.0000 
     21 N3A        -1.5930    3.6100   58.6690 N.ar      1 NAP601      0.0000 
     22 C4A        -0.6100    4.4550   58.3760 C.ar      1 NAP601      0.0000 
     23 O3         -5.2020    2.7440   51.9810 O.3       1 NAP601      0.0000 
     24 PN         -4.7310    1.2930   51.5120 P.3       1 NAP601      0.0000 
     25 O1N        -3.9970    0.7090   52.7430 O.co2     1 NAP601      0.0000 
     26 O2N        -4.0840    1.3510   50.1380 O.co2     1 NAP601      0.0000 
     27 O5D        -6.1730    0.5890   51.3970 O.3       1 NAP601      0.0000 
     28 C5D        -7.0640    0.5580   52.5320 C.3       1 NAP601      0.0000 
     29 C4D        -7.5980   -0.8420   52.7500 C.3       1 NAP601      0.0000 
     30 O4D        -8.4610   -1.1840   51.6570 O.3       1 NAP601      0.0000 
     31 C3D        -6.4720   -1.8720   52.7690 C.3       1 NAP601      0.0000 
     32 O3D        -6.7910   -3.0040   53.5620 O.3       1 NAP601      0.0000 
     33 C2D        -6.4210   -2.3390   51.3530 C.3       1 NAP601      0.0000 
     34 O2D        -5.8430   -3.6230   51.2450 O.3       1 NAP601      0.0000 
     35 C1D        -7.8890   -2.2890   50.9560 C.3       1 NAP601      0.0000 
     36 N1N        -7.9960   -2.1310   49.5100 N.pl3     1 NAP601      0.0000 
     37 C2N        -7.8540   -3.2390   48.7800 C.ar      1 NAP601      0.0000 
     38 C3N        -7.9340   -3.1760   47.4040 C.ar      1 NAP601      0.0000 
     39 C7N        -7.7800   -4.4450   46.6530 C.2       1 NAP601      0.0000 
     40 O7N        -7.6630   -5.4730   47.2770 O.2       1 NAP601      0.0000 
     41 N7N        -7.7550   -4.4550   45.3300 N.am      1 NAP601      0.0000 
     42 C4N        -8.1540   -1.9480   46.7800 C.ar      1 NAP601      0.0000 
     43 C5N        -8.2850   -0.8060   47.5570 C.ar      1 NAP601      0.0000 
     44 C6N        -8.2000   -0.9210   48.9430 C.ar      1 NAP601      0.0000 
     45 P2B         0.7930   -0.2260   56.5680 P.3       1 NAP601      0.0000 
     46 O1X         1.7930   -0.3790   55.4380 O.co2     1 NAP601      0.0000 
     47 O2X        -0.5360   -0.8340   56.2010 O.co2     1 NAP601      0.0000 
     48 O3X         1.4060   -0.6810   57.8650 O.co2     1 NAP601      0.0000 
@<TRIPOS>BOND
     1    1    2 ar   
     2    1    3 ar   
     3    1    4 1    
     4    1   23 1    
     5    4    5 1    
     6    5    6 1    
     7    6    7 1    
     8    6    8 1    
     9    7   12 1    
    10    8    9 1    
    11    8   10 1    
    12   10   11 1    
    13   10   12 1    
    14   11   45 1    
    15   12   13 1    
    16   13   14 1    
    17   13   22 1    
    18   14   15 2    
    19   15   16 1    
    20   16   17 ar   
    21   16   22 ar   
    22   17   18 1    
    23   17   19 ar   
    24   19   20 ar   
    25   20   21 ar   
    26   21   22 ar   
    27   23   24 1    
    28   24   25 ar   
    29   24   26 ar   
    30   24   27 1    
    31   27   28 1    
    32   28   29 1    
    33   29   30 1    
    34   29   31 1    
    35   30   35 1    
    36   31   32 1    
    37   31   33 1    
    38   33   34 1    
    39   33   35 1    
    40   35   36 1    
    41   36   37 ar   
    42   36   44 ar   
    43   37   38 ar   
    44   38   39 1    
    45   38   42 ar   
    46   39   40 2    
    47   39   41 am   
    48   42   43 ar   
    49   43   44 ar   
    50   45   46 ar   
    51   45   47 ar   
    52   45   48 ar   
@<TRIPOS>SUBSTRUCTURE
     1 NAP601      1 GROUP   
@<TRIPOS>SET
ATOM$ORANGE STATIC     ATOMS   COLORGROUP SYSTEM 
42 5 5 6 6 8 8 10 10 12 12 14 14 16 16 17 17 20 \
20 22 22 28 28 29 29 31 31 33 33 35 35 37 37 38 38 39 \
39 42 42 43 43 44 44 

