#    Name: 6e07_7_NAP
#    Modification time : Fri May 22 19:27:21 2020

@<TRIPOS>MOLECULE
6e07_7_NAP
   48    52     1     0     1
SMALL
NO_CHARGES


@<TRIPOS>ATOM
      1 PA         29.5740  -46.3630  -34.2680 P.3       1 NAP601      0.0000 
      2 O1A        29.3980  -44.9090  -34.7150 O.co2     1 NAP601      0.0000 
      3 O2A        30.9010  -47.0330  -34.4410 O.co2     1 NAP601      0.0000 
      4 O5B        28.4590  -47.2980  -34.9810 O.3       1 NAP601      0.0000 
      5 C5B        27.2050  -46.6620  -35.2090 C.3       1 NAP601      0.0000 
      6 C4B        26.3080  -47.3280  -36.2370 C.3       1 NAP601      0.0000 
      7 O4B        26.7450  -46.9840  -37.5510 O.3       1 NAP601      0.0000 
      8 C3B        26.2710  -48.8550  -36.1550 C.3       1 NAP601      0.0000 
      9 O3B        24.9030  -49.2760  -36.2620 O.3       1 NAP601      0.0000 
     10 C2B        27.0780  -49.3120  -37.3540 C.3       1 NAP601      0.0000 
     11 O2B        26.6600  -50.5160  -37.9810 O.3       1 NAP601      0.0000 
     12 C1B        26.7650  -48.1920  -38.3240 C.3       1 NAP601      0.0000 
     13 N9A        27.7280  -48.0490  -39.4310 N.pl3     1 NAP601      0.0000 
     14 C8A        29.0210  -48.4560  -39.5280 C.2       1 NAP601      0.0000 
     15 N7A        29.5160  -48.0720  -40.7370 N.2       1 NAP601      0.0000 
     16 C5A        28.5250  -47.4340  -41.4000 C.ar      1 NAP601      0.0000 
     17 C6A        28.3550  -46.7670  -42.6970 C.ar      1 NAP601      0.0000 
     18 N6A        29.4130  -46.7450  -43.5250 N.pl3     1 NAP601      0.0000 
     19 N1A        27.1570  -46.1880  -43.0100 N.ar      1 NAP601      0.0000 
     20 C2A        26.0890  -46.2080  -42.1670 C.ar      1 NAP601      0.0000 
     21 N3A        26.1740  -46.8100  -40.9520 N.ar      1 NAP601      0.0000 
     22 C4A        27.3450  -47.4100  -40.5330 C.ar      1 NAP601      0.0000 
     23 O3         29.2440  -46.3400  -32.6680 O.3       1 NAP601      0.0000 
     24 PN         28.9990  -47.6720  -31.7930 P.3       1 NAP601      0.0000 
     25 O1N        29.0370  -48.7700  -32.8250 O.co2     1 NAP601      0.0000 
     26 O2N        27.7920  -47.5070  -30.9100 O.co2     1 NAP601      0.0000 
     27 O5D        30.2890  -47.7680  -30.8670 O.3       1 NAP601      0.0000 
     28 C5D        31.5780  -47.9160  -31.4310 C.3       1 NAP601      0.0000 
     29 C4D        32.2200  -49.1780  -30.8710 C.3       1 NAP601      0.0000 
     30 O4D        32.5850  -49.0420  -29.4900 O.3       1 NAP601      0.0000 
     31 C3D        31.2830  -50.3700  -30.9370 C.3       1 NAP601      0.0000 
     32 O3D        32.0920  -51.4910  -31.2460 O.3       1 NAP601      0.0000 
     33 C2D        30.7070  -50.5120  -29.5480 C.3       1 NAP601      0.0000 
     34 O2D        30.3420  -51.8530  -29.2110 O.3       1 NAP601      0.0000 
     35 C1D        31.8600  -50.0070  -28.7000 C.3       1 NAP601      0.0000 
     36 N1N        31.3340  -49.4540  -27.4450 N.pl3     1 NAP601      0.0000 
     37 C2N        31.0530  -50.3150  -26.4560 C.ar      1 NAP601      0.0000 
     38 C3N        30.5460  -49.8780  -25.2380 C.ar      1 NAP601      0.0000 
     39 C7N        30.2700  -50.8860  -24.1580 C.2       1 NAP601      0.0000 
     40 O7N        30.6360  -52.0280  -24.3230 O.2       1 NAP601      0.0000 
     41 N7N        29.6640  -50.5620  -23.0240 N.am      1 NAP601      0.0000 
     42 C4N        30.3420  -48.5140  -25.0550 C.ar      1 NAP601      0.0000 
     43 C5N        30.6400  -47.6370  -26.0890 C.ar      1 NAP601      0.0000 
     44 C6N        31.1340  -48.1320  -27.2940 C.ar      1 NAP601      0.0000 
     45 P2B        26.8110  -51.9800  -37.3520 P.3       1 NAP601      0.0000 
     46 O1X        25.8530  -52.0380  -36.1810 O.co2     1 NAP601      0.0000 
     47 O2X        28.2540  -52.1430  -36.9640 O.co2     1 NAP601      0.0000 
     48 O3X        26.2990  -52.7220  -38.5650 O.co2     1 NAP601      0.0000 
@<TRIPOS>BOND
     1    1    2 ar   
     2    1    3 ar   
     3    1    4 1    
     4    1   23 1    
     5    4    5 1    
     6    5    6 1    
     7    6    7 1    
     8    6    8 1    
     9    7   12 1    
    10    8    9 1    
    11    8   10 1    
    12   10   11 1    
    13   10   12 1    
    14   11   45 1    
    15   12   13 1    
    16   13   14 1    
    17   13   22 1    
    18   14   15 2    
    19   15   16 1    
    20   16   17 ar   
    21   16   22 ar   
    22   17   18 1    
    23   17   19 ar   
    24   19   20 ar   
    25   20   21 ar   
    26   21   22 ar   
    27   23   24 1    
    28   24   25 ar   
    29   24   26 ar   
    30   24   27 1    
    31   27   28 1    
    32   28   29 1    
    33   29   30 1    
    34   29   31 1    
    35   30   35 1    
    36   31   32 1    
    37   31   33 1    
    38   33   34 1    
    39   33   35 1    
    40   35   36 1    
    41   36   37 ar   
    42   36   44 ar   
    43   37   38 ar   
    44   38   39 1    
    45   38   42 ar   
    46   39   40 2    
    47   39   41 am   
    48   42   43 ar   
    49   43   44 ar   
    50   45   46 ar   
    51   45   47 ar   
    52   45   48 ar   
@<TRIPOS>SUBSTRUCTURE
     1 NAP601      1 GROUP   
@<TRIPOS>SET
ATOM$ORANGE STATIC     ATOMS   COLORGROUP SYSTEM 
42 5 5 6 6 8 8 10 10 12 12 14 14 16 16 17 17 20 \
20 22 22 28 28 29 29 31 31 33 33 35 35 37 37 38 38 39 \
39 42 42 43 43 44 44 

