#    Name: 6e07_5_NAP_CAVITY_N1_ALL
#    Modification time : Fri May 22 19:26:53 2020

@<TRIPOS>MOLECULE
6e07_5_NAP_CAVITY_N1_ALL
  113     0     7     0     0
SMALL
NO_CHARGES


@<TRIPOS>ATOM
      1 OG        -16.5000   -2.9900   26.5400 O.3       1 SER1        0.0000 
      2 OG        -17.4500   -1.9900   25.9600 O.3       1 SER1        0.0000 
      3 OG        -14.9000   -1.6200   26.2900 O.3       1 SER1        0.0000 
      4 OG        -17.7200    4.0100   21.2300 O.3       1 SER1        0.0000 
      5 OG        -17.1000    5.0800   22.0800 O.3       1 SER1        0.0000 
      6 N         -13.8700   -6.5400   23.8000 N.am      2 ALA2        0.0000 
      7 N         -11.9200   -5.9400   21.6100 N.am      2 ALA2        0.0000 
      8 O          -8.7200   -3.1900   21.1100 O.2       2 ALA2        0.0000 
      9 O          -9.6800   -2.1800   20.5400 O.2       2 ALA2        0.0000 
     10 O          -8.0800   -0.8100   20.2900 O.2       2 ALA2        0.0000 
     11 N          -9.0300    0.2000   19.7200 N.am      2 ALA2        0.0000 
     12 N          -8.4100    1.2700   20.5600 N.am      2 ALA2        0.0000 
     13 OD1       -17.6600   -1.2100   19.8300 O.co2     3 ASP3        0.0000 
     14 OD1       -16.6900   -0.9100   18.7400 O.co2     3 ASP3        0.0000 
     15 OD1       -19.6000   -0.5100   20.3500 O.co2     3 ASP3        0.0000 
     16 OD1       -18.6200   -0.2100   19.2600 O.co2     3 ASP3        0.0000 
     17 OD1       -19.0000   -0.7500   22.8700 O.co2     3 ASP3        0.0000 
     18 OD1       -18.0200   -0.4500   21.7800 O.co2     3 ASP3        0.0000 
     19 OD1       -18.9800    0.5600   21.2000 O.co2     3 ASP3        0.0000 
     20 OD1       -18.0000    0.8600   20.1100 O.co2     3 ASP3        0.0000 
     21 OD1       -17.0200    1.1600   19.0100 O.co2     3 ASP3        0.0000 
     22 OD1       -16.0400    1.4700   17.9100 O.co2     3 ASP3        0.0000 
     23 OD1       -19.9300    1.5600   20.6300 O.co2     3 ASP3        0.0000 
     24 OD1       -18.9500    1.8700   19.5300 O.co2     3 ASP3        0.0000 
     25 OD1       -17.9800    2.1700   18.4400 O.co2     3 ASP3        0.0000 
     26 OD1       -19.9100    2.8700   18.9600 O.co2     3 ASP3        0.0000 
     27 OD1       -18.9300    3.1700   17.8600 O.co2     3 ASP3        0.0000 
     28 OD1       -11.6300   -2.7900   22.7300 O.co2     3 ASP3        0.0000 
     29 OD1       -10.6500   -2.4900   21.6300 O.co2     3 ASP3        0.0000 
     30 OD1       -13.5700   -2.0900   23.2500 O.co2     3 ASP3        0.0000 
     31 OD1       -12.5900   -1.7800   22.1600 O.co2     3 ASP3        0.0000 
     32 OD1       -15.5000   -1.3800   23.7700 O.co2     3 ASP3        0.0000 
     33 OD1       -17.4300   -0.6800   24.2900 O.co2     3 ASP3        0.0000 
     34 OD1       -16.4500   -0.3800   23.2000 O.co2     3 ASP3        0.0000 
     35 OD1       -15.4700   -0.0800   22.1000 O.co2     3 ASP3        0.0000 
     36 OD1       -17.4100    0.6300   22.6200 O.co2     3 ASP3        0.0000 
     37 OD1       -18.3600    1.6300   22.0500 O.co2     3 ASP3        0.0000 
     38 OD1       -19.3100    2.6400   21.4800 O.co2     3 ASP3        0.0000 
     39 OD1       -17.3600    3.2400   19.2800 O.co2     3 ASP3        0.0000 
     40 OD1        -9.0600   -1.1100   21.3900 O.co2     3 ASP3        0.0000 
     41 OD1       -13.9200   -1.3200   25.2000 O.co2     3 ASP3        0.0000 
     42 OD1       -12.9500   -1.0100   24.1000 O.co2     3 ASP3        0.0000 
     43 OD1       -10.9900   -0.4100   21.9100 O.co2     3 ASP3        0.0000 
     44 OD1       -15.8600   -0.6100   25.7200 O.co2     3 ASP3        0.0000 
     45 OD1       -14.8800   -0.3100   24.6200 O.co2     3 ASP3        0.0000 
     46 OD1       -13.9000   -0.0100   23.5200 O.co2     3 ASP3        0.0000 
     47 OD1       -12.9200    0.2900   22.4300 O.co2     3 ASP3        0.0000 
     48 OD1       -13.8800    1.3000   21.8500 O.co2     3 ASP3        0.0000 
     49 OD1       -15.8100    2.0000   22.3800 O.co2     3 ASP3        0.0000 
     50 OD1       -14.8300    2.3000   21.2800 O.co2     3 ASP3        0.0000 
     51 OD1       -16.7600    3.0100   21.8000 O.co2     3 ASP3        0.0000 
     52 OD1       -15.7800    3.3100   20.7100 O.co2     3 ASP3        0.0000 
     53 OD1        -8.4400   -0.0400   22.2300 O.co2     3 ASP3        0.0000 
     54 OD1       -15.1700    4.3800   21.5500 O.co2     3 ASP3        0.0000 
     55 NZ        -20.5700   -0.8200   21.4500 N.4       4 LYS4        0.0000 
     56 NZ         -8.1000   -2.1200   21.9600 N.4       4 LYS4        0.0000 
     57 NZ        -10.0100   -0.1100   20.8100 N.4       4 LYS4        0.0000 
     58 NZ        -11.9400    0.6000   21.3300 N.4       4 LYS4        0.0000 
     59 NZ        -17.7400    2.7000   22.9000 N.4       4 LYS4        0.0000 
     60 NZ        -18.7000    3.7100   22.3200 N.4       4 LYS4        0.0000 
     61 NZ         -7.4600    0.2600   21.1400 N.4       4 LYS4        0.0000 
     62 CZ        -14.2300   -5.7700   25.7400 C.ar      5 PHE5        0.0000 
     63 CZ        -13.2300   -4.1600   22.9800 C.ar      5 PHE5        0.0000 
     64 CZ        -12.2500   -3.8600   21.8800 C.ar      5 PHE5        0.0000 
     65 CZ        -14.1800   -3.1600   22.4000 C.ar      5 PHE5        0.0000 
     66 CZ        -13.2100   -2.8600   21.3100 C.ar      5 PHE5        0.0000 
     67 CZ        -15.1400   -2.1500   21.8300 C.ar      5 PHE5        0.0000 
     68 CZ        -15.1100   -0.8500   20.1600 C.ar      5 PHE5        0.0000 
     69 CZ        -15.5500   -4.0000   27.1100 C.ar      5 PHE5        0.0000 
     70 CZ        -14.5700   -3.7000   26.0200 C.ar      5 PHE5        0.0000 
     71 CZ        -13.5900   -3.3900   24.9200 C.ar      5 PHE5        0.0000 
     72 CZ        -12.6100   -3.0900   23.8300 C.ar      5 PHE5        0.0000 
     73 CZ        -14.5400   -2.3900   24.3500 C.ar      5 PHE5        0.0000 
     74 CZ        -11.6100   -1.4800   21.0600 C.ar      5 PHE5        0.0000 
     75 CZ        -13.5400   -0.7800   21.5800 C.ar      5 PHE5        0.0000 
     76 CZ        -14.4900    0.2300   21.0100 C.ar      5 PHE5        0.0000 
     77 CZ        -13.5200    0.5300   19.9100 C.ar      5 PHE5        0.0000 
     78 CZ        -14.4700    1.5300   19.3400 C.ar      5 PHE5        0.0000 
     79 CZ        -15.4200    2.5400   18.7600 C.ar      5 PHE5        0.0000 
     80 CZ        -13.9500   -2.6200   26.8700 C.ar      5 PHE5        0.0000 
     81 CZ        -12.9000    1.6000   20.7600 C.ar      5 PHE5        0.0000 
     82 CZ        -14.8100    3.6100   19.6100 C.ar      5 PHE5        0.0000 
     83 CA        -12.8700   -4.9300   21.0300 C.3       6 GLY6        0.0000 
     84 CA        -11.3000   -4.8700   22.4600 C.3       6 GLY6        0.0000 
     85 CA        -10.3200   -4.5600   21.3600 C.3       6 GLY6        0.0000 
     86 CA        -11.2700   -3.5600   20.7900 C.3       6 GLY6        0.0000 
     87 CA         -9.7000   -3.4900   22.2100 C.3       6 GLY6        0.0000 
     88 CA        -16.3800    3.5400   18.1900 C.3       6 GLY6        0.0000 
     89 CA        -19.2900    3.9400   19.8100 C.3       6 GLY6        0.0000 
     90 CA        -18.3100    4.2500   18.7100 C.3       6 GLY6        0.0000 
     91 CA         -7.1200   -1.8100   20.8600 C.3       6 GLY6        0.0000 
     92 CA        -16.7400    4.3100   20.1300 C.3       6 GLY6        0.0000 
     93 CA        -15.7600    4.6200   19.0400 C.3       6 GLY6        0.0000 
     94 CA        -17.6900    5.3200   19.5600 C.3       6 GLY6        0.0000 
     95 CA         -6.5100   -0.7400   21.7100 C.3       6 GLY6        0.0000 
     96 CA         -5.5300   -0.4400   20.6200 C.3       6 GLY6        0.0000 
     97 CA         -6.4800    0.5600   20.0400 C.3       6 GLY6        0.0000 
     98 CA        -16.1200    5.3800   20.9800 C.3       6 GLY6        0.0000 
     99 DU        -18.6400   -1.5200   20.9300 H         7 CUB7        0.0000 
    100 DU        -15.1900   -4.7700   25.1700 H         7 CUB7        0.0000 
    101 DU        -15.1600   -3.4600   23.5000 H         7 CUB7        0.0000 
    102 DU        -17.0700   -1.4500   22.3500 H         7 CUB7        0.0000 
    103 DU        -16.0900   -1.1500   21.2500 H         7 CUB7        0.0000 
    104 DU        -17.0500   -0.1400   20.6800 H         7 CUB7        0.0000 
    105 DU        -16.0700    0.1600   19.5800 H         7 CUB7        0.0000 
    106 DU        -15.5200   -2.6900   25.4400 H         7 CUB7        0.0000 
    107 DU        -16.4800   -1.6900   24.8700 H         7 CUB7        0.0000 
    108 DU        -14.5200   -1.0800   22.6800 H         7 CUB7        0.0000 
    109 DU        -16.4300    0.9300   21.5300 H         7 CUB7        0.0000 
    110 DU        -15.4500    1.2300   20.4300 H         7 CUB7        0.0000 
    111 DU        -17.3800    1.9300   20.9500 H         7 CUB7        0.0000 
    112 DU        -16.4000    2.2400   19.8600 H         7 CUB7        0.0000 
    113 DU        -18.3400    2.9400   20.3800 H         7 CUB7        0.0000 
@<TRIPOS>BOND
@<TRIPOS>SUBSTRUCTURE
     1 SER1        1 GROUP   
     2 ALA2        6 GROUP   
     3 ASP3       13 GROUP   
     4 LYS4       55 GROUP   
     5 PHE5       62 GROUP   
     6 GLY6       83 GROUP   
     7 CUB7       99 GROUP   
@<TRIPOS>SET

