#    Name: 6e07_2_NAP_CAVITY_N1_4
#    Modification time : Fri May 22 19:26:26 2020

@<TRIPOS>MOLECULE
6e07_2_NAP_CAVITY_N1_4
  112     0     7     0     0
SMALL
NO_CHARGES


@<TRIPOS>ATOM
      1 OG         18.9200   42.6700   35.8600 O.3       1 SER1        0.0000 
      2 OG         20.8700   43.2800   33.6700 O.3       1 SER1        0.0000 
      3 OG         20.9000   44.5900   32.0000 O.3       1 SER1        0.0000 
      4 OG         20.5100   44.0500   35.6100 O.3       1 SER1        0.0000 
      5 OG         21.4900   44.3500   34.5200 O.3       1 SER1        0.0000 
      6 OG         19.5600   45.0500   35.0400 O.3       1 SER1        0.0000 
      7 OG         18.6000   46.0600   34.4700 O.3       1 SER1        0.0000 
      8 N          23.0100   41.8000   39.2800 N.am      2 ALA2        0.0000 
      9 N          23.9900   42.1000   38.1900 N.am      2 ALA2        0.0000 
     10 OD1        19.8200   39.0500   39.7800 O.co2     3 ASP3        0.0000 
     11 OD1        18.8700   40.0600   39.2000 O.co2     3 ASP3        0.0000 
     12 OD1        16.9300   40.7600   39.7300 O.co2     3 ASP3        0.0000 
     13 OD1        19.8700   41.6700   36.4400 O.co2     3 ASP3        0.0000 
     14 OD1        21.4200   40.4300   39.5300 O.co2     3 ASP3        0.0000 
     15 OD1        20.4600   41.4300   38.9600 O.co2     3 ASP3        0.0000 
     16 OD1        18.5300   42.1400   39.4800 O.co2     3 ASP3        0.0000 
     17 OD1        19.5100   42.4400   38.3800 O.co2     3 ASP3        0.0000 
     18 OD1        15.6200   42.5300   41.0900 O.co2     3 ASP3        0.0000 
     19 OD1        16.6000   42.8400   40.0000 O.co2     3 ASP3        0.0000 
     20 OD1        17.5800   43.1400   38.9000 O.co2     3 ASP3        0.0000 
     21 OD1        18.5600   43.4400   37.8100 O.co2     3 ASP3        0.0000 
     22 OD1        19.5300   43.7500   36.7100 O.co2     3 ASP3        0.0000 
     23 OD1        14.6700   43.5400   40.5200 O.co2     3 ASP3        0.0000 
     24 OD1        18.5800   44.7500   36.1400 O.co2     3 ASP3        0.0000 
     25 OD1        19.5800   46.3600   33.3700 O.co2     3 ASP3        0.0000 
     26 OD1        17.6500   47.0600   33.8900 O.co2     3 ASP3        0.0000 
     27 OD1        18.2000   44.2100   39.7500 O.co2     3 ASP3        0.0000 
     28 OD1        19.1700   44.5100   38.6500 O.co2     3 ASP3        0.0000 
     29 OD1        16.2600   44.9100   40.2700 O.co2     3 ASP3        0.0000 
     30 OD1        17.2400   45.2200   39.1800 O.co2     3 ASP3        0.0000 
     31 OD1        18.2200   45.5200   38.0800 O.co2     3 ASP3        0.0000 
     32 OD1        19.2000   45.8200   36.9800 O.co2     3 ASP3        0.0000 
     33 OD1        15.3100   45.9200   39.7000 O.co2     3 ASP3        0.0000 
     34 OD1        18.2400   46.8300   36.4100 O.co2     3 ASP3        0.0000 
     35 OD1        19.2500   48.4400   33.6400 O.co2     3 ASP3        0.0000 
     36 OD1        18.2900   49.4400   33.0700 O.co2     3 ASP3        0.0000 
     37 OD1        16.8300   43.3700   44.4600 O.co2     3 ASP3        0.0000 
     38 OD1        17.8100   43.6700   43.3600 O.co2     3 ASP3        0.0000 
     39 OD1        15.8800   44.3800   43.8900 O.co2     3 ASP3        0.0000 
     40 OD1        16.8600   44.6800   42.7900 O.co2     3 ASP3        0.0000 
     41 OD1        15.9000   45.6800   42.2200 O.co2     3 ASP3        0.0000 
     42 OD1        16.8800   45.9900   41.1200 O.co2     3 ASP3        0.0000 
     43 OD1        17.8600   46.2900   40.0200 O.co2     3 ASP3        0.0000 
     44 OD1        18.8400   46.5900   38.9300 O.co2     3 ASP3        0.0000 
     45 OD1        15.9300   46.9900   40.5500 O.co2     3 ASP3        0.0000 
     46 OD1        18.4100   43.4400   45.8800 O.co2     3 ASP3        0.0000 
     47 OD1        18.4300   44.7500   44.2100 O.co2     3 ASP3        0.0000 
     48 OD1        19.4100   45.0500   43.1200 O.co2     3 ASP3        0.0000 
     49 OD1        18.4500   46.0500   42.5400 O.co2     3 ASP3        0.0000 
     50 OD1        17.5000   47.0600   41.9700 O.co2     3 ASP3        0.0000 
     51 NZ         17.6300   45.7600   35.5600 N.4       4 LYS4        0.0000 
     52 NZ         18.8900   49.2100   35.5900 N.4       4 LYS4        0.0000 
     53 NZ         17.9300   50.2100   35.0100 N.4       4 LYS4        0.0000 
     54 NZ         18.9100   50.5100   33.9200 N.4       4 LYS4        0.0000 
     55 CZ         17.8900   39.7600   40.3000 C.ar      5 PHE5        0.0000 
     56 CZ         20.8500   41.9700   35.3400 C.ar      5 PHE5        0.0000 
     57 CZ         21.8500   43.5800   32.5700 C.ar      5 PHE5        0.0000 
     58 CZ         20.4400   40.1300   40.6300 C.ar      5 PHE5        0.0000 
     59 CZ         22.4000   40.7300   38.4300 C.ar      5 PHE5        0.0000 
     60 CZ         18.5100   40.8300   41.1500 C.ar      5 PHE5        0.0000 
     61 CZ         19.4900   41.1300   40.0500 C.ar      5 PHE5        0.0000 
     62 CZ         21.4400   41.7400   37.8600 C.ar      5 PHE5        0.0000 
     63 CZ         16.5700   41.5300   41.6700 C.ar      5 PHE5        0.0000 
     64 CZ         17.5500   41.8300   40.5700 C.ar      5 PHE5        0.0000 
     65 CZ         21.4700   43.0400   36.1900 C.ar      5 PHE5        0.0000 
     66 CZ         22.4500   43.3500   35.0900 C.ar      5 PHE5        0.0000 
     67 CZ         14.6400   42.2300   42.1900 C.ar      5 PHE5        0.0000 
     68 CZ         21.5200   45.6600   32.8500 C.ar      5 PHE5        0.0000 
     69 CZ         22.0400   41.5000   40.3800 C.ar      5 PHE5        0.0000 
     70 CZ         18.1500   41.6000   43.0900 C.ar      5 PHE5        0.0000 
     71 CZ         20.1000   42.2000   40.9000 C.ar      5 PHE5        0.0000 
     72 CZ         21.0800   42.5000   39.8000 C.ar      5 PHE5        0.0000 
     73 CZ         23.0400   43.1100   37.6100 C.ar      5 PHE5        0.0000 
     74 CZ         16.2100   42.3000   43.6100 C.ar      5 PHE5        0.0000 
     75 CZ         17.1900   42.6000   42.5200 C.ar      5 PHE5        0.0000 
     76 CZ         18.1700   42.9000   41.4200 C.ar      5 PHE5        0.0000 
     77 CZ         19.1500   43.2100   40.3200 C.ar      5 PHE5        0.0000 
     78 CZ         17.7900   42.3700   45.0400 C.ar      5 PHE5        0.0000 
     79 CZ         18.7700   42.6700   43.9400 C.ar      5 PHE5        0.0000 
     80 CZ         21.7000   43.5800   40.6500 C.ar      5 PHE5        0.0000 
     81 CZ         18.7900   43.9800   42.2700 C.ar      5 PHE5        0.0000 
     82 CZ         19.7700   44.2800   41.1700 C.ar      5 PHE5        0.0000 
     83 CZ         19.3800   43.7400   44.7900 C.ar      5 PHE5        0.0000 
     84 CZ         20.3600   44.0400   43.6900 C.ar      5 PHE5        0.0000 
     85 CA         13.0700   42.1700   40.7700 C.3       6 GLY6        0.0000 
     86 CA         23.4200   43.6500   34.0000 C.3       6 GLY6        0.0000 
     87 CA         22.4700   44.6500   33.4200 C.3       6 GLY6        0.0000 
     88 CA         13.6900   43.2400   41.6200 C.3       6 GLY6        0.0000 
     89 CA         25.0000   43.7100   35.4200 C.3       6 GLY6        0.0000 
     90 CA         24.0400   44.7200   34.8500 C.3       6 GLY6        0.0000 
     91 CA         15.2600   43.3000   43.0400 C.3       6 GLY6        0.0000 
     92 CA         14.3100   44.3100   42.4600 C.3       6 GLY6        0.0000 
     93 CA         18.2700   48.1300   34.7400 C.3       6 GLY6        0.0000 
     94 CA         17.3100   49.1400   34.1700 C.3       6 GLY6        0.0000 
     95 CA         24.5900   41.8700   40.7000 C.3       6 GLY6        0.0000 
     96 DU         20.4900   42.7400   37.2900 H         7 CUB7        0.0000 
     97 DU         22.0600   42.8100   38.7100 H         7 CUB7        0.0000 
     98 DU         20.1300   43.5100   39.2300 H         7 CUB7        0.0000 
     99 DU         21.1100   43.8100   38.1300 H         7 CUB7        0.0000 
    100 DU         23.0600   44.4200   35.9400 H         7 CUB7        0.0000 
    101 DU         16.2400   43.6100   41.9400 H         7 CUB7        0.0000 
    102 DU         17.2200   43.9100   40.8500 H         7 CUB7        0.0000 
    103 DU         20.1500   44.8200   37.5600 H         7 CUB7        0.0000 
    104 DU         21.1300   45.1200   36.4600 H         7 CUB7        0.0000 
    105 DU         22.1100   45.4200   35.3700 H         7 CUB7        0.0000 
    106 DU         15.2800   44.6100   41.3700 H         7 CUB7        0.0000 
    107 DU         20.1800   46.1200   35.8900 H         7 CUB7        0.0000 
    108 DU         19.2200   47.1300   35.3100 H         7 CUB7        0.0000 
    109 DU         20.2000   47.4300   34.2200 H         7 CUB7        0.0000 
    110 DU         17.8400   44.9800   41.6900 H         7 CUB7        0.0000 
    111 DU         18.8100   45.2800   40.6000 H         7 CUB7        0.0000 
    112 DU         19.7900   45.5900   39.5000 H         7 CUB7        0.0000 
@<TRIPOS>BOND
@<TRIPOS>SUBSTRUCTURE
     1 SER1        1 GROUP   
     2 ALA2        8 GROUP   
     3 ASP3       10 GROUP   
     4 LYS4       51 GROUP   
     5 PHE5       55 GROUP   
     6 GLY6       85 GROUP   
     7 CUB7       96 GROUP   
@<TRIPOS>SET

