#    Name: 6e07_7_NAP_CAVITY_N1_12
#    Modification time : Fri May 22 19:27:23 2020

@<TRIPOS>MOLECULE
6e07_7_NAP_CAVITY_N1_12
  119     0     7     0     0
SMALL
NO_CHARGES


@<TRIPOS>ATOM
      1 OG         27.6800  -50.0100  -31.1700 O.3       1 SER1        0.0000 
      2 OG         30.2300  -49.6400  -30.8500 O.3       1 SER1        0.0000 
      3 OG         29.2700  -48.6300  -31.4200 O.3       1 SER1        0.0000 
      4 OG         32.2300  -46.4200  -36.3800 O.3       1 SER1        0.0000 
      5 OG         30.8500  -48.5700  -30.0000 O.3       1 SER1        0.0000 
      6 OG         29.8900  -47.5600  -30.5700 O.3       1 SER1        0.0000 
      7 N          25.3700  -45.1400  -46.2600 N.am      2 ALA2        0.0000 
      8 N          25.0100  -44.3700  -44.3100 N.am      2 ALA2        0.0000 
      9 N          25.9900  -44.0700  -45.4100 N.am      2 ALA2        0.0000 
     10 N          28.1800  -42.9300  -43.1400 N.am      2 ALA2        0.0000 
     11 O          26.2500  -42.2300  -42.6200 O.2       2 ALA2        0.0000 
     12 N          27.2300  -41.9300  -43.7100 N.am      2 ALA2        0.0000 
     13 N          28.2100  -41.6200  -44.8100 N.am      2 ALA2        0.0000 
     14 N          31.8700  -45.6500  -34.4400 N.am      2 ALA2        0.0000 
     15 N          32.8500  -45.3500  -35.5300 N.am      2 ALA2        0.0000 
     16 OD1        27.7800  -52.6200  -35.9100 O.co2     3 ASP3        0.0000 
     17 OD1        26.8200  -51.6100  -36.4800 O.co2     3 ASP3        0.0000 
     18 OD1        27.8000  -51.3100  -37.5800 O.co2     3 ASP3        0.0000 
     19 OD1        24.8900  -50.9100  -35.9600 O.co2     3 ASP3        0.0000 
     20 OD1        25.8700  -50.6100  -37.0600 O.co2     3 ASP3        0.0000 
     21 OD1        26.8500  -50.3000  -38.1500 O.co2     3 ASP3        0.0000 
     22 OD1        24.9200  -49.6000  -37.6300 O.co2     3 ASP3        0.0000 
     23 OD1        25.8900  -49.3000  -38.7300 O.co2     3 ASP3        0.0000 
     24 OD1        28.8300  -48.3900  -42.0200 O.co2     3 ASP3        0.0000 
     25 OD1        22.9800  -48.9000  -37.1100 O.co2     3 ASP3        0.0000 
     26 OD1        23.9600  -48.6000  -38.2100 O.co2     3 ASP3        0.0000 
     27 OD1        25.9200  -47.9900  -40.4000 O.co2     3 ASP3        0.0000 
     28 OD1        26.9000  -47.6900  -41.4900 O.co2     3 ASP3        0.0000 
     29 OD1        28.4000  -51.5500  -35.0600 O.co2     3 ASP3        0.0000 
     30 OD1        27.4400  -50.5400  -35.6400 O.co2     3 ASP3        0.0000 
     31 OD1        25.5100  -49.8400  -35.1100 O.co2     3 ASP3        0.0000 
     32 OD1        28.4400  -48.9300  -38.4000 O.co2     3 ASP3        0.0000 
     33 OD1        24.5600  -48.8300  -35.6900 O.co2     3 ASP3        0.0000 
     34 OD1        28.0400  -50.7800  -33.1200 O.co2     3 ASP3        0.0000 
     35 OD1        29.0100  -50.4700  -34.2100 O.co2     3 ASP3        0.0000 
     36 OD1        27.0800  -49.7700  -33.6900 O.co2     3 ASP3        0.0000 
     37 OD1        28.0600  -49.4700  -34.7900 O.co2     3 ASP3        0.0000 
     38 OD1        27.1100  -48.4600  -35.3600 O.co2     3 ASP3        0.0000 
     39 OD1        26.1500  -47.4600  -35.9400 O.co2     3 ASP3        0.0000 
     40 OD1        28.6500  -49.7000  -32.2700 O.co2     3 ASP3        0.0000 
     41 OD1        28.6800  -48.4000  -33.9400 O.co2     3 ASP3        0.0000 
     42 OD1        26.7700  -46.3900  -35.0900 O.co2     3 ASP3        0.0000 
     43 OD1        28.3200  -47.6300  -32.0000 O.co2     3 ASP3        0.0000 
     44 OD1        28.3400  -46.3200  -33.6700 O.co2     3 ASP3        0.0000 
     45 OD1        27.3900  -45.3200  -34.2400 O.co2     3 ASP3        0.0000 
     46 OD1        29.9400  -44.9500  -33.9100 O.co2     3 ASP3        0.0000 
     47 NZ         27.8800  -47.3900  -42.5900 N.4       4 LYS4        0.0000 
     48 NZ         28.8500  -47.0800  -43.6900 N.4       4 LYS4        0.0000 
     49 NZ         25.9400  -46.6800  -42.0700 N.4       4 LYS4        0.0000 
     50 NZ         27.9000  -46.0800  -44.2600 N.4       4 LYS4        0.0000 
     51 CZ         29.4200  -48.6300  -39.5000 C.ar      5 PHE5        0.0000 
     52 CZ         27.4900  -47.9300  -38.9800 C.ar      5 PHE5        0.0000 
     53 CZ         28.4700  -47.6200  -40.0700 C.ar      5 PHE5        0.0000 
     54 CZ         29.4500  -47.3200  -41.1700 C.ar      5 PHE5        0.0000 
     55 CZ         24.5800  -47.5300  -37.3600 C.ar      5 PHE5        0.0000 
     56 CZ         25.5600  -47.2200  -38.4500 C.ar      5 PHE5        0.0000 
     57 CZ         26.5400  -46.9200  -39.5500 C.ar      5 PHE5        0.0000 
     58 CZ         27.5200  -46.6200  -40.6500 C.ar      5 PHE5        0.0000 
     59 CZ         28.4900  -46.3200  -41.7400 C.ar      5 PHE5        0.0000 
     60 CZ         27.5400  -45.3100  -42.3200 C.ar      5 PHE5        0.0000 
     61 CZ         28.5200  -45.0100  -43.4100 C.ar      5 PHE5        0.0000 
     62 CZ         27.5600  -44.0000  -43.9900 C.ar      5 PHE5        0.0000 
     63 CZ         24.6500  -43.6000  -42.3700 C.ar      5 PHE5        0.0000 
     64 CZ         28.0800  -48.1600  -36.4600 C.ar      5 PHE5        0.0000 
     65 CZ         29.0600  -47.8600  -37.5500 C.ar      5 PHE5        0.0000 
     66 CZ         27.1300  -47.1600  -37.0300 C.ar      5 PHE5        0.0000 
     67 CZ         25.2000  -46.4500  -36.5100 C.ar      5 PHE5        0.0000 
     68 CZ         26.1800  -46.1500  -37.6100 C.ar      5 PHE5        0.0000 
     69 CZ         30.6400  -47.7900  -36.1300 C.ar      5 PHE5        0.0000 
     70 CZ         28.7000  -47.0900  -35.6100 C.ar      5 PHE5        0.0000 
     71 CZ         27.7500  -46.0800  -36.1800 C.ar      5 PHE5        0.0000 
     72 CZ         25.8200  -45.3800  -35.6600 C.ar      5 PHE5        0.0000 
     73 CZ         31.2500  -46.7200  -35.2800 C.ar      5 PHE5        0.0000 
     74 CZ         29.3200  -46.0200  -34.7600 C.ar      5 PHE5        0.0000 
     75 CZ         30.3000  -45.7200  -35.8600 C.ar      5 PHE5        0.0000 
     76 CZ         28.3700  -45.0100  -35.3400 C.ar      5 PHE5        0.0000 
     77 CZ         31.8000  -49.5700  -29.4200 C.ar      5 PHE5        0.0000 
     78 CZ         31.8200  -48.2600  -31.0900 C.ar      5 PHE5        0.0000 
     79 CZ         30.8700  -47.2600  -31.6700 C.ar      5 PHE5        0.0000 
     80 CZ         28.9400  -46.5600  -31.1500 C.ar      5 PHE5        0.0000 
     81 CZ         29.9200  -46.2500  -32.2400 C.ar      5 PHE5        0.0000 
     82 CZ         30.8900  -45.9500  -33.3400 C.ar      5 PHE5        0.0000 
     83 CZ         30.9200  -44.6400  -35.0100 C.ar      5 PHE5        0.0000 
     84 CZ         31.4600  -47.4900  -29.1500 C.ar      5 PHE5        0.0000 
     85 CZ         32.4400  -47.1900  -30.2500 C.ar      5 PHE5        0.0000 
     86 CA         27.3100  -45.8400  -46.7800 C.3       6 GLY6        0.0000 
     87 CA         24.9400  -48.2900  -39.3000 C.3       6 GLY6        0.0000 
     88 CA         26.9200  -46.3800  -43.1600 C.3       6 GLY6        0.0000 
     89 CA         24.9900  -45.6800  -42.6400 C.3       6 GLY6        0.0000 
     90 CA         25.9700  -45.3800  -43.7400 C.3       6 GLY6        0.0000 
     91 CA         26.9500  -45.0700  -44.8300 C.3       6 GLY6        0.0000 
     92 CA         26.9700  -43.7700  -46.5000 C.3       6 GLY6        0.0000 
     93 CA         26.5600  -45.6100  -41.2200 C.3       6 GLY6        0.0000 
     94 CA         25.6100  -44.6100  -41.7900 C.3       6 GLY6        0.0000 
     95 CA         26.5900  -44.3100  -42.8900 C.3       6 GLY6        0.0000 
     96 CA         25.6300  -43.3000  -43.4600 C.3       6 GLY6        0.0000 
     97 CA         26.6100  -43.0000  -44.5600 C.3       6 GLY6        0.0000 
     98 CA         24.6800  -42.3000  -44.0400 C.3       6 GLY6        0.0000 
     99 CA         26.2700  -40.9200  -44.2900 C.3       6 GLY6        0.0000 
    100 CA         27.2500  -40.6200  -45.3800 C.3       6 GLY6        0.0000 
    101 CA         32.4200  -48.5000  -28.5800 C.3       6 GLY6        0.0000 
    102 CA         33.4000  -48.2000  -29.6700 C.3       6 GLY6        0.0000 
    103 CA         34.3700  -47.8900  -30.7700 C.3       6 GLY6        0.0000 
    104 DU         27.9200  -44.7700  -45.9300 H         7 CUB7        0.0000 
    105 DU         28.4200  -50.2400  -36.7300 H         7 CUB7        0.0000 
    106 DU         26.4900  -49.5400  -36.2100 H         7 CUB7        0.0000 
    107 DU         27.4700  -49.2300  -37.3100 H         7 CUB7        0.0000 
    108 DU         25.5300  -48.5300  -36.7800 H         7 CUB7        0.0000 
    109 DU         26.5100  -48.2300  -37.8800 H         7 CUB7        0.0000 
    110 DU         28.5400  -43.7000  -45.0800 H         7 CUB7        0.0000 
    111 DU         29.9900  -50.1700  -35.3100 H         7 CUB7        0.0000 
    112 DU         29.0400  -49.1700  -35.8800 H         7 CUB7        0.0000 
    113 DU         29.6300  -49.4000  -33.3600 H         7 CUB7        0.0000 
    114 DU         29.6600  -48.0900  -35.0400 H         7 CUB7        0.0000 
    115 DU         31.2100  -49.3400  -31.9400 H         7 CUB7        0.0000 
    116 DU         30.2500  -48.3300  -32.5200 H         7 CUB7        0.0000 
    117 DU         31.2300  -48.0300  -33.6100 H         7 CUB7        0.0000 
    118 DU         29.3000  -47.3300  -33.0900 H         7 CUB7        0.0000 
    119 DU         30.2800  -47.0200  -34.1900 H         7 CUB7        0.0000 
@<TRIPOS>BOND
@<TRIPOS>SUBSTRUCTURE
     1 SER1        1 GROUP   
     2 ALA2        7 GROUP   
     3 ASP3       16 GROUP   
     4 LYS4       47 GROUP   
     5 PHE5       51 GROUP   
     6 GLY6       86 GROUP   
     7 CUB7      104 GROUP   
@<TRIPOS>SET

