#    Name: 6e07_6_NAP
#    Modification time : Fri May 22 19:27:06 2020

@<TRIPOS>MOLECULE
6e07_6_NAP
   48    52     1     0     1
SMALL
NO_CHARGES


@<TRIPOS>ATOM
      1 PA         24.8570  -39.8490   -2.9380 P.3       1 NAP601      0.0000 
      2 O1A        23.3730  -40.2340   -2.9640 O.co2     1 NAP601      0.0000 
      3 O2A        25.8690  -40.5280   -2.0490 O.co2     1 NAP601      0.0000 
      4 O5B        25.0850  -38.3310   -2.3780 O.3       1 NAP601      0.0000 
      5 C5B        24.4710  -37.1660   -2.9450 C.3       1 NAP601      0.0000 
      6 C4B        24.6240  -35.9190   -2.0880 C.3       1 NAP601      0.0000 
      7 O4B        23.8360  -36.0700   -0.9230 O.3       1 NAP601      0.0000 
      8 C3B        26.0430  -35.6920   -1.6020 C.3       1 NAP601      0.0000 
      9 O3B        26.4150  -34.3450   -1.8100 O.3       1 NAP601      0.0000 
     10 C2B        26.0110  -35.9570   -0.1250 C.3       1 NAP601      0.0000 
     11 O2B        26.8160  -35.1350    0.6890 O.3       1 NAP601      0.0000 
     12 C1B        24.6050  -35.5530    0.1510 C.3       1 NAP601      0.0000 
     13 N9A        24.1250  -36.0890    1.4200 N.pl3     1 NAP601      0.0000 
     14 C8A        24.6430  -37.0780    2.1700 C.2       1 NAP601      0.0000 
     15 N7A        23.8730  -37.2680    3.2620 N.2       1 NAP601      0.0000 
     16 C5A        22.8630  -36.3960    3.1990 C.ar      1 NAP601      0.0000 
     17 C6A        21.6910  -36.0670    4.0220 C.ar      1 NAP601      0.0000 
     18 N6A        21.5140  -36.7740    5.1570 N.pl3     1 NAP601      0.0000 
     19 N1A        20.8390  -35.0790    3.6010 N.ar      1 NAP601      0.0000 
     20 C2A        21.0630  -34.3850    2.4690 C.ar      1 NAP601      0.0000 
     21 N3A        22.1280  -34.6320    1.6760 N.ar      1 NAP601      0.0000 
     22 C4A        23.0260  -35.6140    1.9790 C.ar      1 NAP601      0.0000 
     23 O3         25.2660  -39.9790   -4.5230 O.3       1 NAP601      0.0000 
     24 PN         26.7840  -39.7780   -5.0190 P.3       1 NAP601      0.0000 
     25 O1N        27.5540  -39.0880   -3.9260 O.co2     1 NAP601      0.0000 
     26 O2N        26.7260  -39.1480   -6.3690 O.co2     1 NAP601      0.0000 
     27 O5D        27.2700  -41.3200   -5.1810 O.3       1 NAP601      0.0000 
     28 C5D        27.5900  -42.2350   -4.1160 C.3       1 NAP601      0.0000 
     29 C4D        29.0470  -42.7340   -4.1420 C.3       1 NAP601      0.0000 
     30 O4D        29.3800  -43.4890   -5.3260 O.3       1 NAP601      0.0000 
     31 C3D        30.0400  -41.5900   -4.0870 C.3       1 NAP601      0.0000 
     32 O3D        31.1630  -41.9420   -3.2900 O.3       1 NAP601      0.0000 
     33 C2D        30.5420  -41.4290   -5.4910 C.3       1 NAP601      0.0000 
     34 O2D        31.8470  -40.8290   -5.4810 O.3       1 NAP601      0.0000 
     35 C1D        30.4700  -42.8580   -6.0050 C.3       1 NAP601      0.0000 
     36 N1N        30.2680  -42.8440   -7.4530 N.pl3     1 NAP601      0.0000 
     37 C2N        31.3660  -42.6860   -8.1980 C.ar      1 NAP601      0.0000 
     38 C3N        31.2770  -42.6680   -9.5770 C.ar      1 NAP601      0.0000 
     39 C7N        32.5430  -42.4430  -10.3470 C.2       1 NAP601      0.0000 
     40 O7N        33.5890  -42.3750   -9.7500 O.2       1 NAP601      0.0000 
     41 N7N        32.5650  -42.2560  -11.6470 N.am      1 NAP601      0.0000 
     42 C4N        30.0220  -42.7870  -10.1740 C.ar      1 NAP601      0.0000 
     43 C5N        28.8900  -42.9510   -9.3820 C.ar      1 NAP601      0.0000 
     44 C6N        29.0410  -42.9840   -8.0040 C.ar      1 NAP601      0.0000 
     45 P2B        28.4030  -35.0680    0.5390 P.3       1 NAP601      0.0000 
     46 O1X        28.6880  -34.2040   -0.6730 O.co2     1 NAP601      0.0000 
     47 O2X        28.7640  -36.5230    0.3280 O.co2     1 NAP601      0.0000 
     48 O3X        28.8330  -34.4470    1.8550 O.co2     1 NAP601      0.0000 
@<TRIPOS>BOND
     1   45   48 ar   
     2    1    2 ar   
     3    1    3 ar   
     4    1    4 1    
     5    1   23 1    
     6    4    5 1    
     7    5    6 1    
     8    6    7 1    
     9    6    8 1    
    10    7   12 1    
    11    8    9 1    
    12    8   10 1    
    13   10   11 1    
    14   10   12 1    
    15   11   45 1    
    16   12   13 1    
    17   13   14 1    
    18   13   22 1    
    19   14   15 2    
    20   15   16 1    
    21   16   17 ar   
    22   16   22 ar   
    23   17   18 1    
    24   17   19 ar   
    25   19   20 ar   
    26   20   21 ar   
    27   21   22 ar   
    28   23   24 1    
    29   24   25 ar   
    30   24   26 ar   
    31   24   27 1    
    32   27   28 1    
    33   28   29 1    
    34   29   30 1    
    35   29   31 1    
    36   30   35 1    
    37   31   32 1    
    38   31   33 1    
    39   33   34 1    
    40   33   35 1    
    41   35   36 1    
    42   36   37 ar   
    43   36   44 ar   
    44   37   38 ar   
    45   38   39 1    
    46   38   42 ar   
    47   39   40 2    
    48   39   41 am   
    49   42   43 ar   
    50   43   44 ar   
    51   45   46 ar   
    52   45   47 ar   
@<TRIPOS>SUBSTRUCTURE
     1 NAP601      1 GROUP   
@<TRIPOS>SET
ATOM$ORANGE STATIC     ATOMS   COLORGROUP SYSTEM 
42 5 5 6 6 8 8 10 10 12 12 14 14 16 16 17 17 20 \
20 22 22 28 28 29 29 31 31 33 33 35 35 37 37 38 38 39 \
39 42 42 43 43 44 44 

