#    Name: 6e07_4_NAP_CAVITY_N1_ALL
#    Modification time : Fri May 22 19:26:44 2020

@<TRIPOS>MOLECULE
6e07_4_NAP_CAVITY_N1_ALL
   81     0     7     0     0
SMALL
NO_CHARGES


@<TRIPOS>ATOM
      1 OG         15.9900   34.1800    6.2700 O.3       1 SER1        0.0000 
      2 OG         16.9700   34.4800    5.1800 O.3       1 SER1        0.0000 
      3 OG         19.1100   33.0100   10.7900 O.3       1 SER1        0.0000 
      4 OG         20.0900   33.3100    9.6900 O.3       1 SER1        0.0000 
      5 OG         20.7100   34.3800   10.5400 O.3       1 SER1        0.0000 
      6 N          16.0200   35.4900    4.6000 N.am      2 ALA2        0.0000 
      7 N          16.6100   35.2500    7.1200 N.am      2 ALA2        0.0000 
      8 OD1        17.3600   27.1800    3.5100 O.co2     3 ASP3        0.0000 
      9 OD1        18.9100   25.9400    6.6000 O.co2     3 ASP3        0.0000 
     10 OD1        18.9300   27.2500    4.9300 O.co2     3 ASP3        0.0000 
     11 OD1        17.9800   28.2500    4.3600 O.co2     3 ASP3        0.0000 
     12 OD1        18.9600   28.5600    3.2600 O.co2     3 ASP3        0.0000 
     13 OD1        20.4800   26.0100    8.0200 O.co2     3 ASP3        0.0000 
     14 OD1        18.5500   26.7100    8.5400 O.co2     3 ASP3        0.0000 
     15 OD1        19.5200   27.0100    7.4500 O.co2     3 ASP3        0.0000 
     16 OD1        20.5000   27.3200    6.3500 O.co2     3 ASP3        0.0000 
     17 OD1        19.5500   28.3200    5.7800 O.co2     3 ASP3        0.0000 
     18 OD1        20.5300   28.6200    4.6800 O.co2     3 ASP3        0.0000 
     19 OD1        20.1400   28.0900    8.3000 O.co2     3 ASP3        0.0000 
     20 OD1        21.1200   28.3900    7.2000 O.co2     3 ASP3        0.0000 
     21 OD1        18.2100   28.7900    8.8200 O.co2     3 ASP3        0.0000 
     22 OD1        19.1900   29.0900    7.7200 O.co2     3 ASP3        0.0000 
     23 OD1        16.2800   29.4900    9.3400 O.co2     3 ASP3        0.0000 
     24 OD1        17.2600   29.7900    8.2400 O.co2     3 ASP3        0.0000 
     25 OD1        21.7400   29.4600    8.0500 O.co2     3 ASP3        0.0000 
     26 OD1        19.8100   30.1600    8.5700 O.co2     3 ASP3        0.0000 
     27 OD1        20.7900   30.4600    7.4700 O.co2     3 ASP3        0.0000 
     28 OD1        21.7600   30.7700    6.3800 O.co2     3 ASP3        0.0000 
     29 OD1        17.8800   30.8600    9.0900 O.co2     3 ASP3        0.0000 
     30 OD1        16.9200   31.8700    8.5200 O.co2     3 ASP3        0.0000 
     31 OD1        15.9700   32.8700    7.9400 O.co2     3 ASP3        0.0000 
     32 OD1        22.3600   30.5300    8.9000 O.co2     3 ASP3        0.0000 
     33 OD1        20.4300   31.2300    9.4200 O.co2     3 ASP3        0.0000 
     34 OD1        21.4000   31.5400    8.3200 O.co2     3 ASP3        0.0000 
     35 NZ         15.1700   26.0400    1.2400 N.4       4 LYS4        0.0000 
     36 NZ         16.7400   26.1100    2.6600 N.4       4 LYS4        0.0000 
     37 CZ         14.2100   27.0500    0.6600 C.ar      5 PHE5        0.0000 
     38 CZ         15.7600   25.8100    3.7600 C.ar      5 PHE5        0.0000 
     39 CZ         14.8100   26.8100    3.1800 C.ar      5 PHE5        0.0000 
     40 CZ         15.7900   27.1200    2.0900 C.ar      5 PHE5        0.0000 
     41 CZ         14.8300   28.1200    1.5100 C.ar      5 PHE5        0.0000 
     42 CZ         17.3300   25.8800    5.1800 C.ar      5 PHE5        0.0000 
     43 CZ         16.3800   26.8800    4.6000 C.ar      5 PHE5        0.0000 
     44 CZ         16.4000   28.1900    2.9300 C.ar      5 PHE5        0.0000 
     45 CZ         17.9300   25.6400    7.7000 C.ar      5 PHE5        0.0000 
     46 CZ         16.9700   26.6400    7.1200 C.ar      5 PHE5        0.0000 
     47 CZ         17.9500   26.9500    6.0300 C.ar      5 PHE5        0.0000 
     48 CZ         16.0200   27.6500    6.5500 C.ar      5 PHE5        0.0000 
     49 CZ         17.0000   27.9500    5.4500 C.ar      5 PHE5        0.0000 
     50 CZ         17.0200   29.2600    3.7800 C.ar      5 PHE5        0.0000 
     51 CZ         16.6100   27.4100    9.0700 C.ar      5 PHE5        0.0000 
     52 CZ         17.5900   27.7200    7.9700 C.ar      5 PHE5        0.0000 
     53 CZ         15.6600   28.4200    8.4900 C.ar      5 PHE5        0.0000 
     54 CZ         16.6400   28.7200    7.4000 C.ar      5 PHE5        0.0000 
     55 CZ         17.6200   29.0200    6.3000 C.ar      5 PHE5        0.0000 
     56 CZ         18.6000   29.3300    5.2000 C.ar      5 PHE5        0.0000 
     57 CZ         18.2400   30.1000    7.1500 C.ar      5 PHE5        0.0000 
     58 CZ         16.3000   30.8000    7.6700 C.ar      5 PHE5        0.0000 
     59 CZ         17.2800   31.1000    6.5700 C.ar      5 PHE5        0.0000 
     60 CZ         18.2600   31.4000    5.4800 C.ar      5 PHE5        0.0000 
     61 CZ         16.9500   33.1800    6.8500 C.ar      5 PHE5        0.0000 
     62 CZ         17.5400   32.9400    9.3600 C.ar      5 PHE5        0.0000 
     63 CZ         16.5900   33.9500    8.7900 C.ar      5 PHE5        0.0000 
     64 CZ         17.5600   34.2500    7.6900 C.ar      5 PHE5        0.0000 
     65 CZ         18.1600   34.0100   10.2100 C.ar      5 PHE5        0.0000 
     66 CZ         19.1400   34.3200    9.1200 C.ar      5 PHE5        0.0000 
     67 CZ         18.1800   35.3200    8.5400 C.ar      5 PHE5        0.0000 
     68 CZ         19.7500   35.3900    9.9600 C.ar      5 PHE5        0.0000 
     69 CZ         18.8000   36.3900    9.3900 C.ar      5 PHE5        0.0000 
     70 CA         14.1900   25.7400    2.3300 C.3       6 GLY6        0.0000 
     71 DU         18.5700   28.0200    6.8700 H         7 CUB7        0.0000 
     72 DU         20.1700   29.3900    6.6300 H         7 CUB7        0.0000 
     73 DU         21.1500   29.7000    5.5300 H         7 CUB7        0.0000 
     74 DU         19.2100   30.4000    6.0500 H         7 CUB7        0.0000 
     75 DU         18.8500   31.1700    8.0000 H         7 CUB7        0.0000 
     76 DU         17.9000   32.1700    7.4200 H         7 CUB7        0.0000 
     77 DU         18.8800   32.4700    6.3200 H         7 CUB7        0.0000 
     78 DU         19.4700   32.2400    8.8400 H         7 CUB7        0.0000 
     79 DU         20.4500   32.5400    7.7500 H         7 CUB7        0.0000 
     80 DU         21.4300   32.8400    6.6500 H         7 CUB7        0.0000 
     81 DU         18.5200   33.2400    8.2700 H         7 CUB7        0.0000 
@<TRIPOS>BOND
@<TRIPOS>SUBSTRUCTURE
     1 SER1        1 GROUP   
     2 ALA2        6 GROUP   
     3 ASP3        8 GROUP   
     4 LYS4       35 GROUP   
     5 PHE5       37 GROUP   
     6 GLY6       70 GROUP   
     7 CUB7       71 GROUP   
@<TRIPOS>SET

