#    Name: 6vei_2_NDP
#    Modification time : Fri May 22 19:30:42 2020

@<TRIPOS>MOLECULE
6vei_2_NDP
   48    52     1     0     1
SMALL
NO_CHARGES


@<TRIPOS>ATOM
      1 PA         43.2870   10.4590   25.0670 P.3       1 NDP501      0.0000 
      2 O1A        43.6200   11.7490   24.4270 O.co2     1 NDP501      0.0000 
      3 O2A        44.4700    9.5540   25.3960 O.co2     1 NDP501      0.0000 
      4 O5B        42.2970    9.5860   24.1490 O.3       1 NDP501      0.0000 
      5 C5B        40.8730    9.8090   24.1430 C.3       1 NDP501      0.0000 
      6 C4B        40.3490    9.4130   22.7860 C.3       1 NDP501      0.0000 
      7 O4B        40.7040   10.4210   21.8130 O.3       1 NDP501      0.0000 
      8 C3B        40.9260    8.1140   22.2330 C.3       1 NDP501      0.0000 
      9 O3B        40.2540    6.9760   22.7600 O.3       1 NDP501      0.0000 
     10 C2B        40.6420    8.3230   20.7500 C.3       1 NDP501      0.0000 
     11 O2B        39.2250    8.1700   20.5230 O.3       1 NDP501      0.0000 
     12 C1B        40.9760    9.8010   20.5680 C.3       1 NDP501      0.0000 
     13 N9A        42.3770   10.0400   20.2360 N.pl3     1 NDP501      0.0000 
     14 C8A        43.3110   10.6810   21.0060 C.2       1 NDP501      0.0000 
     15 N7A        44.5040   10.7380   20.4650 N.2       1 NDP501      0.0000 
     16 C5A        44.3440   10.0890   19.2500 C.ar      1 NDP501      0.0000 
     17 C6A        45.2390    9.8050   18.1990 C.ar      1 NDP501      0.0000 
     18 N6A        46.5270   10.1660   18.2000 N.pl3     1 NDP501      0.0000 
     19 N1A        44.7590    9.1340   17.1300 N.ar      1 NDP501      0.0000 
     20 C2A        43.4710    8.7770   17.1190 C.ar      1 NDP501      0.0000 
     21 N3A        42.5350    8.9910   18.0470 N.ar      1 NDP501      0.0000 
     22 C4A        43.0380    9.6530   19.0940 C.ar      1 NDP501      0.0000 
     23 O3         42.4740   10.6810   26.4170 O.3       1 NDP501      0.0000 
     24 PN         42.0540    9.7370   27.6280 P.3       1 NDP501      0.0000 
     25 O1N        40.9920   10.3610   28.4500 O.co2     1 NDP501      0.0000 
     26 O2N        41.6920    8.3750   27.0370 O.co2     1 NDP501      0.0000 
     27 O5D        43.4040    9.5250   28.4750 O.3       1 NDP501      0.0000 
     28 C5D        44.1650    8.2990   28.4650 C.3       1 NDP501      0.0000 
     29 C4D        45.3890    8.4610   29.3320 C.3       1 NDP501      0.0000 
     30 O4D        46.2270    9.5130   28.8050 O.3       1 NDP501      0.0000 
     31 C3D        45.1230    8.8110   30.7990 C.3       1 NDP501      0.0000 
     32 O3D        45.9850    8.0700   31.6550 O.3       1 NDP501      0.0000 
     33 C2D        45.4180   10.3130   30.8590 C.3       1 NDP501      0.0000 
     34 O2D        45.8900   10.6940   32.1460 O.3       1 NDP501      0.0000 
     35 C1D        46.5370   10.4380   29.8280 C.3       1 NDP501      0.0000 
     36 N1N        46.6550   11.7580   29.2200 N.pl3     1 NDP501      0.0000 
     37 C2N        47.9130   12.3570   29.0480 C.2       1 NDP501      0.0000 
     38 C3N        48.0770   13.5660   28.4770 C.2       1 NDP501      0.0000 
     39 C7N        49.4400   14.1010   28.3500 C.2       1 NDP501      0.0000 
     40 O7N        50.4000   13.5060   28.8620 O.2       1 NDP501      0.0000 
     41 N7N        49.5940   15.2320   27.6740 N.am      1 NDP501      0.0000 
     42 C4N        46.8850   14.3230   27.9780 C.3       1 NDP501      0.0000 
     43 C5N        45.5990   13.6240   28.2510 C.2       1 NDP501      0.0000 
     44 C6N        45.5390   12.4290   28.8240 C.2       1 NDP501      0.0000 
     45 P2B        38.4310    6.8340   20.1210 P.3       1 NDP501      0.0000 
     46 O1X        38.3650    5.9090   21.2920 O.co2     1 NDP501      0.0000 
     47 O2X        37.0530    7.2990   19.6390 O.co2     1 NDP501      0.0000 
     48 O3X        39.1850    6.2410   18.9290 O.co2     1 NDP501      0.0000 
@<TRIPOS>BOND
     1    1    2 ar   
     2    1    3 ar   
     3    1    4 1    
     4    1   23 1    
     5    4    5 1    
     6    5    6 1    
     7    6    7 1    
     8    6    8 1    
     9    7   12 1    
    10    8    9 1    
    11    8   10 1    
    12   10   11 1    
    13   10   12 1    
    14   11   45 1    
    15   12   13 1    
    16   13   14 1    
    17   13   22 1    
    18   14   15 2    
    19   15   16 1    
    20   16   17 ar   
    21   16   22 ar   
    22   17   18 1    
    23   17   19 ar   
    24   19   20 ar   
    25   20   21 ar   
    26   21   22 ar   
    27   23   24 1    
    28   24   25 ar   
    29   24   26 ar   
    30   24   27 1    
    31   27   28 1    
    32   28   29 1    
    33   29   30 1    
    34   29   31 1    
    35   30   35 1    
    36   31   32 1    
    37   31   33 1    
    38   33   34 1    
    39   33   35 1    
    40   35   36 1    
    41   36   37 1    
    42   36   44 1    
    43   37   38 2    
    44   38   39 1    
    45   38   42 1    
    46   39   40 2    
    47   39   41 am   
    48   42   43 1    
    49   43   44 2    
    50   45   46 ar   
    51   45   47 ar   
    52   45   48 ar   
@<TRIPOS>SUBSTRUCTURE
     1 NDP501      1 GROUP   
@<TRIPOS>SET
ATOM$ORANGE STATIC     ATOMS   COLORGROUP SYSTEM 
42 5 5 6 6 8 8 10 10 12 12 14 14 16 16 17 17 20 \
20 22 22 28 28 29 29 31 31 33 33 35 35 37 37 38 38 39 \
39 42 42 43 43 44 44 

