#    Name: 6nlx_3_NAD
#    Modification time : Fri May 22 19:29:40 2020

@<TRIPOS>MOLECULE
6nlx_3_NAD
   44    48     1     0     1
SMALL
NO_CHARGES


@<TRIPOS>ATOM
      1 PA         35.3880   20.8000   15.9640 P.3       1 NAD1502     0.0000 
      2 O1A        36.3880   19.7140   16.4420 O.co2     1 NAD1502     0.0000 
      3 O2A        33.9510   20.8130   16.5590 O.co2     1 NAD1502     0.0000 
      4 O5B        36.0860   22.2930   16.0950 O.3       1 NAD1502     0.0000 
      5 C5B        35.4130   23.5590   16.0910 C.3       1 NAD1502     0.0000 
      6 C4B        36.1350   24.3900   17.1350 C.3       1 NAD1502     0.0000 
      7 O4B        35.7800   25.8150   16.9810 O.3       1 NAD1502     0.0000 
      8 C3B        35.7410   24.0380   18.5750 C.3       1 NAD1502     0.0000 
      9 O3B        36.9470   23.9700   19.3580 O.3       1 NAD1502     0.0000 
     10 C2B        34.9140   25.2370   19.0710 C.3       1 NAD1502     0.0000 
     11 O2B        35.1150   25.3790   20.4830 O.3       1 NAD1502     0.0000 
     12 C1B        35.5050   26.3970   18.2430 C.3       1 NAD1502     0.0000 
     13 N9A        34.6030   27.5310   18.0170 N.pl3     1 NAD1502     0.0000 
     14 C8A        33.2310   27.5120   17.7570 C.2       1 NAD1502     0.0000 
     15 N7A        32.7440   28.7110   17.5920 N.2       1 NAD1502     0.0000 
     16 C5A        33.8280   29.5820   17.7320 C.ar      1 NAD1502     0.0000 
     17 C6A        33.9610   30.9750   17.6620 C.ar      1 NAD1502     0.0000 
     18 N6A        32.9350   31.8020   17.4180 N.pl3     1 NAD1502     0.0000 
     19 N1A        35.1780   31.5090   17.8500 N.ar      1 NAD1502     0.0000 
     20 C2A        36.2190   30.7130   18.0970 C.ar      1 NAD1502     0.0000 
     21 N3A        36.1990   29.3870   18.1880 N.ar      1 NAD1502     0.0000 
     22 C4A        34.9790   28.8490   17.9960 C.ar      1 NAD1502     0.0000 
     23 O3         35.3080   20.7260   14.3430 O.3       1 NAD1502     0.0000 
     24 PN         36.2580   20.2090   13.1310 P.3       1 NAD1502     0.0000 
     25 O1N        37.6660   20.8680   13.1880 O.co2     1 NAD1502     0.0000 
     26 O2N        36.0690   18.6940   12.8550 O.co2     1 NAD1502     0.0000 
     27 O5D        35.3980   21.0930   11.9710 O.3       1 NAD1502     0.0000 
     28 C5D        35.6610   22.4690   11.7390 C.3       1 NAD1502     0.0000 
     29 C4D        35.2950   22.7570   10.2860 C.3       1 NAD1502     0.0000 
     30 O4D        36.0420   21.8620    9.3560 O.3       1 NAD1502     0.0000 
     31 C3D        33.8290   22.4230    9.9920 C.3       1 NAD1502     0.0000 
     32 O3D        33.2830   23.2840    8.9570 O.3       1 NAD1502     0.0000 
     33 C2D        33.8580   20.9810    9.3990 C.3       1 NAD1502     0.0000 
     34 O2D        32.7080   20.6710    8.6160 O.3       1 NAD1502     0.0000 
     35 C1D        35.1650   21.1070    8.5570 C.3       1 NAD1502     0.0000 
     36 N1N        35.8630   19.8160    8.1830 N.pl3     1 NAD1502     0.0000 
     37 C2N        36.0130   18.7950    9.0720 C.ar      1 NAD1502     0.0000 
     38 C3N        36.6530   17.6420    8.6970 C.ar      1 NAD1502     0.0000 
     39 C7N        36.7920   16.5300    9.7040 C.2       1 NAD1502     0.0000 
     40 O7N        37.0660   15.3890    9.3300 O.2       1 NAD1502     0.0000 
     41 N7N        36.5970   16.8160   11.0110 N.am      1 NAD1502     0.0000 
     42 C4N        37.1390   17.5660    7.3740 C.ar      1 NAD1502     0.0000 
     43 C5N        36.9790   18.5900    6.4900 C.ar      1 NAD1502     0.0000 
     44 C6N        36.3270   19.7440    6.9260 C.ar      1 NAD1502     0.0000 
@<TRIPOS>BOND
     1    1    2 ar   
     2    1    3 ar   
     3    1    4 1    
     4    1   23 1    
     5    4    5 1    
     6    5    6 1    
     7    6    7 1    
     8    6    8 1    
     9    7   12 1    
    10    8    9 1    
    11    8   10 1    
    12   10   11 1    
    13   10   12 1    
    14   12   13 1    
    15   13   14 1    
    16   13   22 1    
    17   14   15 2    
    18   15   16 1    
    19   16   17 ar   
    20   16   22 ar   
    21   17   18 1    
    22   17   19 ar   
    23   19   20 ar   
    24   20   21 ar   
    25   21   22 ar   
    26   23   24 1    
    27   24   25 ar   
    28   24   26 ar   
    29   24   27 1    
    30   27   28 1    
    31   28   29 1    
    32   29   30 1    
    33   29   31 1    
    34   30   35 1    
    35   31   32 1    
    36   31   33 1    
    37   33   34 1    
    38   33   35 1    
    39   35   36 1    
    40   36   37 ar   
    41   36   44 ar   
    42   37   38 ar   
    43   38   39 1    
    44   38   42 ar   
    45   39   40 2    
    46   39   41 am   
    47   42   43 ar   
    48   43   44 ar   
@<TRIPOS>SUBSTRUCTURE
     1 NAD1502     1 GROUP   
@<TRIPOS>SET
ATOM$ORANGE STATIC     ATOMS   COLORGROUP SYSTEM 
42 5 5 6 6 8 8 10 10 12 12 14 14 16 16 17 17 20 \
20 22 22 28 28 29 29 31 31 33 33 35 35 37 37 38 38 39 \
39 42 42 43 43 44 44 

