#    Name: 6bxw_1_APR
#    Modification time : Fri May 22 19:36:34 2020

@<TRIPOS>MOLECULE
6bxw_1_APR
   36    39     1     0     0
SMALL
NO_CHARGES


@<TRIPOS>ATOM
      1 N1         -3.4360    2.9930  -13.1750 N.ar      1 APR501      0.0000 
      2 C2         -3.1140    1.9420  -12.3990 C.ar      1 APR501      0.0000 
      3 N3         -2.7610    0.7380  -12.8830 N.ar      1 APR501      0.0000 
      4 C4         -2.7080    0.5160  -14.2180 C.ar      1 APR501      0.0000 
      5 C5         -3.0460    1.6150  -15.1330 C.ar      1 APR501      0.0000 
      6 C6         -3.4260    2.9110  -14.5240 C.ar      1 APR501      0.0000 
      7 N6         -3.7520    3.9770  -15.2920 N.pl3     1 APR501      0.0000 
      8 N7         -2.9150    1.1300  -16.3810 N.2       1 APR501      0.0000 
      9 C8         -2.5240   -0.1660  -16.2760 C.2       1 APR501      0.0000 
     10 N9         -2.4110   -0.5330  -14.9860 N.pl3     1 APR501      0.0000 
     11 C1'        -1.9990   -1.8680  -14.4900 C.3       1 APR501      0.0000 
     12 C2'        -2.4480   -2.9530  -15.4550 C.3       1 APR501      0.0000 
     13 O2'        -3.5130   -3.7150  -14.8790 O.3       1 APR501      0.0000 
     14 C3'        -1.2370   -3.8380  -15.6760 C.3       1 APR501      0.0000 
     15 O3'        -1.5010   -5.1550  -15.1850 O.3       1 APR501      0.0000 
     16 O4'        -0.5740   -1.9270  -14.4390 O.3       1 APR501      0.0000 
     17 C4'        -0.1050   -3.2000  -14.8820 C.3       1 APR501      0.0000 
     18 C5'         1.1680   -3.0060  -15.6960 C.3       1 APR501      0.0000 
     19 O5'         0.8920   -2.9690  -17.0950 O.3       1 APR501      0.0000 
     20 PA          1.8250   -2.1040  -18.0790 P.3       1 APR501      0.0000 
     21 O1A         1.9640   -0.7150  -17.5070 O.co2     1 APR501      0.0000 
     22 O2A         1.3280   -2.2910  -19.4930 O.co2     1 APR501      0.0000 
     23 O3A         3.2250   -2.8840  -17.9170 O.3       1 APR501      0.0000 
     24 PB          3.8890   -3.6940  -19.1350 P.3       1 APR501      0.0000 
     25 O1B         5.0890   -4.4310  -18.5940 O.co2     1 APR501      0.0000 
     26 O2B         2.7780   -4.4550  -19.8190 O.co2     1 APR501      0.0000 
     27 O5D         4.4140   -2.5400  -20.1270 O.3       1 APR501      0.0000 
     28 C5D         4.5390   -1.1900  -19.6900 C.3       1 APR501      0.0000 
     29 O4D         3.4470    0.5360  -20.9730 O.3       1 APR501      0.0000 
     30 O1D         2.9890    2.6710  -20.1290 O.3       1 APR501      0.0000 
     31 C1D         3.7800    1.9240  -21.0570 C.3       1 APR501      0.0000 
     32 O2D         5.9040    2.9500  -21.6020 O.3       1 APR501      0.0000 
     33 C2D         5.2500    2.0570  -20.6980 C.3       1 APR501      0.0000 
     34 O3D         6.5870    0.5630  -22.0320 O.3       1 APR501      0.0000 
     35 C3D         5.8240    0.6620  -20.8270 C.3       1 APR501      0.0000 
     36 C4D         4.6260   -0.2700  -20.9020 C.3       1 APR501      0.0000 
@<TRIPOS>BOND
     1    1    2 ar   
     2    1    6 ar   
     3    2    3 ar   
     4    3    4 ar   
     5    4    5 ar   
     6    4   10 1    
     7    5    6 ar   
     8    5    8 1    
     9    6    7 1    
    10    8    9 2    
    11    9   10 1    
    12   10   11 1    
    13   11   12 1    
    14   11   16 1    
    15   12   13 1    
    16   12   14 1    
    17   14   15 1    
    18   14   17 1    
    19   16   17 1    
    20   17   18 1    
    21   18   19 1    
    22   19   20 1    
    23   20   21 ar   
    24   20   22 ar   
    25   20   23 1    
    26   23   24 1    
    27   24   25 ar   
    28   24   26 ar   
    29   24   27 1    
    30   27   28 1    
    31   28   36 1    
    32   29   31 1    
    33   29   36 1    
    34   30   31 1    
    35   31   33 1    
    36   32   33 1    
    37   33   35 1    
    38   34   35 1    
    39   35   36 1    
@<TRIPOS>SUBSTRUCTURE
     1 APR501      1 GROUP   
@<TRIPOS>SET

