#    Name: 6ar9_5_3L4_CAVITY_N1_8
#    Modification time : Fri May 22 19:26:14 2020

@<TRIPOS>MOLECULE
6ar9_5_3L4_CAVITY_N1_8
   72     0     7     0     0
SMALL
NO_CHARGES


@<TRIPOS>ATOM
      1 OG         -1.2000  -29.3200   -8.9500 O.3       1 SER1        0.0000 
      2 OG         -1.8500  -29.6000   -6.9500 O.3       1 SER1        0.0000 
      3 OG         -0.7000  -28.8900   -7.6000 O.3       1 SER1        0.0000 
      4 OG          0.7900  -23.9500   -3.0600 O.3       1 SER1        0.0000 
      5 OG          1.6200  -25.2000   -2.9700 O.3       1 SER1        0.0000 
      6 OG          2.4500  -26.4500   -2.8700 O.3       1 SER1        0.0000 
      7 OG          3.2700  -27.7000   -2.7800 O.3       1 SER1        0.0000 
      8 OG          1.9400  -23.2400   -3.7200 O.3       1 SER1        0.0000 
      9 OG          2.7700  -24.4900   -3.6200 O.3       1 SER1        0.0000 
     10 OG          3.5900  -25.7400   -3.5300 O.3       1 SER1        0.0000 
     11 OG          4.4200  -26.9900   -3.4300 O.3       1 SER1        0.0000 
     12 N          -1.3800  -27.8000  -11.0400 N.am      2 ALA2        0.0000 
     13 O           3.4200  -24.2100   -5.6200 O.2       2 ALA2        0.0000 
     14 N           4.2400  -25.4600   -5.5300 N.am      2 ALA2        0.0000 
     15 O           3.9200  -23.7800   -4.2800 O.2       2 ALA2        0.0000 
     16 N           4.7400  -25.0300   -4.1800 N.am      2 ALA2        0.0000 
     17 OD1        -1.7100  -26.1200   -9.7900 O.co2     3 ASP3        0.0000 
     18 OD1         0.1200  -30.1400   -7.5100 O.co2     3 ASP3        0.0000 
     19 OD1        -2.0300  -24.4400   -8.5400 O.co2     3 ASP3        0.0000 
     20 OD1        -1.2100  -25.6800   -8.4500 O.co2     3 ASP3        0.0000 
     21 OD1        -0.5300  -30.4200   -5.5000 O.co2     3 ASP3        0.0000 
     22 OD1         0.3000  -31.6600   -5.4100 O.co2     3 ASP3        0.0000 
     23 OD1         0.8000  -31.2300   -4.0600 O.co2     3 ASP3        0.0000 
     24 NZ          1.4500  -30.9500   -6.0600 N.4       4 LYS4        0.0000 
     25 NZ         -0.7100  -25.2500   -7.1000 N.4       4 LYS4        0.0000 
     26 NZ          2.6000  -30.2500   -6.7200 N.4       4 LYS4        0.0000 
     27 NZ         -0.2100  -24.8200   -5.7500 N.4       4 LYS4        0.0000 
     28 NZ          3.1000  -29.8100   -5.3700 N.4       4 LYS4        0.0000 
     29 NZ         -0.5300  -23.1400   -4.5000 N.4       4 LYS4        0.0000 
     30 NZ          0.2900  -24.3800   -4.4100 N.4       4 LYS4        0.0000 
     31 NZ          4.7400  -28.6700   -4.6800 N.4       4 LYS4        0.0000 
     32 NZ          5.2400  -28.2400   -3.3400 N.4       4 LYS4        0.0000 
     33 NZ          6.0700  -29.4900   -3.2400 N.4       4 LYS4        0.0000 
     34 CZ         -2.0300  -28.0800   -9.0400 C.ar      5 PHE5        0.0000 
     35 CZ         -0.8800  -27.3700   -9.7000 C.ar      5 PHE5        0.0000 
     36 CZ         -0.0600  -28.6100   -9.6000 C.ar      5 PHE5        0.0000 
     37 CZ         -3.1800  -25.1400   -7.8900 C.ar      5 PHE5        0.0000 
     38 CZ         -2.3600  -26.3900   -7.7900 C.ar      5 PHE5        0.0000 
     39 CZ         -1.5300  -27.6400   -7.7000 C.ar      5 PHE5        0.0000 
     40 CZ          1.2700  -29.4300   -8.1600 C.ar      5 PHE5        0.0000 
     41 CA          0.2700  -26.6600  -10.3500 C.3       6 GLY6        0.0000 
     42 CA          0.4400  -28.1800   -8.2600 C.3       6 GLY6        0.0000 
     43 CA         -0.0600  -24.9700   -9.1000 C.3       6 GLY6        0.0000 
     44 CA          0.7700  -26.2200   -9.0100 C.3       6 GLY6        0.0000 
     45 CA          0.1200  -26.5000   -7.0100 C.3       6 GLY6        0.0000 
     46 CA          0.9400  -27.7500   -6.9100 C.3       6 GLY6        0.0000 
     47 CA          1.7700  -29.0000   -6.8200 C.3       6 GLY6        0.0000 
     48 CA          0.4400  -24.5400   -7.7600 C.3       6 GLY6        0.0000 
     49 CA          1.2700  -25.7900   -7.6600 C.3       6 GLY6        0.0000 
     50 CA          1.4400  -27.3200   -5.5600 C.3       6 GLY6        0.0000 
     51 CA          2.2700  -28.5600   -5.4700 C.3       6 GLY6        0.0000 
     52 CA          3.4200  -27.8500   -6.1200 C.3       6 GLY6        0.0000 
     53 CA          1.4400  -23.6800   -5.0600 C.3       6 GLY6        0.0000 
     54 CA          2.2700  -24.9200   -4.9700 C.3       6 GLY6        0.0000 
     55 CA          3.0900  -26.1700   -4.8700 C.3       6 GLY6        0.0000 
     56 CA          3.9200  -27.4200   -4.7800 C.3       6 GLY6        0.0000 
     57 CA          4.6000  -28.5100   -1.3400 C.3       6 GLY6        0.0000 
     58 CA          5.4200  -29.7600   -1.2400 C.3       6 GLY6        0.0000 
     59 DU         -0.3800  -26.9300   -8.3500 H         7 CUB7        0.0000 
     60 DU         -1.8500  -25.9600   -6.4400 H         7 CUB7        0.0000 
     61 DU         -1.0300  -27.2100   -6.3500 H         7 CUB7        0.0000 
     62 DU         -0.2000  -28.4600   -6.2500 H         7 CUB7        0.0000 
     63 DU          0.6200  -29.7100   -6.1600 H         7 CUB7        0.0000 
     64 DU          1.1200  -29.2700   -4.8100 H         7 CUB7        0.0000 
     65 DU          1.9500  -30.5200   -4.7200 H         7 CUB7        0.0000 
     66 DU          0.6200  -26.0700   -5.6600 H         7 CUB7        0.0000 
     67 DU          1.1200  -25.6300   -4.3100 H         7 CUB7        0.0000 
     68 DU          1.9500  -26.8800   -4.2200 H         7 CUB7        0.0000 
     69 DU          2.7700  -28.1300   -4.1200 H         7 CUB7        0.0000 
     70 DU          3.6000  -29.3800   -4.0300 H         7 CUB7        0.0000 
     71 DU          2.1200  -28.4100   -2.1200 H         7 CUB7        0.0000 
     72 DU          4.9200  -30.1900   -2.5900 H         7 CUB7        0.0000 
@<TRIPOS>BOND
@<TRIPOS>SUBSTRUCTURE
     1 SER1        1 GROUP   
     2 ALA2       12 GROUP   
     3 ASP3       17 GROUP   
     4 LYS4       24 GROUP   
     5 PHE5       34 GROUP   
     6 GLY6       41 GROUP   
     7 CUB7       59 GROUP   
@<TRIPOS>SET

