#    Name: 6ar9_5_3L4
#    Modification time : Fri May 22 19:26:13 2020

@<TRIPOS>MOLECULE
6ar9_5_3L4
   28    29     1     0     0
SMALL
NO_CHARGES


@<TRIPOS>ATOM
      1 OAG         3.6000  -23.4820   -2.2780           1 3L4301      0.0000 
      2 PBB         3.2680  -23.1310   -3.7090           1 3L4301      0.0000 
      3 OAH         2.0260  -22.2710   -3.7430           1 3L4301      0.0000 
      4 OAD         4.4330  -22.3860   -4.3160           1 3L4301      0.0000 
      5 CAP         2.9200  -24.6710   -4.6910           1 3L4301      0.0000 
      6 OAT         3.5750  -25.7090   -4.0330           1 3L4301      0.0000 
      7 CAJ         2.7070  -26.5720   -3.3640           1 3L4301      0.0000 
      8 CAK         3.0350  -27.9890   -3.8140           1 3L4301      0.0000 
      9 NAY         1.8110  -28.6400   -4.2330           1 3L4301      0.0000 
     10 CAM         1.9940  -30.0800   -4.1660           1 3L4301      0.0000 
     11 CAO         0.6560  -30.8020   -4.3150           1 3L4301      0.0000 
     12 PBA         0.4040  -32.1210   -3.0250           1 3L4301      0.0000 
     13 OAE        -0.9500  -32.7590   -3.2290           1 3L4301      0.0000 
     14 OAF         1.4840  -33.1700   -3.1510           1 3L4301      0.0000 
     15 OAC         0.4620  -31.4990   -1.6480           1 3L4301      0.0000 
     16 CAL         1.5330  -28.2350   -5.5990           1 3L4301      0.0000 
     17 CAN         0.1800  -27.5290   -5.6390           1 3L4301      0.0000 
     18 N9         -0.0650  -26.9020   -6.9230           1 3L4301      0.0000 
     19 C4         -0.4690  -27.5330   -8.0300           1 3L4301      0.0000 
     20 N3         -0.7650  -28.9570   -8.3310           1 3L4301      0.0000 
     21 C2         -1.1910  -29.3440   -9.6780           1 3L4301      0.0000 
     22 N2         -1.4840  -30.7340   -9.9750           1 3L4301      0.0000 
     23 N1         -1.3250  -28.3430  -10.7170           1 3L4301      0.0000 
     24 C6         -1.0370  -26.9710  -10.4240           1 3L4301      0.0000 
     25 O6         -1.1440  -26.1490  -11.2690           1 3L4301      0.0000 
     26 C5         -0.5910  -26.5700   -9.0170           1 3L4301      0.0000 
     27 N7         -0.2630  -25.3980   -8.4630           1 3L4301      0.0000 
     28 C8          0.0510  -25.6120   -7.1940           1 3L4301      0.0000 
@<TRIPOS>BOND
     1    1    2 du   
     2    2    3 du   
     3    2    4 du   
     4    2    5 du   
     5    5    6 du   
     6    6    7 du   
     7    7    8 du   
     8    8    9 du   
     9    9   10 du   
    10    9   16 du   
    11   10   11 du   
    12   11   12 du   
    13   12   13 du   
    14   12   14 du   
    15   12   15 du   
    16   16   17 du   
    17   17   18 du   
    18   18   19 du   
    19   18   28 du   
    20   19   20 du   
    21   19   26 du   
    22   20   21 du   
    23   21   22 du   
    24   21   23 du   
    25   23   24 du   
    26   24   25 du   
    27   24   26 du   
    28   26   27 du   
    29   27   28 du   
@<TRIPOS>SUBSTRUCTURE
     1 3L4301      1 GROUP   
@<TRIPOS>SET

