#    Name: 6ar9_2_3L4
#    Modification time : Fri May 22 19:26:07 2020

@<TRIPOS>MOLECULE
6ar9_2_3L4
   28    29     1     0     0
SMALL
NO_CHARGES


@<TRIPOS>ATOM
      1 OAG       -26.5830  -34.1450  -67.4020           1 3L4301      0.0000 
      2 PBB       -27.2400  -32.8740  -66.9210           1 3L4301      0.0000 
      3 OAH       -28.6990  -33.1540  -66.6460           1 3L4301      0.0000 
      4 OAD       -26.5630  -32.4070  -65.6510           1 3L4301      0.0000 
      5 CAP       -27.0930  -31.5490  -68.2220           1 3L4301      0.0000 
      6 OAT       -27.5780  -32.0920  -69.4160           1 3L4301      0.0000 
      7 CAJ       -26.6820  -32.0240  -70.4890           1 3L4301      0.0000 
      8 CAK       -27.5030  -32.2330  -71.7580           1 3L4301      0.0000 
      9 NAY       -27.4990  -31.0340  -72.5810           1 3L4301      0.0000 
     10 CAM       -27.6800  -31.4280  -73.9730           1 3L4301      0.0000 
     11 CAO       -28.2190  -30.3000  -74.8550           1 3L4301      0.0000 
     12 PBA       -26.8710  -29.2650  -75.6200           1 3L4301      0.0000 
     13 OAE       -26.6260  -28.0540  -74.7520           1 3L4301      0.0000 
     14 OAF       -25.5980  -30.0710  -75.7310           1 3L4301      0.0000 
     15 OAC       -27.3050  -28.8130  -76.9950           1 3L4301      0.0000 
     16 CAL       -28.5240  -30.0850  -72.1550           1 3L4301      0.0000 
     17 CAN       -29.7500  -30.7330  -71.5050           1 3L4301      0.0000 
     18 N9        -30.4300  -29.7610  -70.6650           1 3L4301      0.0000 
     19 C4        -30.9810  -28.6200  -71.0940           1 3L4301      0.0000 
     20 N3        -31.0880  -28.0040  -72.4410           1 3L4301      0.0000 
     21 C2        -31.7660  -26.7180  -72.6050           1 3L4301      0.0000 
     22 N2        -31.8670  -26.1200  -73.9220           1 3L4301      0.0000 
     23 N1        -32.3340  -26.0420  -71.4590           1 3L4301      0.0000 
     24 C6        -32.2330  -26.6340  -70.1590           1 3L4301      0.0000 
     25 O6        -32.7000  -26.0730  -69.2260           1 3L4301      0.0000 
     26 C5        -31.5220  -27.9820  -69.9900           1 3L4301      0.0000 
     27 N7        -31.2720  -28.7690  -68.9340           1 3L4301      0.0000 
     28 C8        -30.6110  -29.8400  -69.3560           1 3L4301      0.0000 
@<TRIPOS>BOND
     1    1    2 du   
     2    2    3 du   
     3    2    4 du   
     4    2    5 du   
     5    5    6 du   
     6    6    7 du   
     7    7    8 du   
     8    8    9 du   
     9    9   10 du   
    10    9   16 du   
    11   10   11 du   
    12   11   12 du   
    13   12   13 du   
    14   12   14 du   
    15   12   15 du   
    16   16   17 du   
    17   17   18 du   
    18   18   19 du   
    19   18   28 du   
    20   19   20 du   
    21   19   26 du   
    22   20   21 du   
    23   21   22 du   
    24   21   23 du   
    25   23   24 du   
    26   24   25 du   
    27   24   26 du   
    28   26   27 du   
    29   27   28 du   
@<TRIPOS>SUBSTRUCTURE
     1 3L4301      1 GROUP   
@<TRIPOS>SET

