#    Name: 6ar9_2_3L4_CAVITY_N1_6
#    Modification time : Fri May 22 19:26:09 2020

@<TRIPOS>MOLECULE
6ar9_2_3L4_CAVITY_N1_6
   72     0     7     0     0
SMALL
NO_CHARGES


@<TRIPOS>ATOM
      1 OG        -31.8400  -29.2100  -72.8100 O.3       1 SER1        0.0000 
      2 OG        -28.6800  -34.0500  -69.0900 O.3       1 SER1        0.0000 
      3 OG        -27.8600  -35.3000  -68.9900 O.3       1 SER1        0.0000 
      4 OG        -27.5400  -33.3400  -69.7400 O.3       1 SER1        0.0000 
      5 OG        -26.3900  -32.6300  -70.4000 O.3       1 SER1        0.0000 
      6 OG        -28.1800  -33.6200  -67.7400 O.3       1 SER1        0.0000 
      7 OG        -27.3600  -34.8700  -67.6500 O.3       1 SER1        0.0000 
      8 OG        -27.0400  -32.9100  -68.4000 O.3       1 SER1        0.0000 
      9 OG        -27.6800  -33.1800  -66.3900 O.3       1 SER1        0.0000 
     10 O         -25.7700  -30.9900  -77.8400 O.2       2 ALA2        0.0000 
     11 N         -24.9500  -32.2400  -77.7500 N.am      2 ALA2        0.0000 
     12 O         -26.1000  -29.3100  -76.5900 O.2       2 ALA2        0.0000 
     13 O         -25.2700  -30.5500  -76.5000 O.2       2 ALA2        0.0000 
     14 N         -24.4500  -31.8000  -76.4000 N.am      2 ALA2        0.0000 
     15 O         -25.6000  -28.8700  -75.2400 O.2       2 ALA2        0.0000 
     16 O         -24.7700  -30.1200  -75.1500 O.2       2 ALA2        0.0000 
     17 N         -23.9500  -31.3700  -75.0500 N.am      2 ALA2        0.0000 
     18 N         -26.7100  -30.9500  -69.1500 N.am      2 ALA2        0.0000 
     19 O         -26.5400  -32.4700  -67.0500 O.2       2 ALA2        0.0000 
     20 OD1       -32.8100  -27.8100  -69.5600 O.co2     3 ASP3        0.0000 
     21 OD1       -31.9900  -29.0600  -69.4700 O.co2     3 ASP3        0.0000 
     22 NZ        -27.7500  -30.4500  -77.2800 N.4       4 LYS4        0.0000 
     23 NZ        -27.2500  -30.0200  -75.9400 N.4       4 LYS4        0.0000 
     24 NZ        -26.7400  -29.5800  -74.5900 N.4       4 LYS4        0.0000 
     25 NZ        -26.2400  -29.1500  -73.2400 N.4       4 LYS4        0.0000 
     26 NZ        -25.4200  -30.4000  -73.1500 N.4       4 LYS4        0.0000 
     27 NZ        -24.2700  -29.6900  -73.8000 N.4       4 LYS4        0.0000 
     28 NZ        -33.1300  -29.7600  -68.8100 N.4       4 LYS4        0.0000 
     29 NZ        -31.1600  -30.3000  -69.3700 N.4       4 LYS4        0.0000 
     30 NZ        -26.0700  -30.6700  -71.1500 N.4       4 LYS4        0.0000 
     31 NZ        -25.2400  -31.9200  -71.0500 N.4       4 LYS4        0.0000 
     32 NZ        -24.9200  -29.9600  -71.8000 N.4       4 LYS4        0.0000 
     33 CZ        -33.6400  -30.2000  -70.1600 C.ar      5 PHE5        0.0000 
     34 CZ        -32.4900  -29.4900  -70.8100 C.ar      5 PHE5        0.0000 
     35 CZ        -32.1700  -27.5300  -71.5600 C.ar      5 PHE5        0.0000 
     36 CZ        -31.3400  -28.7800  -71.4700 C.ar      5 PHE5        0.0000 
     37 CZ        -31.0200  -26.8200  -72.2200 C.ar      5 PHE5        0.0000 
     38 CZ        -30.5200  -26.3900  -70.8700 C.ar      5 PHE5        0.0000 
     39 CA        -25.5900  -32.5100  -75.7500 C.3       6 GLY6        0.0000 
     40 CA        -25.0900  -32.0800  -74.4000 C.3       6 GLY6        0.0000 
     41 CA        -30.1900  -28.0700  -72.1200 C.3       6 GLY6        0.0000 
     42 CA        -29.3700  -29.3200  -72.0300 C.3       6 GLY6        0.0000 
     43 CA        -28.2200  -28.6100  -72.6800 C.3       6 GLY6        0.0000 
     44 CA        -27.3900  -29.8600  -72.5900 C.3       6 GLY6        0.0000 
     45 CA        -25.7400  -32.3600  -72.4000 C.3       6 GLY6        0.0000 
     46 CA        -24.5900  -31.6500  -73.0500 C.3       6 GLY6        0.0000 
     47 CA        -23.4400  -30.9400  -73.7100 C.3       6 GLY6        0.0000 
     48 CA        -31.6600  -27.1000  -70.2200 C.3       6 GLY6        0.0000 
     49 CA        -30.8400  -28.3500  -70.1200 C.3       6 GLY6        0.0000 
     50 CA        -30.0100  -29.5900  -70.0300 C.3       6 GLY6        0.0000 
     51 CA        -29.1900  -30.8400  -69.9300 C.3       6 GLY6        0.0000 
     52 CA        -29.6900  -27.6400  -70.7800 C.3       6 GLY6        0.0000 
     53 CA        -28.0400  -30.1300  -70.5900 C.3       6 GLY6        0.0000 
     54 CA        -26.8900  -29.4200  -71.2400 C.3       6 GLY6        0.0000 
     55 CA        -30.3400  -27.9100  -68.7800 C.3       6 GLY6        0.0000 
     56 CA        -29.5100  -29.1600  -68.6800 C.3       6 GLY6        0.0000 
     57 CA        -28.6900  -30.4100  -68.5900 C.3       6 GLY6        0.0000 
     58 CA        -27.8600  -31.6600  -68.4900 C.3       6 GLY6        0.0000 
     59 CA        -25.8900  -32.2000  -69.0500 C.3       6 GLY6        0.0000 
     60 DU        -26.9200  -31.7000  -77.1900 H         7 CUB7        0.0000 
     61 DU        -26.4200  -31.2600  -75.8400 H         7 CUB7        0.0000 
     62 DU        -29.8700  -29.7500  -73.3700 H         7 CUB7        0.0000 
     63 DU        -28.7200  -29.0400  -74.0300 H         7 CUB7        0.0000 
     64 DU        -27.8900  -30.2900  -73.9300 H         7 CUB7        0.0000 
     65 DU        -27.0700  -31.5400  -73.8400 H         7 CUB7        0.0000 
     66 DU        -25.9200  -30.8300  -74.4900 H         7 CUB7        0.0000 
     67 DU        -30.5100  -30.0300  -71.3700 H         7 CUB7        0.0000 
     68 DU        -28.5400  -30.5700  -71.9300 H         7 CUB7        0.0000 
     69 DU        -27.7100  -31.8200  -71.8400 H         7 CUB7        0.0000 
     70 DU        -26.5700  -31.1100  -72.4900 H         7 CUB7        0.0000 
     71 DU        -28.3600  -32.0900  -69.8400 H         7 CUB7        0.0000 
     72 DU        -27.2100  -31.3800  -70.4900 H         7 CUB7        0.0000 
@<TRIPOS>BOND
@<TRIPOS>SUBSTRUCTURE
     1 SER1        1 GROUP   
     2 ALA2       10 GROUP   
     3 ASP3       20 GROUP   
     4 LYS4       22 GROUP   
     5 PHE5       33 GROUP   
     6 GLY6       39 GROUP   
     7 CUB7       60 GROUP   
@<TRIPOS>SET

