#    Name: 6ain_1_FAD
#    Modification time : Fri May 22 19:27:24 2020

@<TRIPOS>MOLECULE
6ain_1_FAD
   84    89     1     0     1
SMALL
NO_CHARGES


@<TRIPOS>ATOM
      1 PA          8.1250  113.2250   25.7860 P.3       1 FAD501      0.0000 
      2 O1A         9.0070  112.7150   26.8120 O.co2     1 FAD501      0.0000 
      3 O2A         6.9000  113.8890   26.1570 O.co2     1 FAD501      0.0000 
      4 O5B         8.9130  114.2900   24.9740 O.3       1 FAD501      0.0000 
      5 C5B         8.2650  115.4570   24.5210 C.3       1 FAD501      0.0000 
      6 C4B         9.1990  116.6520   24.5220 C.3       1 FAD501      0.0000 
      7 O4B         8.8910  117.5450   23.4690 O.3       1 FAD501      0.0000 
      8 C3B         9.0910  117.5050   25.7610 C.3       1 FAD501      0.0000 
      9 O3B        10.4000  117.8950   26.0900 O.3       1 FAD501      0.0000 
     10 C2B         8.3000  118.7000   25.3170 C.3       1 FAD501      0.0000 
     11 O2B         8.5410  119.8540   26.0690 O.3       1 FAD501      0.0000 
     12 C1B         8.8560  118.8740   23.9470 C.3       1 FAD501      0.0000 
     13 N9A         7.9840  119.6900   23.1210 N.pl3     1 FAD501      0.0000 
     14 C8A         6.6780  119.5920   23.2040 C.2       1 FAD501      0.0000 
     15 N7A         6.0820  120.4060   22.3510 N.2       1 FAD501      0.0000 
     16 C5A         7.0310  121.0500   21.7120 C.ar      1 FAD501      0.0000 
     17 C6A         7.0460  122.0550   20.6620 C.ar      1 FAD501      0.0000 
     18 N6A         5.8760  122.4840   20.1930 N.pl3     1 FAD501      0.0000 
     19 N1A         8.2290  122.4880   20.2300 N.ar      1 FAD501      0.0000 
     20 C2A         9.3630  122.0310   20.7240 C.ar      1 FAD501      0.0000 
     21 N3A         9.4040  121.1070   21.6700 N.ar      1 FAD501      0.0000 
     22 C4A         8.2980  120.5770   22.2040 C.ar      1 FAD501      0.0000 
     23 N1          4.4870  109.0690   31.6000 N.2       1 FAD501      0.0000 
     24 C2          4.0210  109.8350   32.5890 C.2       1 FAD501      0.0000 
     25 O2          3.5970  110.9660   32.2970 O.2       1 FAD501      0.0000 
     26 N3          3.9970  109.4310   33.8570 N.am      1 FAD501      0.0000 
     27 C4          4.4480  108.2340   34.1940 C.2       1 FAD501      0.0000 
     28 O4          4.4260  107.8700   35.3530 O.2       1 FAD501      0.0000 
     29 C4X         4.9690  107.3320   33.1770 C.2       1 FAD501      0.0000 
     30 N5          5.4380  106.1230   33.4600 N.2       1 FAD501      0.0000 
     31 C5X         5.9190  105.3660   32.4570 C.ar      1 FAD501      0.0000 
     32 C6          6.4050  104.1080   32.7240 C.ar      1 FAD501      0.0000 
     33 C7          6.8810  103.3200   31.7000 C.ar      1 FAD501      0.0000 
     34 C7M         7.4270  101.9740   32.0040 C.3       1 FAD501      0.0000 
     35 C8          6.9010  103.7890   30.3120 C.ar      1 FAD501      0.0000 
     36 C8M         7.4550  102.9000   29.2350 C.3       1 FAD501      0.0000 
     37 C9          6.4150  105.0500   30.0250 C.ar      1 FAD501      0.0000 
     38 C9A         5.9290  105.8330   31.0550 C.ar      1 FAD501      0.0000 
     39 N10         5.4430  107.0890   30.7760 N.pl3     1 FAD501      0.0000 
     40 C10         4.9540  107.8520   31.8180 C.2       1 FAD501      0.0000 
     41 C1'         5.4390  107.5940   29.4170 C.3       1 FAD501      0.0000 
     42 C2'         6.7290  108.3060   29.0530 C.3       1 FAD501      0.0000 
     43 O2'         6.7000  109.6230   29.6120 O.3       1 FAD501      0.0000 
     44 C3'         6.7870  108.2800   27.5350 C.3       1 FAD501      0.0000 
     45 O3'         6.6570  106.9160   27.1760 O.3       1 FAD501      0.0000 
     46 C4'         8.0320  108.7950   26.8560 C.3       1 FAD501      0.0000 
     47 O4'         8.6470  109.8330   27.5550 O.3       1 FAD501      0.0000 
     48 C5'         7.6050  109.3970   25.5590 C.3       1 FAD501      0.0000 
     49 O5'         8.7390  109.8840   24.9090 O.3       1 FAD501      0.0000 
     50 P           8.6450  111.1440   24.0190 P.3       1 FAD501      0.0000 
     51 O1P         9.9970  111.6630   24.0490 O.co2     1 FAD501      0.0000 
     52 O2P         8.0680  110.7190   22.7590 O.co2     1 FAD501      0.0000 
     53 O3P         7.6800  112.0960   24.7900 O.3       1 FAD501      0.0000 
     54 H51A        7.4080  115.6670   25.1640 H         1 FAD501      0.0000 
     55 H52A        7.8890  115.2920   23.5090 H         1 FAD501      0.0000 
     56 H4B        10.2340  116.2970   24.4230 H         1 FAD501      0.0000 
     57 H3B         8.5880  116.9670   26.5770 H         1 FAD501      0.0000 
     58 HO3A       10.9120  117.1180   26.3530 H         1 FAD501      0.0000 
     59 H2B         7.2300  118.4500   25.2810 H         1 FAD501      0.0000 
     60 HO2A        9.0330  119.6210   26.8680 H         1 FAD501      0.0000 
     61 H1B         9.8670  119.3010   24.0030 H         1 FAD501      0.0000 
     62 H8A         6.1560  118.9240   23.8780 H         1 FAD501      0.0000 
     63 H61A        5.8490  123.1910   19.4720 H         1 FAD501      0.0000 
     64 H62A        5.0150  122.1150   20.5700 H         1 FAD501      0.0000 
     65 H2A        10.2960  122.4170   20.3320 H         1 FAD501      0.0000 
     66 HN3         3.6160  110.0620   34.5910 H         1 FAD501      0.0000 
     67 H6          6.4080  103.7330   33.7400 H         1 FAD501      0.0000 
     68 HM71        6.9170  101.2480   31.4260 H         1 FAD501      0.0000 
     69 HM72        7.2950  101.7630   33.0330 H         1 FAD501      0.0000 
     70 HM73        8.4600  101.9500   31.7680 H         1 FAD501      0.0000 
     71 HM81        8.4420  102.6120   29.4880 H         1 FAD501      0.0000 
     72 HM82        7.4660  103.4240   28.3150 H         1 FAD501      0.0000 
     73 HM83        6.8470  102.0370   29.1420 H         1 FAD501      0.0000 
     74 H9          6.4230  105.4080   29.0040 H         1 FAD501      0.0000 
     75 H1'1        4.6040  108.2880   29.2980 H         1 FAD501      0.0000 
     76 H1'2        5.2780  106.7650   28.7240 H         1 FAD501      0.0000 
     77 H2'         7.5790  107.7380   29.4560 H         1 FAD501      0.0000 
     78 HO2'        7.3300  110.1860   29.1410 H         1 FAD501      0.0000 
     79 H3'         5.9260  108.8430   27.1480 H         1 FAD501      0.0000 
     80 HO3'        7.5350  106.5170   27.1020 H         1 FAD501      0.0000 
     81 H4'         8.7320  107.9680   26.6730 H         1 FAD501      0.0000 
     82 HO4'        8.8930  109.5240   28.4380 H         1 FAD501      0.0000 
     83 H5'1        7.1140  108.6430   24.9400 H         1 FAD501      0.0000 
     84 H5'2        6.8990  110.2110   25.7380 H         1 FAD501      0.0000 
@<TRIPOS>BOND
     1    1    2 ar   
     2    1    3 ar   
     3    1    4 1    
     4    1   53 1    
     5    4    5 1    
     6    5    6 1    
     7    5   54 1    
     8    5   55 1    
     9    6    7 1    
    10    6    8 1    
    11    6   56 1    
    12    7   12 1    
    13    8    9 1    
    14    8   10 1    
    15    8   57 1    
    16    9   58 1    
    17   10   11 1    
    18   10   12 1    
    19   10   59 1    
    20   11   60 1    
    21   12   13 1    
    22   12   61 1    
    23   13   14 1    
    24   13   22 1    
    25   14   15 2    
    26   14   62 1    
    27   15   16 1    
    28   16   17 ar   
    29   16   22 ar   
    30   17   18 1    
    31   17   19 ar   
    32   18   63 1    
    33   18   64 1    
    34   19   20 ar   
    35   20   21 ar   
    36   20   65 1    
    37   21   22 ar   
    38   23   24 1    
    39   23   40 2    
    40   24   25 2    
    41   24   26 am   
    42   26   27 am   
    43   26   66 1    
    44   27   28 2    
    45   27   29 1    
    46   29   30 2    
    47   29   40 1    
    48   30   31 1    
    49   31   32 ar   
    50   31   38 ar   
    51   32   33 ar   
    52   32   67 1    
    53   33   34 1    
    54   33   35 ar   
    55   34   68 1    
    56   34   69 1    
    57   34   70 1    
    58   35   36 1    
    59   35   37 ar   
    60   36   71 1    
    61   36   72 1    
    62   36   73 1    
    63   37   38 ar   
    64   37   74 1    
    65   38   39 1    
    66   39   40 1    
    67   39   41 1    
    68   41   42 1    
    69   41   75 1    
    70   41   76 1    
    71   42   43 1    
    72   42   44 1    
    73   42   77 1    
    74   43   78 1    
    75   44   45 1    
    76   44   46 1    
    77   44   79 1    
    78   45   80 1    
    79   46   47 1    
    80   46   48 1    
    81   46   81 1    
    82   47   82 1    
    83   48   49 1    
    84   48   83 1    
    85   48   84 1    
    86   49   50 1    
    87   50   51 ar   
    88   50   52 ar   
    89   50   53 1    
@<TRIPOS>SUBSTRUCTURE
     1 FAD501      1 GROUP   
@<TRIPOS>SET
ATOM$ORANGE STATIC     ATOMS   COLORGROUP SYSTEM 
54 5 5 6 6 8 8 10 10 12 12 14 14 16 16 17 17 20 \
20 22 22 24 24 27 27 29 29 31 31 32 32 33 33 34 34 35 \
35 36 36 37 37 38 38 40 40 41 41 42 42 44 44 46 46 48 \
48 

