#    Name: 6n7v_2_TTP
#    Modification time : Fri May 22 19:24:28 2020

@<TRIPOS>MOLECULE
6n7v_2_TTP
   29    30     1     0     0
SMALL
NO_CHARGES


@<TRIPOS>ATOM
      1 PA        220.0100  241.3590  223.6020 P.3       1 TTP700      0.0000 
      2 O1A       220.6670  242.1510  222.5010 O.co2     1 TTP700      0.0000 
      3 O2A       218.5150  241.5340  223.5290 O.co2     1 TTP700      0.0000 
      4 O3A       220.3730  239.7750  223.3780 O.3       1 TTP700      0.0000 
      5 PB        220.7120  239.0130  221.9670 P.3       1 TTP700      0.0000 
      6 O1B       219.7700  239.5470  220.9230 O.co2     1 TTP700      0.0000 
      7 O2B       222.1410  239.3210  221.6000 O.co2     1 TTP700      0.0000 
      8 O3B       220.5130  237.3880  222.0920 O.3       1 TTP700      0.0000 
      9 PG        219.2090  236.4770  222.1770 P.3       1 TTP700      0.0000 
     10 O1G       218.0040  237.3250  221.8520 O.co2     1 TTP700      0.0000 
     11 O2G       219.0820  235.9070  223.5690 O.co2     1 TTP700      0.0000 
     12 O3G       219.3240  235.3460  221.1870 O.co2     1 TTP700      0.0000 
     13 O5'       220.5650  241.8900  225.0540 O.3       1 TTP700      0.0000 
     14 C5'       221.8810  242.3510  225.1340 C.3       1 TTP700      0.0000 
     15 C4'       222.1730  242.6960  226.6060 C.3       1 TTP700      0.0000 
     16 O4'       223.6000  242.6900  226.8550 O.3       1 TTP700      0.0000 
     17 C3'       221.6880  244.1180  226.8880 C.3       1 TTP700      0.0000 
     18 O3'       221.2260  244.2250  228.2660 O.3       1 TTP700      0.0000 
     19 C2'       222.9440  244.9440  226.6900 C.3       1 TTP700      0.0000 
     20 C1'       224.0390  244.0050  227.1520 C.3       1 TTP700      0.0000 
     21 N1        225.2560  244.2340  226.3690 N.am      1 TTP700      0.0000 
     22 C2        226.5760  244.4320  227.0150 C.2       1 TTP700      0.0000 
     23 O2        226.6110  244.4010  228.1960 O.2       1 TTP700      0.0000 
     24 N3        227.7770  244.6540  226.3410 N.am      1 TTP700      0.0000 
     25 C4        227.6520  244.6740  225.0010 C.2       1 TTP700      0.0000 
     26 O4        228.6850  244.8680  224.3450 O.2       1 TTP700      0.0000 
     27 C5        226.3890  244.4880  224.2330 C.2       1 TTP700      0.0000 
     28 C5M       226.3770  244.5340  222.7080 C.3       1 TTP700      0.0000 
     29 C6        225.2300  244.2730  224.9480 C.2       1 TTP700      0.0000 
@<TRIPOS>BOND
     1    1    2 ar   
     2    1    3 ar   
     3    1    4 1    
     4    1   13 1    
     5    4    5 1    
     6    5    6 ar   
     7    5    7 ar   
     8    5    8 1    
     9    8    9 1    
    10    9   10 ar   
    11    9   11 ar   
    12    9   12 ar   
    13   13   14 1    
    14   14   15 1    
    15   15   16 1    
    16   15   17 1    
    17   16   20 1    
    18   17   18 1    
    19   17   19 1    
    20   19   20 1    
    21   20   21 1    
    22   21   22 1    
    23   21   29 1    
    24   22   23 2    
    25   22   24 1    
    26   24   25 1    
    27   25   26 2    
    28   25   27 1    
    29   27   28 1    
    30   27   29 2    
@<TRIPOS>SUBSTRUCTURE
     1 TTP700      1 GROUP   
@<TRIPOS>SET

