#    Name: 6n7v_3_TTP
#    Modification time : Fri May 22 19:24:34 2020

@<TRIPOS>MOLECULE
6n7v_3_TTP
   29    30     1     0     0
SMALL
NO_CHARGES


@<TRIPOS>ATOM
      1 PA        226.3280  238.5240  192.0870 P.3       1 TTP700      0.0000 
      2 O1A       226.2830  238.3340  190.5910 O.co2     1 TTP700      0.0000 
      3 O2A       225.0410  239.1450  192.5630 O.co2     1 TTP700      0.0000 
      4 O3A       226.5290  237.0740  192.8170 O.3       1 TTP700      0.0000 
      5 PB        225.6350  235.7030  192.7980 P.3       1 TTP700      0.0000 
      6 O1B       226.4940  234.5530  192.3420 O.co2     1 TTP700      0.0000 
      7 O2B       224.4380  235.8660  191.8960 O.co2     1 TTP700      0.0000 
      8 O3B       225.0960  235.4290  194.3170 O.3       1 TTP700      0.0000 
      9 PG        223.6100  235.1800  194.8200 P.3       1 TTP700      0.0000 
     10 O1G       223.4120  233.7030  195.0420 O.co2     1 TTP700      0.0000 
     11 O2G       222.6590  235.6670  193.7540 O.co2     1 TTP700      0.0000 
     12 O3G       223.3920  235.9210  196.1140 O.co2     1 TTP700      0.0000 
     13 O5'       227.5970  239.4810  192.4910 O.3       1 TTP700      0.0000 
     14 C5'       227.3820  240.8560  192.5090 C.3       1 TTP700      0.0000 
     15 C4'       228.6370  241.5150  193.0980 C.3       1 TTP700      0.0000 
     16 O4'       229.7310  240.5860  193.0800 O.3       1 TTP700      0.0000 
     17 C3'       229.1380  242.6170  192.1780 C.3       1 TTP700      0.0000 
     18 O3'       228.4820  243.8710  192.5190 O.3       1 TTP700      0.0000 
     19 C2'       230.6210  242.6990  192.5210 C.3       1 TTP700      0.0000 
     20 C1'       230.8930  241.3760  193.2290 C.3       1 TTP700      0.0000 
     21 N1        231.9890  240.6620  192.5700 N.am      1 TTP700      0.0000 
     22 C2        233.4170  240.9900  192.8190 C.2       1 TTP700      0.0000 
     23 O2        233.6600  241.8640  193.5790 O.2       1 TTP700      0.0000 
     24 N3        234.5010  240.3480  192.2260 N.am      1 TTP700      0.0000 
     25 C4        234.1510  239.3650  191.3750 C.2       1 TTP700      0.0000 
     26 O4        235.0700  238.7570  190.8140 O.2       1 TTP700      0.0000 
     27 C5        232.7640  238.9400  191.0390 C.2       1 TTP700      0.0000 
     28 C5M       232.5030  237.8080  190.0510 C.3       1 TTP700      0.0000 
     29 C6        231.7270  239.6060  191.6530 C.2       1 TTP700      0.0000 
@<TRIPOS>BOND
     1    1    2 ar   
     2    1    3 ar   
     3    1    4 1    
     4    1   13 1    
     5    4    5 1    
     6    5    6 ar   
     7    5    7 ar   
     8    5    8 1    
     9    8    9 1    
    10    9   10 ar   
    11    9   11 ar   
    12    9   12 ar   
    13   13   14 1    
    14   14   15 1    
    15   15   16 1    
    16   15   17 1    
    17   16   20 1    
    18   17   18 1    
    19   17   19 1    
    20   19   20 1    
    21   20   21 1    
    22   21   22 1    
    23   21   29 1    
    24   22   23 2    
    25   22   24 1    
    26   24   25 1    
    27   25   26 2    
    28   25   27 1    
    29   27   28 1    
    30   27   29 2    
@<TRIPOS>SUBSTRUCTURE
     1 TTP700      1 GROUP   
@<TRIPOS>SET

