#    Name: 6n7v_1_TTP
#    Modification time : Fri May 22 19:24:23 2020

@<TRIPOS>MOLECULE
6n7v_1_TTP
   29    30     1     0     0
SMALL
NO_CHARGES


@<TRIPOS>ATOM
      1 PA        222.9950  216.7300  243.9630 P.3       1 TTP700      0.0000 
      2 O1A       222.9100  217.9040  244.9070 O.co2     1 TTP700      0.0000 
      3 O2A       221.6070  216.2030  243.6870 O.co2     1 TTP700      0.0000 
      4 O3A       223.6900  217.2110  242.5480 O.3       1 TTP700      0.0000 
      5 PB        223.2840  216.9760  240.9680 P.3       1 TTP700      0.0000 
      6 O1B       221.9150  217.5570  240.7090 O.co2     1 TTP700      0.0000 
      7 O2B       224.2970  217.6590  240.0810 O.co2     1 TTP700      0.0000 
      8 O3B       223.2670  215.3620  240.6400 O.3       1 TTP700      0.0000 
      9 PG        222.2110  214.4180  239.8950 P.3       1 TTP700      0.0000 
     10 O1G       220.9500  214.3240  240.7210 O.co2     1 TTP700      0.0000 
     11 O2G       222.8020  213.0400  239.7200 O.co2     1 TTP700      0.0000 
     12 O3G       221.8830  215.0000  238.5410 O.co2     1 TTP700      0.0000 
     13 O5'       223.9080  215.5400  244.6460 O.3       1 TTP700      0.0000 
     14 C5'       225.1670  215.8750  245.1550 C.3       1 TTP700      0.0000 
     15 C4'       225.2640  215.4220  246.6290 C.3       1 TTP700      0.0000 
     16 O4'       226.6510  215.3900  247.0520 O.3       1 TTP700      0.0000 
     17 C3'       224.5710  216.4400  247.5370 C.3       1 TTP700      0.0000 
     18 O3'       223.2110  216.0000  247.8340 O.3       1 TTP700      0.0000 
     19 C2'       225.4190  216.3970  248.7960 C.3       1 TTP700      0.0000 
     20 C1'       226.8140  216.1340  248.2520 C.3       1 TTP700      0.0000 
     21 N1        227.4710  217.4050  247.9080 N.am      1 TTP700      0.0000 
     22 C2        228.9520  217.5360  247.8670 C.2       1 TTP700      0.0000 
     23 O2        229.5930  216.5730  248.1230 O.2       1 TTP700      0.0000 
     24 N3        229.6500  218.7060  247.5500 N.am      1 TTP700      0.0000 
     25 C4        228.8520  219.7590  247.2710 C.2       1 TTP700      0.0000 
     26 O4        229.4130  220.8270  246.9820 O.2       1 TTP700      0.0000 
     27 C5        227.3600  219.7590  247.2770 C.2       1 TTP700      0.0000 
     28 C5M       226.5680  221.0200  246.9410 C.3       1 TTP700      0.0000 
     29 C6        226.7200  218.5770  247.5960 C.2       1 TTP700      0.0000 
@<TRIPOS>BOND
     1    1    2 ar   
     2    1    3 ar   
     3    1    4 1    
     4    1   13 1    
     5    4    5 1    
     6    5    6 ar   
     7    5    7 ar   
     8    5    8 1    
     9    8    9 1    
    10    9   10 ar   
    11    9   11 ar   
    12    9   12 ar   
    13   13   14 1    
    14   14   15 1    
    15   15   16 1    
    16   15   17 1    
    17   16   20 1    
    18   17   18 1    
    19   17   19 1    
    20   19   20 1    
    21   20   21 1    
    22   21   22 1    
    23   21   29 1    
    24   22   23 2    
    25   22   24 1    
    26   24   25 1    
    27   25   26 2    
    28   25   27 1    
    29   27   28 1    
    30   27   29 2    
@<TRIPOS>SUBSTRUCTURE
     1 TTP700      1 GROUP   
@<TRIPOS>SET

