#    Name: 6n7v_1_TTP_CAVITY_N1_8
#    Modification time : Fri May 22 19:24:24 2020

@<TRIPOS>MOLECULE
6n7v_1_TTP_CAVITY_N1_8
  113     0     7     0     0
SMALL
NO_CHARGES


@<TRIPOS>ATOM
      1 OG        220.8300  216.6800  246.0200 O.3       1 SER1        0.0000 
      2 OG        221.7100  215.7100  246.7600 O.3       1 SER1        0.0000 
      3 OG        222.9100  216.2600  246.0600 O.3       1 SER1        0.0000 
      4 OG        223.2500  217.7800  244.6200 O.3       1 SER1        0.0000 
      5 OG        224.1200  216.8100  245.3600 O.3       1 SER1        0.0000 
      6 OG        221.8900  216.7100  247.8600 O.3       1 SER1        0.0000 
      7 OG        223.9700  216.2900  247.9000 O.3       1 SER1        0.0000 
      8 OG        224.3000  217.8100  246.4600 O.3       1 SER1        0.0000 
      9 OG        225.1700  216.8400  247.2000 O.3       1 SER1        0.0000 
     10 OG        222.0700  217.7200  248.9600 O.3       1 SER1        0.0000 
     11 OG        222.9400  216.7500  249.7000 O.3       1 SER1        0.0000 
     12 OG        223.8100  215.7800  250.4400 O.3       1 SER1        0.0000 
     13 OG        224.1500  217.3000  249.0000 O.3       1 SER1        0.0000 
     14 OG        225.0200  216.3300  249.7400 O.3       1 SER1        0.0000 
     15 OG        225.3500  217.8500  248.3000 O.3       1 SER1        0.0000 
     16 OG        226.2300  216.8800  249.0400 O.3       1 SER1        0.0000 
     17 OG        225.6900  219.3700  246.8600 O.3       1 SER1        0.0000 
     18 OG        221.9100  217.2000  251.5000 O.3       1 SER1        0.0000 
     19 OG        222.2500  218.7200  250.0600 O.3       1 SER1        0.0000 
     20 N         222.7300  215.2600  244.9600 N.am      2 ALA2        0.0000 
     21 O         222.1900  217.7400  242.7800 O.2       2 ALA2        0.0000 
     22 N         224.8100  214.8400  245.0000 N.am      2 ALA2        0.0000 
     23 O         224.2700  217.3200  242.8200 O.2       2 ALA2        0.0000 
     24 N         226.0200  215.3800  244.3000 N.am      2 ALA2        0.0000 
     25 N         226.8900  214.4100  245.0400 N.am      2 ALA2        0.0000 
     26 N         220.5000  215.1600  247.4600 N.am      2 ALA2        0.0000 
     27 N         221.3700  214.1900  248.2000 N.am      2 ALA2        0.0000 
     28 N         223.7800  215.2900  246.8000 N.am      2 ALA2        0.0000 
     29 N         224.9900  215.8400  246.1000 N.am      2 ALA2        0.0000 
     30 N         225.8600  214.8700  246.8400 N.am      2 ALA2        0.0000 
     31 O         225.3300  217.3600  244.6600 O.2       2 ALA2        0.0000 
     32 O         220.3400  214.6500  250.0100 O.2       2 ALA2        0.0000 
     33 O         221.5500  215.2000  249.3000 O.2       2 ALA2        0.0000 
     34 N         222.4200  214.2300  250.0500 N.am      2 ALA2        0.0000 
     35 N         222.7600  215.7400  248.6000 N.am      2 ALA2        0.0000 
     36 N         223.6300  214.7700  249.3500 N.am      2 ALA2        0.0000 
     37 N         224.8400  215.3200  248.6400 N.am      2 ALA2        0.0000 
     38 N         226.0400  215.8700  247.9400 N.am      2 ALA2        0.0000 
     39 O         222.6000  215.2300  251.1500 O.2       2 ALA2        0.0000 
     40 N         228.3000  216.4600  249.0800 N.am      2 ALA2        0.0000 
     41 N         229.5100  217.0100  248.3800 N.am      2 ALA2        0.0000 
     42 N         230.3800  216.0400  249.1200 N.am      2 ALA2        0.0000 
     43 N         231.5900  216.5900  248.4200 N.am      2 ALA2        0.0000 
     44 N         232.4600  215.6200  249.1600 N.am      2 ALA2        0.0000 
     45 N         229.6900  218.0100  249.4800 N.am      2 ALA2        0.0000 
     46 N         230.5700  217.0400  250.2200 N.am      2 ALA2        0.0000 
     47 N         232.6400  216.6200  250.2600 N.am      2 ALA2        0.0000 
     48 N         221.2200  219.1800  251.8600 N.am      2 ALA2        0.0000 
     49 O         233.7000  216.6500  252.1100 O.2       2 ALA2        0.0000 
     50 OD1       222.7000  214.7700  241.3200 O.co2     3 ASP3        0.0000 
     51 OD1       223.5700  213.8000  242.0600 O.co2     3 ASP3        0.0000 
     52 OD1       221.6800  215.2200  243.1200 O.co2     3 ASP3        0.0000 
     53 OD1       222.8800  215.7700  242.4200 O.co2     3 ASP3        0.0000 
     54 OD1       221.8600  216.2300  244.2200 O.co2     3 ASP3        0.0000 
     55 OD1       219.2900  214.6100  248.1600 O.co2     3 ASP3        0.0000 
     56 OD1       220.1600  213.6400  248.9100 O.co2     3 ASP3        0.0000 
     57 OD1       219.6300  216.1300  246.7200 O.co2     3 ASP3        0.0000 
     58 OD1       226.2000  216.3900  245.4000 O.co2     3 ASP3        0.0000 
     59 OD1       227.0700  215.4200  246.1400 O.co2     3 ASP3        0.0000 
     60 OD1       226.3800  217.3900  246.5000 O.co2     3 ASP3        0.0000 
     61 OD1       227.2500  216.4200  247.2400 O.co2     3 ASP3        0.0000 
     62 OD1       226.7200  218.9100  245.0600 O.co2     3 ASP3        0.0000 
     63 OD1       229.3300  216.0000  247.2800 O.co2     3 ASP3        0.0000 
     64 OD1       224.6800  214.8100  251.1900 O.co2     3 ASP3        0.0000 
     65 OD1       226.5600  218.4000  247.6000 O.co2     3 ASP3        0.0000 
     66 OD1       227.7700  218.9500  246.9000 O.co2     3 ASP3        0.0000 
     67 OD1       228.6400  217.9800  247.6400 O.co2     3 ASP3        0.0000 
     68 OD1       228.1000  220.4600  245.4600 O.co2     3 ASP3        0.0000 
     69 OD1       230.7200  217.5500  247.6800 O.co2     3 ASP3        0.0000 
     70 OD1       220.1700  219.1400  250.0200 O.co2     3 ASP3        0.0000 
     71 OD1       231.4400  216.0700  250.9700 O.co2     3 ASP3        0.0000 
     72 OD1       229.1600  220.5000  247.3000 O.co2     3 ASP3        0.0000 
     73 OD1       222.1000  218.2100  252.6000 O.co2     3 ASP3        0.0000 
     74 NZ        219.4400  215.1300  245.6200 N.4       4 LYS4        0.0000 
     75 NZ        220.3200  214.1600  246.3600 N.4       4 LYS4        0.0000 
     76 NZ        220.6800  216.1700  248.5600 N.4       4 LYS4        0.0000 
     77 NZ        220.8600  217.1700  249.6600 N.4       4 LYS4        0.0000 
     78 NZ        220.7100  216.6500  252.2000 N.4       4 LYS4        0.0000 
     79 NZ        221.0400  218.1700  250.7600 N.4       4 LYS4        0.0000 
     80 NZ        233.5200  215.6500  251.0100 N.4       4 LYS4        0.0000 
     81 NZ        220.0200  218.6300  252.5600 N.4       4 LYS4        0.0000 
     82 CZ        227.4300  217.4300  248.3400 C.ar      5 PHE5        0.0000 
     83 CZ        225.8700  220.3700  247.9600 C.ar      5 PHE5        0.0000 
     84 CZ        226.7400  219.4000  248.7000 C.ar      5 PHE5        0.0000 
     85 CZ        228.4900  217.4600  250.1800 C.ar      5 PHE5        0.0000 
     86 CZ        227.0800  220.9200  247.2600 C.ar      5 PHE5        0.0000 
     87 CZ        227.9500  219.9500  248.0000 C.ar      5 PHE5        0.0000 
     88 CZ        228.8200  218.9800  248.7400 C.ar      5 PHE5        0.0000 
     89 CZ        227.2600  221.9200  248.3600 C.ar      5 PHE5        0.0000 
     90 CA        220.4700  214.6700  243.8200 C.3       6 GLY6        0.0000 
     91 CA        223.7600  214.8000  243.1600 C.3       6 GLY6        0.0000 
     92 CA        224.6300  213.8300  243.9000 C.3       6 GLY6        0.0000 
     93 CA        224.0900  216.3200  241.7200 C.3       6 GLY6        0.0000 
     94 CA        224.9600  215.3500  242.4600 C.3       6 GLY6        0.0000 
     95 CA        225.8300  214.3800  243.2000 C.3       6 GLY6        0.0000 
     96 CA        219.7800  216.6500  244.1800 C.3       6 GLY6        0.0000 
     97 CA        220.6500  215.6800  244.9200 C.3       6 GLY6        0.0000 
     98 CA        221.5200  214.7100  245.6600 C.3       6 GLY6        0.0000 
     99 CA        220.9900  217.2000  243.4800 C.3       6 GLY6        0.0000 
    100 CA        225.1400  216.3500  243.5600 C.3       6 GLY6        0.0000 
    101 CA        225.5100  218.3600  245.7600 C.3       6 GLY6        0.0000 
    102 CA        228.1200  215.4500  247.9800 C.3       6 GLY6        0.0000 
    103 CA        224.8200  220.3400  246.1200 C.3       6 GLY6        0.0000 
    104 CA        226.9000  219.9200  246.1600 C.3       6 GLY6        0.0000 
    105 CA        222.7900  216.2300  252.2500 C.3       6 GLY6        0.0000 
    106 CA        226.2100  221.8900  246.5200 C.3       6 GLY6        0.0000 
    107 CA        228.2900  221.4700  246.5600 C.3       6 GLY6        0.0000 
    108 CA        220.8900  217.6600  253.3000 C.3       6 GLY6        0.0000 
    109 CA        220.3500  220.1500  251.1200 C.3       6 GLY6        0.0000 
    110 CA        228.4700  222.4700  247.6600 C.3       6 GLY6        0.0000 
    111 DU        223.0700  216.7700  243.5200 H         7 CUB7        0.0000 
    112 DU        223.9400  215.8100  244.2600 H         7 CUB7        0.0000 
    113 DU        221.7300  216.2000  250.4000 H         7 CUB7        0.0000 
@<TRIPOS>BOND
@<TRIPOS>SUBSTRUCTURE
     1 SER1        1 GROUP   
     2 ALA2       20 GROUP   
     3 ASP3       50 GROUP   
     4 LYS4       74 GROUP   
     5 PHE5       82 GROUP   
     6 GLY6       90 GROUP   
     7 CUB7      111 GROUP   
@<TRIPOS>SET

