#    Name: 6n7v_5_TTP
#    Modification time : Fri May 22 19:24:45 2020

@<TRIPOS>MOLECULE
6n7v_5_TTP
   29    30     1     0     0
SMALL
NO_CHARGES


@<TRIPOS>ATOM
      1 PA        225.4080  181.6130  193.9780 P.3       1 TTP700      0.0000 
      2 O1A       225.2050  180.5880  195.0680 O.co2     1 TTP700      0.0000 
      3 O2A       225.0300  181.0120  192.6450 O.co2     1 TTP700      0.0000 
      4 O3A       224.4620  182.9290  194.2760 O.3       1 TTP700      0.0000 
      5 PB        222.8280  183.1430  194.3240 P.3       1 TTP700      0.0000 
      6 O1B       222.2730  182.4960  195.5710 O.co2     1 TTP700      0.0000 
      7 O2B       222.2020  182.5070  193.1060 O.co2     1 TTP700      0.0000 
      8 O3B       222.4860  184.7550  194.3410 O.3       1 TTP700      0.0000 
      9 PG        221.1190  185.5750  194.2070 P.3       1 TTP700      0.0000 
     10 O1G       221.0980  186.6880  195.2280 O.co2     1 TTP700      0.0000 
     11 O2G       219.9490  184.6500  194.4470 O.co2     1 TTP700      0.0000 
     12 O3G       221.0190  186.1640  192.8200 O.co2     1 TTP700      0.0000 
     13 O5'       226.9910  182.0740  193.9430 O.3       1 TTP700      0.0000 
     14 C5'       227.3970  182.9810  192.9580 C.3       1 TTP700      0.0000 
     15 C4'       228.7250  182.5250  192.3080 C.3       1 TTP700      0.0000 
     16 O4'       229.8480  183.2000  192.9270 O.3       1 TTP700      0.0000 
     17 C3'       228.9910  181.0440  192.5650 C.3       1 TTP700      0.0000 
     18 O3'       228.3980  180.2390  191.5030 O.3       1 TTP700      0.0000 
     19 C2'       230.5060  180.9630  192.4970 C.3       1 TTP700      0.0000 
     20 C1'       230.9480  182.3070  193.0650 C.3       1 TTP700      0.0000 
     21 N1        231.2580  182.1820  194.4990 N.am      1 TTP700      0.0000 
     22 C2        232.6570  182.2410  195.0020 C.2       1 TTP700      0.0000 
     23 O2        233.5180  182.3920  194.2020 O.2       1 TTP700      0.0000 
     24 N3        233.0370  182.1320  196.3430 N.am      1 TTP700      0.0000 
     25 C4        232.0030  181.9620  197.1920 C.2       1 TTP700      0.0000 
     26 O4        232.2770  181.8590  198.3970 O.2       1 TTP700      0.0000 
     27 C5        230.5600  181.8870  196.8180 C.2       1 TTP700      0.0000 
     28 C5M       229.4780  181.6910  197.8780 C.3       1 TTP700      0.0000 
     29 C6        230.2370  182.0000  195.4790 C.2       1 TTP700      0.0000 
@<TRIPOS>BOND
     1    1    2 ar   
     2    1    3 ar   
     3    1    4 1    
     4    1   13 1    
     5    4    5 1    
     6    5    6 ar   
     7    5    7 ar   
     8    5    8 1    
     9    8    9 1    
    10    9   10 ar   
    11    9   11 ar   
    12    9   12 ar   
    13   13   14 1    
    14   14   15 1    
    15   15   16 1    
    16   15   17 1    
    17   16   20 1    
    18   17   18 1    
    19   17   19 1    
    20   19   20 1    
    21   20   21 1    
    22   21   22 1    
    23   21   29 1    
    24   22   23 2    
    25   22   24 1    
    26   24   25 1    
    27   25   26 2    
    28   25   27 1    
    29   27   28 1    
    30   27   29 2    
@<TRIPOS>SUBSTRUCTURE
     1 TTP700      1 GROUP   
@<TRIPOS>SET

