#    Name: 6n7v_4_TTP
#    Modification time : Fri May 22 19:24:39 2020

@<TRIPOS>MOLECULE
6n7v_4_TTP
   29    30     1     0     0
SMALL
NO_CHARGES


@<TRIPOS>ATOM
      1 PA        230.9590  209.4700  177.9410 P.3       1 TTP700      0.0000 
      2 O1A       231.1480  208.0140  177.5900 O.co2     1 TTP700      0.0000 
      3 O2A       229.9540  210.0890  176.9980 O.co2     1 TTP700      0.0000 
      4 O3A       230.4080  209.5950  179.4890 O.3       1 TTP700      0.0000 
      5 PB        229.0950  208.9690  180.2630 P.3       1 TTP700      0.0000 
      6 O1B       229.5370  207.8520  181.1780 O.co2     1 TTP700      0.0000 
      7 O2B       228.1190  208.4300  179.2450 O.co2     1 TTP700      0.0000 
      8 O3B       228.3680  210.1510  181.1520 O.3       1 TTP700      0.0000 
      9 PG        226.8470  210.6290  181.2860 P.3       1 TTP700      0.0000 
     10 O1G       226.4260  210.5710  182.7350 O.co2     1 TTP700      0.0000 
     11 O2G       225.9600  209.7220  180.4670 O.co2     1 TTP700      0.0000 
     12 O3G       226.7200  212.0460  180.7810 O.co2     1 TTP700      0.0000 
     13 O5'       232.3990  210.2600  177.8060 O.3       1 TTP700      0.0000 
     14 C5'       232.4320  211.6340  178.0700 C.3       1 TTP700      0.0000 
     15 C4'       233.6780  212.2760  177.4160 C.3       1 TTP700      0.0000 
     16 O4'       234.7850  212.2960  178.3480 O.3       1 TTP700      0.0000 
     17 C3'       234.1920  211.4250  176.2590 C.3       1 TTP700      0.0000 
     18 O3'       233.5280  211.8130  175.0190 O.3       1 TTP700      0.0000 
     19 C2'       235.6630  211.8000  176.2010 C.3       1 TTP700      0.0000 
     20 C1'       236.0100  212.0590  177.6630 C.3       1 TTP700      0.0000 
     21 N1        236.6440  210.8700  178.2570 N.am      1 TTP700      0.0000 
     22 C2        238.0910  210.8470  178.6010 C.2       1 TTP700      0.0000 
     23 O2        238.7200  211.8260  178.3780 O.2       1 TTP700      0.0000 
     24 N3        238.7680  209.7620  179.1660 N.am      1 TTP700      0.0000 
     25 C4        237.9860  208.6860  179.3890 C.2       1 TTP700      0.0000 
     26 O4        238.5300  207.6900  179.8900 O.2       1 TTP700      0.0000 
     27 C5        236.5270  208.5810  179.0910 C.2       1 TTP700      0.0000 
     28 C5M       235.7490  207.3020  179.3920 C.3       1 TTP700      0.0000 
     29 C6        235.9050  209.6810  178.5330 C.2       1 TTP700      0.0000 
@<TRIPOS>BOND
     1    1    2 ar   
     2    1    3 ar   
     3    1    4 1    
     4    1   13 1    
     5    4    5 1    
     6    5    6 ar   
     7    5    7 ar   
     8    5    8 1    
     9    8    9 1    
    10    9   10 ar   
    11    9   11 ar   
    12    9   12 ar   
    13   13   14 1    
    14   14   15 1    
    15   15   16 1    
    16   15   17 1    
    17   16   20 1    
    18   17   18 1    
    19   17   19 1    
    20   19   20 1    
    21   20   21 1    
    22   21   22 1    
    23   21   29 1    
    24   22   23 2    
    25   22   24 1    
    26   24   25 1    
    27   25   26 2    
    28   25   27 1    
    29   27   28 1    
    30   27   29 2    
@<TRIPOS>SUBSTRUCTURE
     1 TTP700      1 GROUP   
@<TRIPOS>SET

