#    Name: 6n7v_4_TTP_CAVITY_N1_6
#    Modification time : Fri May 22 19:24:41 2020

@<TRIPOS>MOLECULE
6n7v_4_TTP_CAVITY_N1_6
  130     0     7     0     0
SMALL
NO_CHARGES


@<TRIPOS>ATOM
      1 OG        234.8100  208.9700  170.9500 O.3       1 SER1        0.0000 
      2 OG        236.0200  209.5200  170.2500 O.3       1 SER1        0.0000 
      3 OG        232.5800  208.8800  173.4500 O.3       1 SER1        0.0000 
      4 OG        233.7800  209.4300  172.7500 O.3       1 SER1        0.0000 
      5 OG        234.1200  210.9500  171.3100 O.3       1 SER1        0.0000 
      6 OG        229.4700  209.7500  175.2100 O.3       1 SER1        0.0000 
      7 OG        230.6800  210.3000  174.5100 O.3       1 SER1        0.0000 
      8 OG        231.8900  210.8500  173.8100 O.3       1 SER1        0.0000 
      9 OG        232.7600  209.8800  174.5500 O.3       1 SER1        0.0000 
     10 OG        233.0900  211.4000  173.1100 O.3       1 SER1        0.0000 
     11 OG        233.9600  210.4300  173.8500 O.3       1 SER1        0.0000 
     12 OG        230.5300  209.7900  177.0500 O.3       1 SER1        0.0000 
     13 OG        231.4000  208.8200  177.7900 O.3       1 SER1        0.0000 
     14 OG        231.7300  210.3400  176.3500 O.3       1 SER1        0.0000 
     15 OG        233.4800  208.4000  177.8300 O.3       1 SER1        0.0000 
     16 OG        232.9400  210.8900  175.6500 O.3       1 SER1        0.0000 
     17 OG        233.8100  209.9200  176.3900 O.3       1 SER1        0.0000 
     18 OG        234.6800  208.9500  177.1300 O.3       1 SER1        0.0000 
     19 OG        234.1500  211.4400  174.9500 O.3       1 SER1        0.0000 
     20 OG        235.0200  210.4700  175.6900 O.3       1 SER1        0.0000 
     21 OG        232.7900  210.3700  178.1900 O.3       1 SER1        0.0000 
     22 O         233.2500  211.9200  170.5700 O.2       2 ALA2        0.0000 
     23 O         227.3900  210.1700  175.1700 O.2       2 ALA2        0.0000 
     24 N         231.0100  211.8200  173.0700 N.am      2 ALA2        0.0000 
     25 O         232.2200  212.3700  172.3700 O.2       2 ALA2        0.0000 
     26 O         234.3000  211.9500  172.4100 O.2       2 ALA2        0.0000 
     27 O         226.7000  212.1500  175.5300 O.2       2 ALA2        0.0000 
     28 O         227.5700  211.1800  176.2700 O.2       2 ALA2        0.0000 
     29 O         228.4500  210.2100  177.0100 O.2       2 ALA2        0.0000 
     30 O         230.1900  208.2700  178.4900 O.2       2 ALA2        0.0000 
     31 N         229.1200  213.2500  174.1300 N.am      2 ALA2        0.0000 
     32 N         229.9900  212.2800  174.8700 N.am      2 ALA2        0.0000 
     33 N         230.8600  211.3100  175.6100 N.am      2 ALA2        0.0000 
     34 N         230.3200  213.8000  173.4300 N.am      2 ALA2        0.0000 
     35 N         232.0700  211.8600  174.9100 N.am      2 ALA2        0.0000 
     36 N         233.2700  212.4100  174.2100 N.am      2 ALA2        0.0000 
     37 N         234.4800  212.9500  173.5100 N.am      2 ALA2        0.0000 
     38 O         229.1600  208.7200  180.2900 O.2       2 ALA2        0.0000 
     39 O         230.3700  209.2700  179.5900 O.2       2 ALA2        0.0000 
     40 O         231.5800  209.8200  178.8900 O.2       2 ALA2        0.0000 
     41 N         231.9100  211.3400  177.4500 N.am      2 ALA2        0.0000 
     42 N         233.1200  211.8900  176.7500 N.am      2 ALA2        0.0000 
     43 N         236.6100  208.0100  179.7200 N.am      2 ALA2        0.0000 
     44 N         234.3300  212.4400  176.0500 N.am      2 ALA2        0.0000 
     45 N         235.5400  212.9900  175.3500 N.am      2 ALA2        0.0000 
     46 O         228.4700  210.7000  180.6500 O.2       2 ALA2        0.0000 
     47 N         232.1000  212.3500  178.5500 N.am      2 ALA2        0.0000 
     48 N         232.9700  211.3800  179.2900 N.am      2 ALA2        0.0000 
     49 N         233.3000  212.8900  177.8500 N.am      2 ALA2        0.0000 
     50 N         234.1700  211.9200  178.5900 N.am      2 ALA2        0.0000 
     51 N         235.0500  210.9500  179.3300 N.am      2 ALA2        0.0000 
     52 N         238.8700  208.5900  180.8600 N.am      2 ALA2        0.0000 
     53 N         238.3300  211.0800  178.6700 N.am      2 ALA2        0.0000 
     54 N         232.2800  213.3500  179.6500 N.am      2 ALA2        0.0000 
     55 N         234.3600  212.9300  179.6900 N.am      2 ALA2        0.0000 
     56 N         237.6400  213.0600  179.0300 N.am      2 ALA2        0.0000 
     57 N         238.5100  212.0900  179.7700 N.am      2 ALA2        0.0000 
     58 OD1       228.7500  211.2400  171.9300 O.co2     3 ASP3        0.0000 
     59 OD1       235.3300  211.5000  170.6100 O.co2     3 ASP3        0.0000 
     60 OD1       228.6000  210.7200  174.4700 O.co2     3 ASP3        0.0000 
     61 OD1       228.0600  213.2100  172.2900 O.co2     3 ASP3        0.0000 
     62 OD1       228.9400  212.2400  173.0300 O.co2     3 ASP3        0.0000 
     63 OD1       230.1400  212.7900  172.3300 O.co2     3 ASP3        0.0000 
     64 OD1       227.4200  210.6600  178.8100 O.co2     3 ASP3        0.0000 
     65 OD1       228.2900  209.6900  179.5500 O.co2     3 ASP3        0.0000 
     66 OD1       236.4100  212.0200  176.0900 O.co2     3 ASP3        0.0000 
     67 OD1       226.4000  211.1200  180.6100 O.co2     3 ASP3        0.0000 
     68 OD1       227.2700  210.1500  181.3500 O.co2     3 ASP3        0.0000 
     69 OD1       227.6000  211.6700  179.9100 O.co2     3 ASP3        0.0000 
     70 OD1       235.9200  209.9800  180.0700 O.co2     3 ASP3        0.0000 
     71 OD1       236.7900  209.0200  180.8100 O.co2     3 ASP3        0.0000 
     72 OD1       237.1200  210.5300  179.3700 O.co2     3 ASP3        0.0000 
     73 OD1       238.0000  209.5600  180.1100 O.co2     3 ASP3        0.0000 
     74 OD1       237.4600  212.0500  177.9300 O.co2     3 ASP3        0.0000 
     75 OD1       226.5800  212.1200  181.7100 O.co2     3 ASP3        0.0000 
     76 OD1       227.7800  212.6700  181.0100 O.co2     3 ASP3        0.0000 
     77 OD1       236.4300  212.5100  179.7300 O.co2     3 ASP3        0.0000 
     78 NZ        233.6000  208.4200  171.6500 N.4       4 LYS4        0.0000 
     79 NZ        233.0700  210.9100  169.4700 N.4       4 LYS4        0.0000 
     80 NZ        233.9400  209.9400  170.2100 N.4       4 LYS4        0.0000 
     81 NZ        235.1400  210.4900  169.5100 N.4       4 LYS4        0.0000 
     82 NZ        227.5500  210.6900  172.6300 N.4       4 LYS4        0.0000 
     83 NZ        229.6300  210.2700  172.6700 N.4       4 LYS4        0.0000 
     84 NZ        230.8300  210.8200  171.9700 N.4       4 LYS4        0.0000 
     85 NZ        231.7000  209.8500  172.7100 N.4       4 LYS4        0.0000 
     86 NZ        232.0400  211.3700  171.2700 N.4       4 LYS4        0.0000 
     87 NZ        232.9100  210.4000  172.0100 N.4       4 LYS4        0.0000 
     88 NZ        226.5200  211.1400  174.4300 N.4       4 LYS4        0.0000 
     89 NZ        227.7300  211.6900  173.7300 N.4       4 LYS4        0.0000 
     90 NZ        227.0400  213.6700  174.0900 N.4       4 LYS4        0.0000 
     91 CZ        228.2500  214.2200  173.3900 C.ar      5 PHE5        0.0000 
     92 CZ        235.5500  207.9800  177.8700 C.ar      5 PHE5        0.0000 
     93 CZ        236.4300  207.0100  178.6200 C.ar      5 PHE5        0.0000 
     94 CZ        235.8900  209.5000  176.4300 C.ar      5 PHE5        0.0000 
     95 CZ        238.5000  206.5900  178.6600 C.ar      5 PHE5        0.0000 
     96 CZ        236.0700  210.5000  177.5300 C.ar      5 PHE5        0.0000 
     97 CZ        236.9400  209.5300  178.2700 C.ar      5 PHE5        0.0000 
     98 CZ        237.8100  208.5600  179.0100 C.ar      5 PHE5        0.0000 
     99 CZ        237.2800  211.0500  176.8300 C.ar      5 PHE5        0.0000 
    100 CZ        238.1500  210.0800  177.5700 C.ar      5 PHE5        0.0000 
    101 CZ        239.0200  209.1100  178.3100 C.ar      5 PHE5        0.0000 
    102 CA        228.2600  209.2000  175.9100 C.3       6 GLY6        0.0000 
    103 CA        229.3200  209.2400  177.7500 C.3       6 GLY6        0.0000 
    104 CA        227.9100  212.7000  174.8300 C.3       6 GLY6        0.0000 
    105 CA        228.7800  211.7300  175.5700 C.3       6 GLY6        0.0000 
    106 CA        228.6300  211.2100  178.1100 C.3       6 GLY6        0.0000 
    107 CA        229.8400  211.7600  177.4100 C.3       6 GLY6        0.0000 
    108 CA        233.6600  209.4000  178.9300 C.3       6 GLY6        0.0000 
    109 CA        234.5300  208.4300  179.6700 C.3       6 GLY6        0.0000 
    110 CA        235.7400  208.9800  178.9700 C.3       6 GLY6        0.0000 
    111 CA        237.4800  207.0400  180.4600 C.3       6 GLY6        0.0000 
    112 CA        238.6900  207.5900  179.7600 C.3       6 GLY6        0.0000 
    113 CA        239.8900  208.1400  179.0500 C.3       6 GLY6        0.0000 
    114 CA        228.8100  212.2200  179.2100 C.3       6 GLY6        0.0000 
    115 CA        229.6800  211.2500  179.9500 C.3       6 GLY6        0.0000 
    116 CA        230.0200  212.7700  178.5100 C.3       6 GLY6        0.0000 
    117 CA        230.8900  211.8000  179.2500 C.3       6 GLY6        0.0000 
    118 CA        234.5100  213.4400  177.1500 C.3       6 GLY6        0.0000 
    119 CA        235.3800  212.4700  177.8900 C.3       6 GLY6        0.0000 
    120 CA        236.5900  213.0200  177.1900 C.3       6 GLY6        0.0000 
    121 CA        228.9900  213.2200  180.3100 C.3       6 GLY6        0.0000 
    122 CA        230.2000  213.7700  179.6100 C.3       6 GLY6        0.0000 
    123 DU        229.8100  211.2700  173.7700 H         7 CUB7        0.0000 
    124 DU        229.6500  210.7600  176.3100 H         7 CUB7        0.0000 
    125 DU        229.5000  210.2400  178.8500 H         7 CUB7        0.0000 
    126 DU        230.7100  210.7900  178.1500 H         7 CUB7        0.0000 
    127 DU        233.9900  210.9200  177.4900 H         7 CUB7        0.0000 
    128 DU        234.8600  209.9500  178.2300 H         7 CUB7        0.0000 
    129 DU        235.2000  211.4700  176.7900 H         7 CUB7        0.0000 
    130 DU        236.2500  211.5000  178.6300 H         7 CUB7        0.0000 
@<TRIPOS>BOND
@<TRIPOS>SUBSTRUCTURE
     1 SER1        1 GROUP   
     2 ALA2       22 GROUP   
     3 ASP3       58 GROUP   
     4 LYS4       78 GROUP   
     5 PHE5       91 GROUP   
     6 GLY6      102 GROUP   
     7 CUB7      123 GROUP   
@<TRIPOS>SET

