#    Name: 6n7v_3_TTP_CAVITY_N1_12
#    Modification time : Fri May 22 19:24:35 2020

@<TRIPOS>MOLECULE
6n7v_3_TTP_CAVITY_N1_12
   77     0     7     0     0
SMALL
NO_CHARGES


@<TRIPOS>ATOM
      1 OG        224.2500  234.0000  194.8600 O.3       1 SER1        0.0000 
      2 OG        225.2600  238.5600  190.5300 O.3       1 SER1        0.0000 
      3 OG        224.5700  240.5300  190.8900 O.3       1 SER1        0.0000 
      4 OG        225.4400  239.5600  191.6300 O.3       1 SER1        0.0000 
      5 OG        226.3100  238.5900  192.3700 O.3       1 SER1        0.0000 
      6 OG        225.7800  241.0800  190.1900 O.3       1 SER1        0.0000 
      7 OG        227.7000  240.1500  192.7700 O.3       1 SER1        0.0000 
      8 O         225.4600  234.5500  194.1600 O.2       2 ALA2        0.0000 
      9 O         225.8000  236.0700  192.7100 O.2       2 ALA2        0.0000 
     10 N         223.2300  234.4600  196.6600 N.am      2 ALA2        0.0000 
     11 O         224.4400  235.0100  195.9600 O.2       2 ALA2        0.0000 
     12 O         227.1900  237.6200  193.1100 O.2       2 ALA2        0.0000 
     13 N         223.8800  242.5100  191.2500 N.am      2 ALA2        0.0000 
     14 N         224.7500  241.5400  191.9900 N.am      2 ALA2        0.0000 
     15 N         225.6200  240.5700  192.7300 N.am      2 ALA2        0.0000 
     16 N         226.5000  239.6000  193.4700 N.am      2 ALA2        0.0000 
     17 N         227.3700  238.6300  194.2100 N.am      2 ALA2        0.0000 
     18 N         226.8300  241.1200  192.0300 N.am      2 ALA2        0.0000 
     19 N         222.8500  242.9600  193.0500 N.am      2 ALA2        0.0000 
     20 N         226.6800  240.6000  194.5700 N.am      2 ALA2        0.0000 
     21 N         227.5500  239.6300  195.3100 N.am      2 ALA2        0.0000 
     22 N         223.0400  243.9700  194.1500 N.am      2 ALA2        0.0000 
     23 OD1       224.4100  234.5200  192.3200 O.co2     3 ASP3        0.0000 
     24 OD1       223.3800  234.9700  194.1200 O.co2     3 ASP3        0.0000 
     25 OD1       221.9700  238.4300  191.1900 O.co2     3 ASP3        0.0000 
     26 OD1       224.5900  235.5200  193.4200 O.co2     3 ASP3        0.0000 
     27 OD1       222.3100  239.9500  189.7500 O.co2     3 ASP3        0.0000 
     28 OD1       224.0500  238.0100  191.2300 O.co2     3 ASP3        0.0000 
     29 OD1       224.9200  237.0400  191.9700 O.co2     3 ASP3        0.0000 
     30 OD1       223.5600  235.9800  195.2200 O.co2     3 ASP3        0.0000 
     31 OD1       223.9000  237.5000  193.7700 O.co2     3 ASP3        0.0000 
     32 OD1       223.7000  241.5000  190.1500 O.co2     3 ASP3        0.0000 
     33 OD1       221.8000  242.9300  191.2100 O.co2     3 ASP3        0.0000 
     34 OD1       223.0100  243.4800  190.5100 O.co2     3 ASP3        0.0000 
     35 OD1       220.7800  243.3800  193.0100 O.co2     3 ASP3        0.0000 
     36 OD1       221.9800  243.9300  192.3100 O.co2     3 ASP3        0.0000 
     37 OD1       218.8800  244.8100  194.0700 O.co2     3 ASP3        0.0000 
     38 OD1       220.9600  244.3900  194.1100 O.co2     3 ASP3        0.0000 
     39 NZ        221.1000  239.4000  190.4500 N.4       4 LYS4        0.0000 
     40 NZ        220.0800  239.8600  192.2500 N.4       4 LYS4        0.0000 
     41 NZ        221.2800  240.4100  191.5500 N.4       4 LYS4        0.0000 
     42 NZ        221.6200  241.9200  190.1100 N.4       4 LYS4        0.0000 
     43 NZ        222.4900  240.9500  190.8500 N.4       4 LYS4        0.0000 
     44 NZ        219.3900  241.8300  192.6100 N.4       4 LYS4        0.0000 
     45 NZ        220.5900  242.3800  191.9100 N.4       4 LYS4        0.0000 
     46 NZ        217.6700  244.2600  194.7700 N.4       4 LYS4        0.0000 
     47 NZ        218.5400  243.2900  195.5100 N.4       4 LYS4        0.0000 
     48 NZ        218.1900  246.7800  194.4200 N.4       4 LYS4        0.0000 
     49 NZ        219.0600  245.8100  195.1700 N.4       4 LYS4        0.0000 
     50 NZ        219.9300  244.8400  195.9100 N.4       4 LYS4        0.0000 
     51 NZ        220.8000  243.8700  196.6500 N.4       4 LYS4        0.0000 
     52 CZ        222.1600  244.9400  193.4100 C.ar      5 PHE5        0.0000 
     53 CZ        220.2700  246.3600  194.4700 C.ar      5 PHE5        0.0000 
     54 CZ        221.1400  245.3900  195.2100 C.ar      5 PHE5        0.0000 
     55 CA        223.1800  238.9800  190.4900 C.3       6 GLY6        0.0000 
     56 CA        224.3900  239.5300  189.7900 C.3       6 GLY6        0.0000 
     57 CA        226.1300  237.5900  191.2700 C.3       6 GLY6        0.0000 
     58 CA        222.1600  239.4400  192.2900 C.3       6 GLY6        0.0000 
     59 CA        223.0300  238.4700  193.0300 C.3       6 GLY6        0.0000 
     60 CA        224.7700  236.5300  194.5200 C.3       6 GLY6        0.0000 
     61 CA        223.3600  239.9800  191.5900 C.3       6 GLY6        0.0000 
     62 CA        224.2300  239.0100  192.3300 C.3       6 GLY6        0.0000 
     63 CA        225.1100  238.0500  193.0700 C.3       6 GLY6        0.0000 
     64 CA        225.9800  237.0800  193.8100 C.3       6 GLY6        0.0000 
     65 CA        228.3900  238.1700  192.4100 C.3       6 GLY6        0.0000 
     66 CA        221.4700  241.4100  192.6500 C.3       6 GLY6        0.0000 
     67 CA        224.9500  237.5300  195.6100 C.3       6 GLY6        0.0000 
     68 CA        222.6700  241.9600  191.9500 C.3       6 GLY6        0.0000 
     69 CA        225.2900  239.0500  194.1700 C.3       6 GLY6        0.0000 
     70 CA        226.1600  238.0800  194.9100 C.3       6 GLY6        0.0000 
     71 CA        219.5700  242.8300  193.7100 C.3       6 GLY6        0.0000 
     72 CA        221.6500  242.4100  193.7500 C.3       6 GLY6        0.0000 
     73 CA        220.6200  242.8700  195.5500 C.3       6 GLY6        0.0000 
     74 CA        221.8300  243.4200  194.8500 C.3       6 GLY6        0.0000 
     75 CA        217.8500  245.2600  195.8700 C.3       6 GLY6        0.0000 
     76 CA        222.0100  244.4200  195.9500 C.3       6 GLY6        0.0000 
     77 DU        219.7500  243.8400  194.8100 H         7 CUB7        0.0000 
@<TRIPOS>BOND
@<TRIPOS>SUBSTRUCTURE
     1 SER1        1 GROUP   
     2 ALA2        8 GROUP   
     3 ASP3       23 GROUP   
     4 LYS4       39 GROUP   
     5 PHE5       52 GROUP   
     6 GLY6       55 GROUP   
     7 CUB7       77 GROUP   
@<TRIPOS>SET

