#    Name: 5zj6_2_VSE
#    Modification time : Fri May 22 19:24:31 2020

@<TRIPOS>MOLECULE
5zj6_2_VSE
   36    41     1     0     0
SMALL
NO_CHARGES


@<TRIPOS>ATOM
      1 NAK        77.0070   20.2940   49.6330 N.pl3     1 VSE601      0.0000 
      2 C6         78.0380   19.7080   50.5220 C.ar      1 VSE601      0.0000 
      3 C5         77.8190   19.5420   51.8880 C.ar      1 VSE601      0.0000 
      4 CAI        76.7730   19.8170   52.7760 C.2       1 VSE601      0.0000 
      5 CAJ        75.4430   20.1760   52.5260 C.ar      1 VSE601      0.0000 
      6 CAL        74.8580   21.1970   53.2690 C.ar      1 VSE601      0.0000 
      7 CAM        73.5340   21.5710   53.0610 C.ar      1 VSE601      0.0000 
      8 CAN        72.7640   20.9180   52.0990 C.ar      1 VSE601      0.0000 
      9 OBD        71.4450   21.2480   51.8750 O.3       1 VSE601      0.0000 
     10 CBE        71.0020   22.5230   51.6340 C.ar      1 VSE601      0.0000 
     11 CBF        71.7930   23.4340   50.9430 C.ar      1 VSE601      0.0000 
     12 CBG        71.3290   24.7250   50.6990 C.ar      1 VSE601      0.0000 
     13 CBH        70.0630   25.1010   51.1380 C.ar      1 VSE601      0.0000 
     14 CBI        69.2730   24.1840   51.8220 C.ar      1 VSE601      0.0000 
     15 CBJ        69.7320   22.8970   52.0650 C.ar      1 VSE601      0.0000 
     16 CAO        73.3410   19.8840   51.3660 C.ar      1 VSE601      0.0000 
     17 CAP        74.6680   19.5140   51.5780 C.ar      1 VSE601      0.0000 
     18 CAH        77.2280   19.4130   54.0300 C.2       1 VSE601      0.0000 
     19 NAG        78.4740   18.9230   53.9180 N.pl3     1 VSE601      0.0000 
     20 C4         78.8500   18.9940   52.6370 C.ar      1 VSE601      0.0000 
     21 N3         80.0080   18.6210   52.0410 N.ar      1 VSE601      0.0000 
     22 C2         80.1840   18.7880   50.7290 C.ar      1 VSE601      0.0000 
     23 N1         79.2150   19.3210   49.9810 N.ar      1 VSE601      0.0000 
     24 CAQ        79.3300   18.3760   55.0120 C.3       1 VSE601      0.0000 
     25 CAV        79.7940   19.4860   55.9590 C.3       1 VSE601      0.0000 
     26 CAU        80.6170   18.9310   57.1240 C.3       1 VSE601      0.0000 
     27 CAT        79.8110   17.8810   57.8850 C.3       1 VSE601      0.0000 
     28 CAS        79.4780   16.7620   56.9080 C.3       1 VSE601      0.0000 
     29 CAR        78.5820   17.3140   55.8060 C.3       1 VSE601      0.0000 
     30 NAW        80.5270   17.3550   59.0740 N.4       1 VSE601      0.0000 
     31 CAX        81.7780   16.6760   58.6950 C.3       1 VSE601      0.0000 
     32 CAY        82.4420   16.1280   59.9540 C.3       1 VSE601      0.0000 
     33 NAZ        82.7570   17.2440   60.8650 N.3       1 VSE601      0.0000 
     34 CBC        83.4480   16.7250   62.0590 C.3       1 VSE601      0.0000 
     35 CBA        81.5070   17.9190   61.2600 C.3       1 VSE601      0.0000 
     36 CBB        80.8140   18.4550   60.0110 C.3       1 VSE601      0.0000 
@<TRIPOS>BOND
     1    1    2 1    
     2    2    3 ar   
     3    2   23 ar   
     4    3    4 1    
     5    3   20 ar   
     6    4    5 1    
     7    4   18 2    
     8    5    6 ar   
     9    5   17 ar   
    10    6    7 ar   
    11    7    8 ar   
    12    8    9 1    
    13    8   16 ar   
    14    9   10 1    
    15   10   11 ar   
    16   10   15 ar   
    17   11   12 ar   
    18   12   13 ar   
    19   13   14 ar   
    20   14   15 ar   
    21   16   17 ar   
    22   18   19 1    
    23   19   20 1    
    24   19   24 1    
    25   20   21 ar   
    26   21   22 ar   
    27   22   23 ar   
    28   24   25 1    
    29   24   29 1    
    30   25   26 1    
    31   26   27 1    
    32   27   28 1    
    33   27   30 1    
    34   28   29 1    
    35   30   31 1    
    36   30   36 1    
    37   31   32 1    
    38   32   33 1    
    39   33   34 1    
    40   33   35 1    
    41   35   36 1    
@<TRIPOS>SUBSTRUCTURE
     1 VSE601      1 GROUP   
@<TRIPOS>SET

