#    Name: 5zj6_1_VSE
#    Modification time : Fri May 22 19:24:27 2020

@<TRIPOS>MOLECULE
5zj6_1_VSE
   36    41     1     0     0
SMALL
NO_CHARGES


@<TRIPOS>ATOM
      1 NAK        55.6310   39.2480   99.3550 N.pl3     1 VSE601      0.0000 
      2 C6         56.6750   39.8440   98.4820 C.ar      1 VSE601      0.0000 
      3 C5         56.4640   40.0370   97.1170 C.ar      1 VSE601      0.0000 
      4 CAI        55.4120   39.7820   96.2230 C.2       1 VSE601      0.0000 
      5 CAJ        54.0790   39.4310   96.4750 C.ar      1 VSE601      0.0000 
      6 CAL        53.4860   38.4170   95.7260 C.ar      1 VSE601      0.0000 
      7 CAM        52.1610   38.0550   95.9430 C.ar      1 VSE601      0.0000 
      8 CAN        51.3980   38.7050   96.9080 C.ar      1 VSE601      0.0000 
      9 OBD        50.0750   38.3790   97.1290 O.3       1 VSE601      0.0000 
     10 CBE        49.6180   37.1080   97.3650 C.ar      1 VSE601      0.0000 
     11 CBF        50.4020   36.1810   98.0440 C.ar      1 VSE601      0.0000 
     12 CBG        49.9110   34.8990   98.2800 C.ar      1 VSE601      0.0000 
     13 CBH        48.6360   34.5490   97.8490 C.ar      1 VSE601      0.0000 
     14 CBI        47.8490   35.4790   97.1780 C.ar      1 VSE601      0.0000 
     15 CBJ        48.3370   36.7580   96.9450 C.ar      1 VSE601      0.0000 
     16 CAO        51.9800   39.7280   97.6490 C.ar      1 VSE601      0.0000 
     17 CAP        53.3110   40.0910   97.4300 C.ar      1 VSE601      0.0000 
     18 CAH        55.8670   40.2120   94.9800 C.2       1 VSE601      0.0000 
     19 NAG        57.1170   40.6930   95.0990 N.pl3     1 VSE601      0.0000 
     20 C4         57.4970   40.5910   96.3770 C.ar      1 VSE601      0.0000 
     21 N3         58.6550   40.9420   96.9830 N.ar      1 VSE601      0.0000 
     22 C2         58.8260   40.7520   98.2940 C.ar      1 VSE601      0.0000 
     23 N1         57.8550   40.2130   99.0360 N.ar      1 VSE601      0.0000 
     24 CAQ        57.9630   41.2430   94.0020 C.3       1 VSE601      0.0000 
     25 CAV        58.4390   40.1280   93.0690 C.3       1 VSE601      0.0000 
     26 CAU        59.2400   40.6910   91.8930 C.3       1 VSE601      0.0000 
     27 CAT        58.3840   41.6800   91.1040 C.3       1 VSE601      0.0000 
     28 CAS        57.9890   42.8110   92.0430 C.3       1 VSE601      0.0000 
     29 CAR        57.1670   42.2680   93.2040 C.3       1 VSE601      0.0000 
     30 NAW        59.0840   42.2260   89.9150 N.4       1 VSE601      0.0000 
     31 CAX        60.3390   42.9050   90.2950 C.3       1 VSE601      0.0000 
     32 CAY        60.9900   43.4920   89.0450 C.3       1 VSE601      0.0000 
     33 NAZ        61.2750   42.4040   88.0920 N.3       1 VSE601      0.0000 
     34 CBC        61.9580   42.9480   86.9030 C.3       1 VSE601      0.0000 
     35 CBA        60.0110   41.7480   87.7030 C.3       1 VSE601      0.0000 
     36 CBB        59.3670   41.1490   88.9490 C.3       1 VSE601      0.0000 
@<TRIPOS>BOND
     1    1    2 1    
     2    2    3 ar   
     3    2   23 ar   
     4    3    4 1    
     5    3   20 ar   
     6    4    5 1    
     7    4   18 2    
     8    5    6 ar   
     9    5   17 ar   
    10    6    7 ar   
    11    7    8 ar   
    12    8    9 1    
    13    8   16 ar   
    14    9   10 1    
    15   10   11 ar   
    16   10   15 ar   
    17   11   12 ar   
    18   12   13 ar   
    19   13   14 ar   
    20   14   15 ar   
    21   16   17 ar   
    22   18   19 1    
    23   19   20 1    
    24   19   24 1    
    25   20   21 ar   
    26   21   22 ar   
    27   22   23 ar   
    28   24   25 1    
    29   24   29 1    
    30   25   26 1    
    31   26   27 1    
    32   27   28 1    
    33   27   30 1    
    34   28   29 1    
    35   30   31 1    
    36   30   36 1    
    37   31   32 1    
    38   32   33 1    
    39   33   34 1    
    40   33   35 1    
    41   35   36 1    
@<TRIPOS>SUBSTRUCTURE
     1 VSE601      1 GROUP   
@<TRIPOS>SET

