#    Name: 6foc_2_ADP
#    Modification time : Fri May 22 19:26:14 2020

@<TRIPOS>MOLECULE
6foc_2_ADP
   27    29     1     0     1
SMALL
NO_CHARGES


@<TRIPOS>ATOM
      1 PB         25.1730    9.9930  -58.0810 P.3       1 ADP600      0.0000 
      2 O1B        26.6310    9.6650  -58.2950 O.co2     1 ADP600      0.0000 
      3 O2B        24.9200   11.1650  -57.1670 O.co2     1 ADP600      0.0000 
      4 O3B        24.3050    8.7910  -57.7930 O.co2     1 ADP600      0.0000 
      5 PA         25.1180   11.9040  -60.1660 P.3       1 ADP600      0.0000 
      6 O1A        26.5960   12.0940  -59.9190 O.co2     1 ADP600      0.0000 
      7 O2A        24.1450   12.9730  -59.7320 O.co2     1 ADP600      0.0000 
      8 O3A        24.6530   10.5000  -59.5200 O.3       1 ADP600      0.0000 
      9 O5'        24.9070   11.6410  -61.7420 O.3       1 ADP600      0.0000 
     10 C5'        25.6120   10.5830  -62.3920 C.3       1 ADP600      0.0000 
     11 C4'        25.2520   10.5140  -63.8730 C.3       1 ADP600      0.0000 
     12 O4'        23.8330   10.5530  -64.0570 O.3       1 ADP600      0.0000 
     13 C3'        25.8430   11.6730  -64.6650 C.3       1 ADP600      0.0000 
     14 O3'        26.9270   11.2180  -65.4830 O.3       1 ADP600      0.0000 
     15 C2'        24.7010   12.2340  -65.4950 C.3       1 ADP600      0.0000 
     16 O2'        25.0010   12.2310  -66.8970 O.3       1 ADP600      0.0000 
     17 C1'        23.4980   11.3480  -65.1990 C.3       1 ADP600      0.0000 
     18 N9         22.2910   12.1740  -64.9360 N.pl3     1 ADP600      0.0000 
     19 C8         21.9960   12.8000  -63.7800 C.2       1 ADP600      0.0000 
     20 N7         20.8170   13.4680  -63.8840 N.2       1 ADP600      0.0000 
     21 C5         20.3400   13.2720  -65.1270 C.ar      1 ADP600      0.0000 
     22 C6         19.1420   13.6900  -65.9000 C.ar      1 ADP600      0.0000 
     23 N6         18.1880   14.4770  -65.3470 N.pl3     1 ADP600      0.0000 
     24 N1         19.0350   13.2570  -67.1800 N.ar      1 ADP600      0.0000 
     25 C2         19.9710   12.4730  -67.7550 C.ar      1 ADP600      0.0000 
     26 N3         21.0790   12.0600  -67.1060 N.ar      1 ADP600      0.0000 
     27 C4         21.3180   12.4170  -65.8180 C.ar      1 ADP600      0.0000 
@<TRIPOS>BOND
     1    1    2 ar   
     2    1    3 ar   
     3    1    4 ar   
     4    1    8 1    
     5    5    6 ar   
     6    5    7 ar   
     7    5    8 1    
     8    5    9 1    
     9    9   10 1    
    10   10   11 1    
    11   11   12 1    
    12   11   13 1    
    13   12   17 1    
    14   13   14 1    
    15   13   15 1    
    16   15   16 1    
    17   15   17 1    
    18   17   18 1    
    19   18   19 1    
    20   18   27 1    
    21   19   20 2    
    22   20   21 1    
    23   21   22 ar   
    24   21   27 ar   
    25   22   23 1    
    26   22   24 ar   
    27   24   25 ar   
    28   25   26 ar   
    29   26   27 ar   
@<TRIPOS>SUBSTRUCTURE
     1 ADP600      1 GROUP   
@<TRIPOS>SET
ATOM$ORANGE STATIC     ATOMS   COLORGROUP SYSTEM 
20 10 10 11 11 13 13 15 15 17 17 19 19 21 21 22 22 25 \
25 27 27 

