#    Name: 6foc_4_ADP
#    Modification time : Fri May 22 19:26:44 2020

@<TRIPOS>MOLECULE
6foc_4_ADP
   27    29     1     0     1
SMALL
NO_CHARGES


@<TRIPOS>ATOM
      1 PB         17.9750  -36.5600  -27.9850 P.3       1 ADP600      0.0000 
      2 O1B        18.1620  -36.7160  -29.4740 O.co2     1 ADP600      0.0000 
      3 O2B        18.8980  -37.4100  -27.1440 O.co2     1 ADP600      0.0000 
      4 O3B        17.8990  -35.1260  -27.5210 O.co2     1 ADP600      0.0000 
      5 PA         16.2270  -38.7080  -27.3920 P.3       1 ADP600      0.0000 
      6 O1A        17.2330  -39.5440  -28.1420 O.co2     1 ADP600      0.0000 
      7 O2A        16.1300  -38.8520  -25.8940 O.co2     1 ADP600      0.0000 
      8 O3A        16.4910  -37.1510  -27.7350 O.3       1 ADP600      0.0000 
      9 O5'        14.7710  -39.0600  -27.9950 O.3       1 ADP600      0.0000 
     10 C5'        13.9380  -38.1330  -28.6940 C.3       1 ADP600      0.0000 
     11 C4'        12.4830  -38.6090  -28.7230 C.3       1 ADP600      0.0000 
     12 O4'        11.9610  -38.6840  -30.0610 O.3       1 ADP600      0.0000 
     13 C3'        12.2670  -40.0030  -28.1550 C.3       1 ADP600      0.0000 
     14 O3'        12.1850  -40.0190  -26.7290 O.3       1 ADP600      0.0000 
     15 C2'        10.9950  -40.4530  -28.8390 C.3       1 ADP600      0.0000 
     16 O2'         9.8320  -39.9070  -28.2120 O.3       1 ADP600      0.0000 
     17 C1'        11.1800  -39.8780  -30.2290 C.3       1 ADP600      0.0000 
     18 N9         11.9230  -40.8800  -31.0340 N.pl3     1 ADP600      0.0000 
     19 C8         13.2430  -40.8230  -31.2800 C.2       1 ADP600      0.0000 
     20 N7         13.6540  -41.8750  -32.0280 N.2       1 ADP600      0.0000 
     21 C5         12.5760  -42.6380  -32.2670 C.ar      1 ADP600      0.0000 
     22 C6         12.3120  -43.8990  -32.9940 C.ar      1 ADP600      0.0000 
     23 N6         13.3210  -44.5490  -33.6240 N.pl3     1 ADP600      0.0000 
     24 N1         11.0400  -44.3650  -33.0090 N.ar      1 ADP600      0.0000 
     25 C2         10.0320  -43.7190  -32.3840 C.ar      1 ADP600      0.0000 
     26 N3         10.2080  -42.5670  -31.7020 N.ar      1 ADP600      0.0000 
     27 C4         11.4320  -41.9840  -31.6080 C.ar      1 ADP600      0.0000 
@<TRIPOS>BOND
     1    1    2 ar   
     2    1    3 ar   
     3    1    4 ar   
     4    1    8 1    
     5    5    6 ar   
     6    5    7 ar   
     7    5    8 1    
     8    5    9 1    
     9    9   10 1    
    10   10   11 1    
    11   11   12 1    
    12   11   13 1    
    13   12   17 1    
    14   13   14 1    
    15   13   15 1    
    16   15   16 1    
    17   15   17 1    
    18   17   18 1    
    19   18   19 1    
    20   18   27 1    
    21   19   20 2    
    22   20   21 1    
    23   21   22 ar   
    24   21   27 ar   
    25   22   23 1    
    26   22   24 ar   
    27   24   25 ar   
    28   25   26 ar   
    29   26   27 ar   
@<TRIPOS>SUBSTRUCTURE
     1 ADP600      1 GROUP   
@<TRIPOS>SET
ATOM$ORANGE STATIC     ATOMS   COLORGROUP SYSTEM 
20 10 10 11 11 13 13 15 15 17 17 19 19 21 21 22 22 25 \
25 27 27 

