#    Name: 6foc_3_ADP
#    Modification time : Fri May 22 19:26:29 2020

@<TRIPOS>MOLECULE
6foc_3_ADP
   27    29     1     0     1
SMALL
NO_CHARGES


@<TRIPOS>ATOM
      1 PB          1.5470  -16.6180  -24.9330 P.3       1 ADP600      0.0000 
      2 O1B         2.3840  -17.1100  -26.0890 O.co2     1 ADP600      0.0000 
      3 O2B         1.8220  -17.3250  -23.6280 O.co2     1 ADP600      0.0000 
      4 O3B         1.4510  -15.1140  -24.8340 O.co2     1 ADP600      0.0000 
      5 PA         -1.1550  -16.9900  -24.2640 P.3       1 ADP600      0.0000 
      6 O1A        -1.0920  -15.6550  -23.5600 O.co2     1 ADP600      0.0000 
      7 O2A        -1.1610  -18.2660  -23.4570 O.co2     1 ADP600      0.0000 
      8 O3A         0.0550  -17.0780  -25.3230 O.3       1 ADP600      0.0000 
      9 O5'        -2.4440  -16.9840  -25.2290 O.3       1 ADP600      0.0000 
     10 C5'        -2.5270  -16.0580  -26.3130 C.3       1 ADP600      0.0000 
     11 C4'        -3.9750  -15.6930  -26.6310 C.3       1 ADP600      0.0000 
     12 O4'        -4.6060  -16.7720  -27.3270 O.3       1 ADP600      0.0000 
     13 C3'        -4.8030  -15.4060  -25.3850 C.3       1 ADP600      0.0000 
     14 O3'        -5.5020  -14.1640  -25.5300 O.3       1 ADP600      0.0000 
     15 C2'        -5.7610  -16.5780  -25.2640 C.3       1 ADP600      0.0000 
     16 O2'        -7.0660  -16.1440  -24.8730 O.3       1 ADP600      0.0000 
     17 C1'        -5.7810  -17.2240  -26.6450 C.3       1 ADP600      0.0000 
     18 N9         -5.7880  -18.7100  -26.5780 N.pl3     1 ADP600      0.0000 
     19 C8         -4.8690  -19.4760  -25.9580 C.2       1 ADP600      0.0000 
     20 N7         -5.1670  -20.7940  -26.0920 N.2       1 ADP600      0.0000 
     21 C5         -6.2950  -20.8880  -26.8160 C.ar      1 ADP600      0.0000 
     22 C6         -7.1540  -21.9890  -27.3230 C.ar      1 ADP600      0.0000 
     23 N6         -6.8530  -23.2860  -27.0720 N.pl3     1 ADP600      0.0000 
     24 N1         -8.2490  -21.6510  -28.0440 N.ar      1 ADP600      0.0000 
     25 C2         -8.5680  -20.3660  -28.3060 C.ar      1 ADP600      0.0000 
     26 N3         -7.8290  -19.3220  -27.8740 N.ar      1 ADP600      0.0000 
     27 C4         -6.7020  -19.5100  -27.1380 C.ar      1 ADP600      0.0000 
@<TRIPOS>BOND
     1    1    2 ar   
     2    1    3 ar   
     3    1    4 ar   
     4    1    8 1    
     5    5    6 ar   
     6    5    7 ar   
     7    5    8 1    
     8    5    9 1    
     9    9   10 1    
    10   10   11 1    
    11   11   12 1    
    12   11   13 1    
    13   12   17 1    
    14   13   14 1    
    15   13   15 1    
    16   15   16 1    
    17   15   17 1    
    18   17   18 1    
    19   18   19 1    
    20   18   27 1    
    21   19   20 2    
    22   20   21 1    
    23   21   22 ar   
    24   21   27 ar   
    25   22   23 1    
    26   22   24 ar   
    27   24   25 ar   
    28   25   26 ar   
    29   26   27 ar   
@<TRIPOS>SUBSTRUCTURE
     1 ADP600      1 GROUP   
@<TRIPOS>SET
ATOM$ORANGE STATIC     ATOMS   COLORGROUP SYSTEM 
20 10 10 11 11 13 13 15 15 17 17 19 19 21 21 22 22 25 \
25 27 27 

