#    Name: 6foc_5_ADP
#    Modification time : Fri May 22 19:27:01 2020

@<TRIPOS>MOLECULE
6foc_5_ADP
   27    29     1     0     1
SMALL
NO_CHARGES


@<TRIPOS>ATOM
      1 PB          7.0380    7.3060  -38.4280 P.3       1 ADP600      0.0000 
      2 O1B         8.2520    8.0330  -38.9540 O.co2     1 ADP600      0.0000 
      3 O2B         6.4460    7.9460  -37.1980 O.co2     1 ADP600      0.0000 
      4 O3B         7.1950    5.8080  -38.3260 O.co2     1 ADP600      0.0000 
      5 PA          5.1330    8.8700  -39.8010 P.3       1 ADP600      0.0000 
      6 O1A         6.1310   10.0010  -39.7510 O.co2     1 ADP600      0.0000 
      7 O2A         3.9550    8.8740  -38.8590 O.co2     1 ADP600      0.0000 
      8 O3A         5.9240    7.4820  -39.5830 O.3       1 ADP600      0.0000 
      9 O5'         4.5780    8.7580  -41.3120 O.3       1 ADP600      0.0000 
     10 C5'         5.4470    9.0110  -42.4180 C.3       1 ADP600      0.0000 
     11 C4'         4.7100    8.9150  -43.7530 C.3       1 ADP600      0.0000 
     12 O4'         3.6620    7.9410  -43.7230 O.3       1 ADP600      0.0000 
     13 C3'         4.0580   10.2310  -44.1560 C.3       1 ADP600      0.0000 
     14 O3'         4.8900   10.9530  -45.0720 O.3       1 ADP600      0.0000 
     15 C2'         2.7270    9.8520  -44.7810 C.3       1 ADP600      0.0000 
     16 O2'         2.6750   10.1930  -46.1710 O.3       1 ADP600      0.0000 
     17 C1'         2.5970    8.3460  -44.5930 C.3       1 ADP600      0.0000 
     18 N9          1.2610    8.0070  -44.0330 N.pl3     1 ADP600      0.0000 
     19 C8          1.0040    7.5090  -42.8050 C.2       1 ADP600      0.0000 
     20 N7         -0.3310    7.3190  -42.6330 N.2       1 ADP600      0.0000 
     21 C5         -0.9480    7.7000  -43.7650 C.ar      1 ADP600      0.0000 
     22 C6         -2.3460    7.7610  -44.2590 C.ar      1 ADP600      0.0000 
     23 N6         -3.3750    7.3640  -43.4750 N.pl3     1 ADP600      0.0000 
     24 N1         -2.5570    8.2270  -45.5140 N.ar      1 ADP600      0.0000 
     25 C2         -1.5420    8.6260  -46.3090 C.ar      1 ADP600      0.0000 
     26 N3         -0.2510    8.5960  -45.9190 N.ar      1 ADP600      0.0000 
     27 C4          0.1060    8.1520  -44.6860 C.ar      1 ADP600      0.0000 
@<TRIPOS>BOND
     1    1    2 ar   
     2    1    3 ar   
     3    1    4 ar   
     4    1    8 1    
     5    5    6 ar   
     6    5    7 ar   
     7    5    8 1    
     8    5    9 1    
     9    9   10 1    
    10   10   11 1    
    11   11   12 1    
    12   11   13 1    
    13   12   17 1    
    14   13   14 1    
    15   13   15 1    
    16   15   16 1    
    17   15   17 1    
    18   17   18 1    
    19   18   19 1    
    20   18   27 1    
    21   19   20 2    
    22   20   21 1    
    23   21   22 ar   
    24   21   27 ar   
    25   22   23 1    
    26   22   24 ar   
    27   24   25 ar   
    28   25   26 ar   
    29   26   27 ar   
@<TRIPOS>SUBSTRUCTURE
     1 ADP600      1 GROUP   
@<TRIPOS>SET
ATOM$ORANGE STATIC     ATOMS   COLORGROUP SYSTEM 
20 10 10 11 11 13 13 15 15 17 17 19 19 21 21 22 22 25 \
25 27 27 

