#    Name: 6foc_1_ADP
#    Modification time : Fri May 22 19:25:57 2020

@<TRIPOS>MOLECULE
6foc_1_ADP
   27    29     1     0     1
SMALL
NO_CHARGES


@<TRIPOS>ATOM
      1 PB         37.1280  -36.1150  -48.0860 P.3       1 ADP1600     0.0000 
      2 O1B        36.7530  -34.9580  -48.9790 O.co2     1 ADP1600     0.0000 
      3 O2B        38.6030  -36.4290  -48.0650 O.co2     1 ADP1600     0.0000 
      4 O3B        36.4680  -36.0860  -46.7290 O.co2     1 ADP1600     0.0000 
      5 PA         36.9130  -38.8850  -48.4320 P.3       1 ADP1600     0.0000 
      6 O1A        37.9290  -39.3490  -49.4490 O.co2     1 ADP1600     0.0000 
      7 O2A        37.2560  -38.9170  -46.9620 O.co2     1 ADP1600     0.0000 
      8 O3A        36.4670  -37.3870  -48.8180 O.3       1 ADP1600     0.0000 
      9 O5'        35.5490  -39.7210  -48.6200 O.3       1 ADP1600     0.0000 
     10 C5'        35.0060  -40.0270  -49.9030 C.3       1 ADP1600     0.0000 
     11 C4'        34.6870  -41.5160  -49.9590 C.3       1 ADP1600     0.0000 
     12 O4'        34.0500  -41.8380  -51.1970 O.3       1 ADP1600     0.0000 
     13 C3'        35.9410  -42.3720  -49.8460 C.3       1 ADP1600     0.0000 
     14 O3'        35.9390  -43.1100  -48.6180 O.3       1 ADP1600     0.0000 
     15 C2'        35.9350  -43.2890  -51.0550 C.3       1 ADP1600     0.0000 
     16 O2'        35.8020  -44.6620  -50.6710 O.3       1 ADP1600     0.0000 
     17 C1'        34.7470  -42.8640  -51.9080 C.3       1 ADP1600     0.0000 
     18 N9         35.1870  -42.3420  -53.2290 N.pl3     1 ADP1600     0.0000 
     19 C8         36.0290  -41.3080  -53.4300 C.2       1 ADP1600     0.0000 
     20 N7         36.2180  -41.0900  -54.7570 N.2       1 ADP1600     0.0000 
     21 C5         35.4810  -41.9940  -55.4270 C.ar      1 ADP1600     0.0000 
     22 C6         35.2230  -42.3230  -56.8500 C.ar      1 ADP1600     0.0000 
     23 N6         35.8080  -41.6160  -57.8470 N.pl3     1 ADP1600     0.0000 
     24 N1         34.3830  -43.3520  -57.1180 N.ar      1 ADP1600     0.0000 
     25 C2         33.7900  -44.0690  -56.1420 C.ar      1 ADP1600     0.0000 
     26 N3         33.9840  -43.8210  -54.8300 N.ar      1 ADP1600     0.0000 
     27 C4         34.8010  -42.8190  -54.4150 C.ar      1 ADP1600     0.0000 
@<TRIPOS>BOND
     1    1    2 ar   
     2    1    3 ar   
     3    1    4 ar   
     4    1    8 1    
     5    5    6 ar   
     6    5    7 ar   
     7    5    8 1    
     8    5    9 1    
     9    9   10 1    
    10   10   11 1    
    11   11   12 1    
    12   11   13 1    
    13   12   17 1    
    14   13   14 1    
    15   13   15 1    
    16   15   16 1    
    17   15   17 1    
    18   17   18 1    
    19   18   19 1    
    20   18   27 1    
    21   19   20 2    
    22   20   21 1    
    23   21   22 ar   
    24   21   27 ar   
    25   22   23 1    
    26   22   24 ar   
    27   24   25 ar   
    28   25   26 ar   
    29   26   27 ar   
@<TRIPOS>SUBSTRUCTURE
     1 ADP1600     1 GROUP   
@<TRIPOS>SET
ATOM$ORANGE STATIC     ATOMS   COLORGROUP SYSTEM 
20 10 10 11 11 13 13 15 15 17 17 19 19 21 21 22 22 25 \
25 27 27 

