#    Name: 6pfe_4_MTX
#    Modification time : Fri May 22 19:34:47 2020

@<TRIPOS>MOLECULE
6pfe_4_MTX
   33    35     1     0     0
SMALL
NO_CHARGES


@<TRIPOS>ATOM
      1 N1        -28.3560  130.6200  299.2410 N.ar      1 MTX604      0.0000 
      2 C2        -27.9340  131.1860  300.4270 C.ar      1 MTX604      0.0000 
      3 NA2       -27.8760  130.4470  301.5270 N.pl3     1 MTX604      0.0000 
      4 N3        -27.5720  132.5200  300.4730 N.ar      1 MTX604      0.0000 
      5 C4        -27.6320  133.2960  299.3300 C.ar      1 MTX604      0.0000 
      6 NA4       -27.2240  134.5630  299.3590 N.pl3     1 MTX604      0.0000 
      7 C4A       -28.0580  132.7250  298.1360 C.ar      1 MTX604      0.0000 
      8 N5        -28.1210  133.4930  296.9920 N.ar      1 MTX604      0.0000 
      9 C6        -28.5400  132.9290  295.8020 C.ar      1 MTX604      0.0000 
     10 C7        -28.9050  131.5870  295.7710 C.ar      1 MTX604      0.0000 
     11 N8        -28.8410  130.8170  296.9150 N.ar      1 MTX604      0.0000 
     12 C8A       -28.4200  131.3840  298.0970 C.ar      1 MTX604      0.0000 
     13 C9        -28.6080  133.7700  294.5450 C.3       1 MTX604      0.0000 
     14 N10       -29.5710  134.8460  294.7020 N.pl3     1 MTX604      0.0000 
     15 CM        -29.0910  136.1980  295.0260 C.3       1 MTX604      0.0000 
     16 C11       -33.6420  133.9210  295.1470 C.ar      1 MTX604      0.0000 
     17 C12       -32.8390  133.1350  294.3310 C.ar      1 MTX604      0.0000 
     18 C13       -31.4910  133.4390  294.1850 C.ar      1 MTX604      0.0000 
     19 C14       -30.9490  134.5350  294.8460 C.ar      1 MTX604      0.0000 
     20 C15       -31.7590  135.3150  295.6630 C.ar      1 MTX604      0.0000 
     21 C16       -33.1120  135.0230  295.7970 C.ar      1 MTX604      0.0000 
     22 C         -35.0880  133.5910  295.3270 C.2       1 MTX604      0.0000 
     23 O         -35.7640  132.9300  294.2870 O.2       1 MTX604      0.0000 
     24 N         -35.6810  133.9440  296.4630 N.am      1 MTX604      0.0000 
     25 CA        -37.0710  133.6620  296.7490 C.3       1 MTX604      0.0000 
     26 CT        -37.5570  134.5960  297.8110 C.2       1 MTX604      0.0000 
     27 O1        -36.7330  135.3400  298.3810 O.co2     1 MTX604      0.0000 
     28 O2        -38.7660  134.6400  298.1280 O.co2     1 MTX604      0.0000 
     29 CB        -37.1610  132.2230  297.2370 C.3       1 MTX604      0.0000 
     30 CG        -38.5020  131.5890  296.9020 C.3       1 MTX604      0.0000 
     31 CD        -38.5770  130.2130  297.5180 C.2       1 MTX604      0.0000 
     32 OE1       -39.3720  129.9770  298.4530 O.co2     1 MTX604      0.0000 
     33 OE2       -37.8600  129.2860  297.0760 O.co2     1 MTX604      0.0000 
@<TRIPOS>BOND
     1    1    2 ar   
     2    1   12 ar   
     3    2    3 1    
     4    2    4 ar   
     5    4    5 ar   
     6    5    6 1    
     7    5    7 ar   
     8    7    8 ar   
     9    7   12 ar   
    10    8    9 ar   
    11    9   10 ar   
    12    9   13 1    
    13   10   11 ar   
    14   11   12 ar   
    15   13   14 1    
    16   14   15 1    
    17   14   19 1    
    18   16   17 ar   
    19   16   21 ar   
    20   16   22 1    
    21   17   18 ar   
    22   18   19 ar   
    23   19   20 ar   
    24   20   21 ar   
    25   22   23 2    
    26   22   24 am   
    27   24   25 1    
    28   25   26 1    
    29   25   29 1    
    30   26   27 ar   
    31   26   28 ar   
    32   29   30 1    
    33   30   31 1    
    34   31   32 ar   
    35   31   33 ar   
@<TRIPOS>SUBSTRUCTURE
     1 MTX604      1 GROUP   
@<TRIPOS>SET

