#    Name: 6pfe_2_MTX
#    Modification time : Fri May 22 19:34:40 2020

@<TRIPOS>MOLECULE
6pfe_2_MTX
   33    35     1     0     0
SMALL
NO_CHARGES


@<TRIPOS>ATOM
      1 N1        -24.5860   90.2730  233.9110 N.ar      1 MTX604      0.0000 
      2 C2        -23.7620   89.5340  234.7300 C.ar      1 MTX604      0.0000 
      3 NA2       -22.4510   89.7330  234.6960 N.pl3     1 MTX604      0.0000 
      4 N3        -24.2990   88.5900  235.5840 N.ar      1 MTX604      0.0000 
      5 C4        -25.6640   88.3800  235.6260 C.ar      1 MTX604      0.0000 
      6 NA4       -26.1850   87.4910  236.4670 N.pl3     1 MTX604      0.0000 
      7 C4A       -26.4920   89.1240  234.8000 C.ar      1 MTX604      0.0000 
      8 N5        -27.8530   88.9190  234.8340 N.ar      1 MTX604      0.0000 
      9 C6        -28.6780   89.6620  234.0150 C.ar      1 MTX604      0.0000 
     10 C7        -28.1280   90.6070  233.1560 C.ar      1 MTX604      0.0000 
     11 N8        -26.7650   90.8120  233.1230 N.ar      1 MTX604      0.0000 
     12 C8A       -25.9470   90.0710  233.9430 C.ar      1 MTX604      0.0000 
     13 C9        -30.1710   89.4420  234.0460 C.3       1 MTX604      0.0000 
     14 N10       -30.4670   88.0880  233.6210 N.pl3     1 MTX604      0.0000 
     15 CM        -30.6820   87.0490  234.6390 C.3       1 MTX604      0.0000 
     16 C11       -29.6100   86.9530  229.6720 C.ar      1 MTX604      0.0000 
     17 C12       -30.0110   88.2540  229.9460 C.ar      1 MTX604      0.0000 
     18 C13       -30.2960   88.6300  231.2540 C.ar      1 MTX604      0.0000 
     19 C14       -30.1810   87.7060  232.2850 C.ar      1 MTX604      0.0000 
     20 C15       -29.7780   86.4060  232.0050 C.ar      1 MTX604      0.0000 
     21 C16       -29.5000   86.0260  230.6960 C.ar      1 MTX604      0.0000 
     22 C         -29.2980   86.5380  228.2700 C.2       1 MTX604      0.0000 
     23 O         -29.9500   87.2040  227.2210 O.2       1 MTX604      0.0000 
     24 N         -28.4310   85.5480  228.0640 N.am      1 MTX604      0.0000 
     25 CA        -28.0600   85.0850  226.7420 C.3       1 MTX604      0.0000 
     26 CT        -27.5490   83.6760  226.8070 C.2       1 MTX604      0.0000 
     27 O1        -27.3610   83.1350  227.9170 O.co2     1 MTX604      0.0000 
     28 O2        -27.3080   83.0330  225.7620 O.co2     1 MTX604      0.0000 
     29 CB        -26.9810   86.0190  226.2150 C.3       1 MTX604      0.0000 
     30 CG        -26.9790   86.1370  224.6970 C.3       1 MTX604      0.0000 
     31 CD        -25.7920   86.9730  224.2780 C.2       1 MTX604      0.0000 
     32 OE1       -24.8390   86.4610  223.6530 O.co2     1 MTX604      0.0000 
     33 OE2       -25.7560   88.1960  224.5350 O.co2     1 MTX604      0.0000 
@<TRIPOS>BOND
     1    1    2 ar   
     2    1   12 ar   
     3    2    3 1    
     4    2    4 ar   
     5    4    5 ar   
     6    5    6 1    
     7    5    7 ar   
     8    7    8 ar   
     9    7   12 ar   
    10    8    9 ar   
    11    9   10 ar   
    12    9   13 1    
    13   10   11 ar   
    14   11   12 ar   
    15   13   14 1    
    16   14   15 1    
    17   14   19 1    
    18   16   17 ar   
    19   16   21 ar   
    20   16   22 1    
    21   17   18 ar   
    22   18   19 ar   
    23   19   20 ar   
    24   20   21 ar   
    25   22   23 2    
    26   22   24 am   
    27   24   25 1    
    28   25   26 1    
    29   25   29 1    
    30   26   27 ar   
    31   26   28 ar   
    32   29   30 1    
    33   30   31 1    
    34   31   32 ar   
    35   31   33 ar   
@<TRIPOS>SUBSTRUCTURE
     1 MTX604      1 GROUP   
@<TRIPOS>SET

