#    Name: 6pfe_6_NDP
#    Modification time : Fri May 22 19:35:05 2020

@<TRIPOS>MOLECULE
6pfe_6_NDP
   48    52     1     0     1
SMALL
NO_CHARGES


@<TRIPOS>ATOM
      1 PA         42.9640   49.1590  312.1140 P.3       1 NDP601      0.0000 
      2 O1A        41.8410   49.2510  311.1010 O.co2     1 NDP601      0.0000 
      3 O2A        43.9490   50.2620  311.8570 O.co2     1 NDP601      0.0000 
      4 O5B        42.4130   49.3380  313.5320 O.3       1 NDP601      0.0000 
      5 C5B        41.4740   48.4240  314.0300 C.3       1 NDP601      0.0000 
      6 C4B        41.0380   48.5880  315.4240 C.3       1 NDP601      0.0000 
      7 O4B        40.2390   49.7430  315.5690 O.3       1 NDP601      0.0000 
      8 C3B        40.1780   47.4860  315.8570 C.3       1 NDP601      0.0000 
      9 O3B        40.9110   46.3800  316.2520 O.3       1 NDP601      0.0000 
     10 C2B        39.4810   48.0910  316.9620 C.3       1 NDP601      0.0000 
     11 O2B        40.3320   48.1950  318.0650 O.3       1 NDP601      0.0000 
     12 C1B        39.1800   49.4150  316.4520 C.3       1 NDP601      0.0000 
     13 N9A        37.9380   49.3790  315.7600 N.pl3     1 NDP601      0.0000 
     14 C8A        37.7260   48.9560  314.4880 C.2       1 NDP601      0.0000 
     15 N7A        36.4160   49.0730  314.1870 N.2       1 NDP601      0.0000 
     16 C5A        35.7660   49.5840  315.2870 C.ar      1 NDP601      0.0000 
     17 C6A        34.4200   49.9250  315.5830 C.ar      1 NDP601      0.0000 
     18 N6A        33.3610   49.7370  314.5600 N.pl3     1 NDP601      0.0000 
     19 N1A        34.0990   50.4250  316.8060 N.ar      1 NDP601      0.0000 
     20 C2A        35.0810   50.5880  317.7320 C.ar      1 NDP601      0.0000 
     21 N3A        36.3590   50.2870  317.5040 N.ar      1 NDP601      0.0000 
     22 C4A        36.7340   49.7760  316.2770 C.ar      1 NDP601      0.0000 
     23 O3         43.6990   47.7430  312.0260 O.3       1 NDP601      0.0000 
     24 PN         44.1700   47.1010  310.6460 P.3       1 NDP601      0.0000 
     25 O1N        44.7620   45.7040  310.8740 O.co2     1 NDP601      0.0000 
     26 O2N        42.9830   46.9800  309.7160 O.co2     1 NDP601      0.0000 
     27 O5D        45.3120   48.0490  309.9990 O.3       1 NDP601      0.0000 
     28 C5D        46.6440   47.8850  310.4100 C.3       1 NDP601      0.0000 
     29 C4D        47.6300   47.6250  309.3760 C.3       1 NDP601      0.0000 
     30 O4D        47.3760   48.4870  308.2680 O.3       1 NDP601      0.0000 
     31 C3D        48.9890   47.9290  309.8420 C.3       1 NDP601      0.0000 
     32 O3D        49.8930   47.0590  309.2420 O.3       1 NDP601      0.0000 
     33 C2D        49.2280   49.2510  309.3720 C.3       1 NDP601      0.0000 
     34 O2D        50.5990   49.4660  309.2120 O.3       1 NDP601      0.0000 
     35 C1D        48.5100   49.2630  308.0780 C.3       1 NDP601      0.0000 
     36 N1N        48.1780   50.5970  307.6760 N.pl3     1 NDP601      0.0000 
     37 C2N        48.5010   50.9770  306.4300 C.2       1 NDP601      0.0000 
     38 C3N        48.2130   52.2680  305.9670 C.2       1 NDP601      0.0000 
     39 C7N        48.6030   52.6330  304.5440 C.2       1 NDP601      0.0000 
     40 O7N        48.2540   53.7280  304.0730 O.2       1 NDP601      0.0000 
     41 N7N        49.3550   51.7200  303.7310 N.am      1 NDP601      0.0000 
     42 C4N        47.5640   53.1820  306.8160 C.3       1 NDP601      0.0000 
     43 C5N        47.2370   52.7530  308.1080 C.2       1 NDP601      0.0000 
     44 C6N        47.5470   51.4610  308.5290 C.2       1 NDP601      0.0000 
     45 P2B        39.8060   47.9740  319.5170 P.3       1 NDP601      0.0000 
     46 O1X        39.8710   46.4640  319.8180 O.co2     1 NDP601      0.0000 
     47 O2X        40.6740   48.7100  320.4500 O.co2     1 NDP601      0.0000 
     48 O3X        38.4090   48.4780  319.6810 O.co2     1 NDP601      0.0000 
@<TRIPOS>BOND
     1    1    2 ar   
     2    1    3 ar   
     3    1    4 1    
     4    1   23 1    
     5    4    5 1    
     6    5    6 1    
     7    6    7 1    
     8    6    8 1    
     9    7   12 1    
    10    8    9 1    
    11    8   10 1    
    12   10   11 1    
    13   10   12 1    
    14   11   45 1    
    15   12   13 1    
    16   13   14 1    
    17   13   22 1    
    18   14   15 2    
    19   15   16 1    
    20   16   17 ar   
    21   16   22 ar   
    22   17   18 1    
    23   17   19 ar   
    24   19   20 ar   
    25   20   21 ar   
    26   21   22 ar   
    27   23   24 1    
    28   24   25 ar   
    29   24   26 ar   
    30   24   27 1    
    31   27   28 1    
    32   28   29 1    
    33   29   30 1    
    34   29   31 1    
    35   30   35 1    
    36   31   32 1    
    37   31   33 1    
    38   33   34 1    
    39   33   35 1    
    40   35   36 1    
    41   36   37 1    
    42   36   44 1    
    43   37   38 2    
    44   38   39 1    
    45   38   42 1    
    46   39   40 2    
    47   39   41 am   
    48   42   43 1    
    49   43   44 2    
    50   45   46 ar   
    51   45   47 ar   
    52   45   48 ar   
@<TRIPOS>SUBSTRUCTURE
     1 NDP601      1 GROUP   
@<TRIPOS>SET
ATOM$ORANGE STATIC     ATOMS   COLORGROUP SYSTEM 
42 5 5 6 6 8 8 10 10 12 12 14 14 16 16 17 17 20 \
20 22 22 28 28 29 29 31 31 33 33 35 35 37 37 38 38 39 \
39 42 42 43 43 44 44 

