#    Name: 6pfe_5_NDP
#    Modification time : Fri May 22 19:34:59 2020

@<TRIPOS>MOLECULE
6pfe_5_NDP
   48    52     1     0     1
SMALL
NO_CHARGES


@<TRIPOS>ATOM
      1 PA        -35.9500   89.3600  242.0970 P.3       1 NDP601      0.0000 
      2 O1A       -34.9910   89.1110  243.2390 O.co2     1 NDP601      0.0000 
      3 O2A       -35.2530   89.0980  240.7950 O.co2     1 NDP601      0.0000 
      4 O5B       -37.1400   88.3990  242.1980 O.3       1 NDP601      0.0000 
      5 C5B       -37.9980   88.4320  243.3050 C.3       1 NDP601      0.0000 
      6 C4B       -39.1650   87.5350  243.2800 C.3       1 NDP601      0.0000 
      7 O4B       -38.7800   86.1990  243.5150 O.3       1 NDP601      0.0000 
      8 C3B       -40.1380   87.8590  244.3240 C.3       1 NDP601      0.0000 
      9 O3B       -41.0560   88.7950  243.8780 O.3       1 NDP601      0.0000 
     10 C2B       -40.7820   86.5940  244.5580 C.3       1 NDP601      0.0000 
     11 O2B       -41.7350   86.3840  243.5600 O.3       1 NDP601      0.0000 
     12 C1B       -39.7050   85.6330  244.4240 C.3       1 NDP601      0.0000 
     13 N9A       -39.0720   85.4510  245.6810 N.pl3     1 NDP601      0.0000 
     14 C8A       -38.0150   86.1600  246.1430 C.2       1 NDP601      0.0000 
     15 N7A       -37.6790   85.7160  247.3690 N.2       1 NDP601      0.0000 
     16 C5A       -38.5360   84.6960  247.7060 C.ar      1 NDP601      0.0000 
     17 C6A       -38.6820   83.8550  248.8380 C.ar      1 NDP601      0.0000 
     18 N6A       -37.7590   84.0120  249.9890 N.pl3     1 NDP601      0.0000 
     19 N1A       -39.6600   82.9100  248.8680 N.ar      1 NDP601      0.0000 
     20 C2A       -40.4920   82.7910  247.7970 C.ar      1 NDP601      0.0000 
     21 N3A       -40.3950   83.5570  246.7060 N.ar      1 NDP601      0.0000 
     22 C4A       -39.4160   84.5300  246.6340 C.ar      1 NDP601      0.0000 
     23 O3        -36.4570   90.8730  242.0930 O.3       1 NDP601      0.0000 
     24 PN        -35.4600   92.0970  242.3120 P.3       1 NDP601      0.0000 
     25 O1N       -36.2250   93.4280  242.3320 O.co2     1 NDP601      0.0000 
     26 O2N       -34.7660   91.9500  243.6480 O.co2     1 NDP601      0.0000 
     27 O5D       -34.3700   92.1050  241.1110 O.3       1 NDP601      0.0000 
     28 C5D       -34.7550   92.4200  239.7950 C.3       1 NDP601      0.0000 
     29 C4D       -34.0350   93.5060  239.1500 C.3       1 NDP601      0.0000 
     30 O4D       -32.6370   93.2340  239.2160 O.3       1 NDP601      0.0000 
     31 C3D       -34.3520   93.5900  237.7210 C.3       1 NDP601      0.0000 
     32 O3D       -34.0920   94.8810  237.2780 O.3       1 NDP601      0.0000 
     33 C2D       -33.4080   92.7000  237.1400 C.3       1 NDP601      0.0000 
     34 O2D       -33.2460   92.9520  235.7750 O.3       1 NDP601      0.0000 
     35 C1D       -32.1980   93.0510  237.9100 C.3       1 NDP601      0.0000 
     36 N1N       -31.2070   92.0230  237.7980 N.pl3     1 NDP601      0.0000 
     37 C2N       -29.9340   92.3970  237.6030 C.2       1 NDP601      0.0000 
     38 C3N       -28.9210   91.4400  237.4830 C.2       1 NDP601      0.0000 
     39 C7N       -27.5020   91.9200  237.2680 C.2       1 NDP601      0.0000 
     40 O7N       -26.5730   91.0960  237.2920 O.2       1 NDP601      0.0000 
     41 N7N       -27.2270   93.3100  237.0380 N.am      1 NDP601      0.0000 
     42 C4N       -29.2290   90.0710  237.5620 C.3       1 NDP601      0.0000 
     43 C5N       -30.5670   89.7170  237.7640 C.2       1 NDP601      0.0000 
     44 C6N       -31.5470   90.7000  237.8800 C.2       1 NDP601      0.0000 
     45 P2B       -43.2110   86.0290  243.9130 P.3       1 NDP601      0.0000 
     46 O1X       -43.9710   87.3500  244.1360 O.co2     1 NDP601      0.0000 
     47 O2X       -43.8090   85.2930  242.7830 O.co2     1 NDP601      0.0000 
     48 O3X       -43.2760   85.1680  245.1330 O.co2     1 NDP601      0.0000 
@<TRIPOS>BOND
     1    1    2 ar   
     2    1    3 ar   
     3    1    4 1    
     4    1   23 1    
     5    4    5 1    
     6    5    6 1    
     7    6    7 1    
     8    6    8 1    
     9    7   12 1    
    10    8    9 1    
    11    8   10 1    
    12   10   11 1    
    13   10   12 1    
    14   11   45 1    
    15   12   13 1    
    16   13   14 1    
    17   13   22 1    
    18   14   15 2    
    19   15   16 1    
    20   16   17 ar   
    21   16   22 ar   
    22   17   18 1    
    23   17   19 ar   
    24   19   20 ar   
    25   20   21 ar   
    26   21   22 ar   
    27   23   24 1    
    28   24   25 ar   
    29   24   26 ar   
    30   24   27 1    
    31   27   28 1    
    32   28   29 1    
    33   29   30 1    
    34   29   31 1    
    35   30   35 1    
    36   31   32 1    
    37   31   33 1    
    38   33   34 1    
    39   33   35 1    
    40   35   36 1    
    41   36   37 1    
    42   36   44 1    
    43   37   38 2    
    44   38   39 1    
    45   38   42 1    
    46   39   40 2    
    47   39   41 am   
    48   42   43 1    
    49   43   44 2    
    50   45   46 ar   
    51   45   47 ar   
    52   45   48 ar   
@<TRIPOS>SUBSTRUCTURE
     1 NDP601      1 GROUP   
@<TRIPOS>SET
ATOM$ORANGE STATIC     ATOMS   COLORGROUP SYSTEM 
42 5 5 6 6 8 8 10 10 12 12 14 14 16 16 17 17 20 \
20 22 22 28 28 29 29 31 31 33 33 35 35 37 37 38 38 39 \
39 42 42 43 43 44 44 

