#    Name: 6pfe_8_NDP
#    Modification time : Fri May 22 19:35:16 2020

@<TRIPOS>MOLECULE
6pfe_8_NDP
   48    52     1     0     1
SMALL
NO_CHARGES


@<TRIPOS>ATOM
      1 PA         26.6640  107.0310  264.5570 P.3       1 NDP601      0.0000 
      2 O1A        27.4480  106.9440  265.8490 O.co2     1 NDP601      0.0000 
      3 O2A        26.4340  105.6400  264.0470 O.co2     1 NDP601      0.0000 
      4 O5B        25.3080  107.7010  264.8080 O.3       1 NDP601      0.0000 
      5 C5B        25.2620  109.0200  265.2800 C.3       1 NDP601      0.0000 
      6 C4B        23.9370  109.6340  265.4430 C.3       1 NDP601      0.0000 
      7 O4B        23.2760  109.0780  266.5590 O.3       1 NDP601      0.0000 
      8 C3B        24.0220  111.0640  265.7400 C.3       1 NDP601      0.0000 
      9 O3B        24.1490  111.8290  264.5930 O.3       1 NDP601      0.0000 
     10 C2B        22.7660  111.2930  266.4080 C.3       1 NDP601      0.0000 
     11 O2B        21.6830  111.2090  265.5250 O.3       1 NDP601      0.0000 
     12 C1B        22.6850  110.1430  267.2840 C.3       1 NDP601      0.0000 
     13 N9A        23.4010  110.3730  268.4890 N.pl3     1 NDP601      0.0000 
     14 C8A        24.7010  110.0570  268.7080 C.2       1 NDP601      0.0000 
     15 N7A        25.0420  110.4080  269.9630 N.2       1 NDP601      0.0000 
     16 C5A        23.9380  110.9580  270.5710 C.ar      1 NDP601      0.0000 
     17 C6A        23.6840  111.4990  271.8560 C.ar      1 NDP601      0.0000 
     18 N6A        24.7760  111.5340  272.8620 N.pl3     1 NDP601      0.0000 
     19 N1A        22.4480  111.9780  272.1630 N.ar      1 NDP601      0.0000 
     20 C2A        21.4670  111.9330  271.2220 C.ar      1 NDP601      0.0000 
     21 N3A        21.6600  111.4320  269.9980 N.ar      1 NDP601      0.0000 
     22 C4A        22.8990  110.9320  269.6380 C.ar      1 NDP601      0.0000 
     23 O3         27.4670  107.8580  263.4590 O.3       1 NDP601      0.0000 
     24 PN         28.9770  107.5010  263.1190 P.3       1 NDP601      0.0000 
     25 O1N        29.5440  108.4940  262.0930 O.co2     1 NDP601      0.0000 
     26 O2N        29.8030  107.5730  264.3840 O.co2     1 NDP601      0.0000 
     27 O5D        29.0230  105.9980  262.5140 O.3       1 NDP601      0.0000 
     28 C5D        28.8800  105.8070  261.1310 C.3       1 NDP601      0.0000 
     29 C4D        29.9370  105.0840  260.4440 C.3       1 NDP601      0.0000 
     30 O4D        30.4810  104.0980  261.3190 O.3       1 NDP601      0.0000 
     31 C3D        29.4230  104.3650  259.2720 C.3       1 NDP601      0.0000 
     32 O3D        30.3920  104.3630  258.2760 O.3       1 NDP601      0.0000 
     33 C2D        29.2260  103.0360  259.7430 C.3       1 NDP601      0.0000 
     34 O2D        29.3030  102.1180  258.6940 O.3       1 NDP601      0.0000 
     35 C1D        30.3520  102.8740  260.6820 C.3       1 NDP601      0.0000 
     36 N1N        30.1000  101.8180  261.6120 N.pl3     1 NDP601      0.0000 
     37 C2N        31.0140  100.8400  261.7170 C.2       1 NDP601      0.0000 
     38 C3N        30.8330   99.7770  262.6110 C.2       1 NDP601      0.0000 
     39 C7N        31.9040   98.7060  262.6810 C.2       1 NDP601      0.0000 
     40 O7N        31.8380   97.8270  263.5550 O.2       1 NDP601      0.0000 
     41 N7N        32.9910   98.7040  261.7450 N.am      1 NDP601      0.0000 
     42 C4N        29.6780   99.7230  263.4140 C.3       1 NDP601      0.0000 
     43 C5N        28.7460  100.7610  263.2760 C.2       1 NDP601      0.0000 
     44 C6N        28.9640  101.8040  262.3750 C.2       1 NDP601      0.0000 
     45 P2B        20.6870  112.3970  265.3600 P.3       1 NDP601      0.0000 
     46 O1X        21.2210  113.3480  264.2700 O.co2     1 NDP601      0.0000 
     47 O2X        19.3570  111.8820  265.0010 O.co2     1 NDP601      0.0000 
     48 O3X        20.5570  113.1430  266.6500 O.co2     1 NDP601      0.0000 
@<TRIPOS>BOND
     1    1    2 ar   
     2    1    3 ar   
     3    1    4 1    
     4    1   23 1    
     5    4    5 1    
     6    5    6 1    
     7    6    7 1    
     8    6    8 1    
     9    7   12 1    
    10    8    9 1    
    11    8   10 1    
    12   10   11 1    
    13   10   12 1    
    14   11   45 1    
    15   12   13 1    
    16   13   14 1    
    17   13   22 1    
    18   14   15 2    
    19   15   16 1    
    20   16   17 ar   
    21   16   22 ar   
    22   17   18 1    
    23   17   19 ar   
    24   19   20 ar   
    25   20   21 ar   
    26   21   22 ar   
    27   23   24 1    
    28   24   25 ar   
    29   24   26 ar   
    30   24   27 1    
    31   27   28 1    
    32   28   29 1    
    33   29   30 1    
    34   29   31 1    
    35   30   35 1    
    36   31   32 1    
    37   31   33 1    
    38   33   34 1    
    39   33   35 1    
    40   35   36 1    
    41   36   37 1    
    42   36   44 1    
    43   37   38 2    
    44   38   39 1    
    45   38   42 1    
    46   39   40 2    
    47   39   41 am   
    48   42   43 1    
    49   43   44 2    
    50   45   46 ar   
    51   45   47 ar   
    52   45   48 ar   
@<TRIPOS>SUBSTRUCTURE
     1 NDP601      1 GROUP   
@<TRIPOS>SET
ATOM$ORANGE STATIC     ATOMS   COLORGROUP SYSTEM 
42 5 5 6 6 8 8 10 10 12 12 14 14 16 16 17 17 20 \
20 22 22 28 28 29 29 31 31 33 33 35 35 37 37 38 38 39 \
39 42 42 43 43 44 44 

