#    Name: 6pfe_5_MTX
#    Modification time : Fri May 22 19:34:54 2020

@<TRIPOS>MOLECULE
6pfe_5_MTX
   33    35     1     0     0
SMALL
NO_CHARGES


@<TRIPOS>ATOM
      1 N1         31.5310   94.0110  262.4620 N.ar      1 MTX604      0.0000 
      2 C2         31.7330   93.7820  263.8080 C.ar      1 MTX604      0.0000 
      3 NA2        32.6400   92.8990  264.2100 N.pl3     1 MTX604      0.0000 
      4 N3         30.9910   94.4720  264.7450 N.ar      1 MTX604      0.0000 
      5 C4         30.0430   95.3940  264.3500 C.ar      1 MTX604      0.0000 
      6 NA4        29.3800   96.0890  265.2720 N.pl3     1 MTX604      0.0000 
      7 C4A        29.8370   95.6250  262.9930 C.ar      1 MTX604      0.0000 
      8 N5         28.8940   96.5450  262.5800 N.ar      1 MTX604      0.0000 
      9 C6         28.6970   96.7740  261.2290 C.ar      1 MTX604      0.0000 
     10 C7         29.4490   96.0690  260.2960 C.ar      1 MTX604      0.0000 
     11 N8         30.3940   95.1530  260.7090 N.ar      1 MTX604      0.0000 
     12 C8A        30.5880   94.9280  262.0530 C.ar      1 MTX604      0.0000 
     13 C9         27.6610   97.7790  260.7730 C.3       1 MTX604      0.0000 
     14 N10        26.3440   97.3490  261.2050 N.pl3     1 MTX604      0.0000 
     15 CM         25.7860   97.9210  262.4380 C.3       1 MTX604      0.0000 
     16 C11        24.6440   93.8370  259.6600 C.ar      1 MTX604      0.0000 
     17 C12        25.4380   94.6310  258.8410 C.ar      1 MTX604      0.0000 
     18 C13        26.0030   95.7960  259.3500 C.ar      1 MTX604      0.0000 
     19 C14        25.7680   96.1670  260.6710 C.ar      1 MTX604      0.0000 
     20 C15        24.9800   95.3610  261.4860 C.ar      1 MTX604      0.0000 
     21 C16        24.4060   94.2020  260.9770 C.ar      1 MTX604      0.0000 
     22 C          24.0310   92.5750  259.1400 C.2       1 MTX604      0.0000 
     23 O          23.7420   92.4790  257.7670 O.2       1 MTX604      0.0000 
     24 N          23.7700   91.5920  259.9960 N.am      1 MTX604      0.0000 
     25 CA         23.1810   90.3380  259.5840 C.3       1 MTX604      0.0000 
     26 CT         22.5720   89.6520  260.7660 C.2       1 MTX604      0.0000 
     27 O1         22.7760   90.1130  261.9100 O.co2     1 MTX604      0.0000 
     28 O2         21.8630   88.6290  260.6290 O.co2     1 MTX604      0.0000 
     29 CB         24.2720   89.4340  259.0400 C.3       1 MTX604      0.0000 
     30 CG         23.7600   88.4650  257.9820 C.3       1 MTX604      0.0000 
     31 CD         24.8860   87.5150  257.6580 C.2       1 MTX604      0.0000 
     32 OE1        24.7970   86.3050  257.9590 O.co2     1 MTX604      0.0000 
     33 OE2        25.9260   87.9350  257.1060 O.co2     1 MTX604      0.0000 
@<TRIPOS>BOND
     1    1    2 ar   
     2    1   12 ar   
     3    2    3 1    
     4    2    4 ar   
     5    4    5 ar   
     6    5    6 1    
     7    5    7 ar   
     8    7    8 ar   
     9    7   12 ar   
    10    8    9 ar   
    11    9   10 ar   
    12    9   13 1    
    13   10   11 ar   
    14   11   12 ar   
    15   13   14 1    
    16   14   15 1    
    17   14   19 1    
    18   16   17 ar   
    19   16   21 ar   
    20   16   22 1    
    21   17   18 ar   
    22   18   19 ar   
    23   19   20 ar   
    24   20   21 ar   
    25   22   23 2    
    26   22   24 am   
    27   24   25 1    
    28   25   26 1    
    29   25   29 1    
    30   26   27 ar   
    31   26   28 ar   
    32   29   30 1    
    33   30   31 1    
    34   31   32 ar   
    35   31   33 ar   
@<TRIPOS>SUBSTRUCTURE
     1 MTX604      1 GROUP   
@<TRIPOS>SET

