#    Name: 6pfe_7_NDP
#    Modification time : Fri May 22 19:35:11 2020

@<TRIPOS>MOLECULE
6pfe_7_NDP
   48    52     1     0     1
SMALL
NO_CHARGES


@<TRIPOS>ATOM
      1 PA        -21.3220  139.6400  291.1850 P.3       1 NDP601      0.0000 
      2 O1A       -20.4240  139.8290  292.3910 O.co2     1 NDP601      0.0000 
      3 O2A       -22.6220  139.0420  291.6310 O.co2     1 NDP601      0.0000 
      4 O5B       -21.6010  140.9960  290.5230 O.3       1 NDP601      0.0000 
      5 C5B       -20.5440  141.7520  289.9980 C.3       1 NDP601      0.0000 
      6 C4B       -20.8810  143.0080  289.3130 C.3       1 NDP601      0.0000 
      7 O4B       -21.1970  144.0170  290.2480 O.3       1 NDP601      0.0000 
      8 C3B       -19.7490  143.5450  288.5600 C.3       1 NDP601      0.0000 
      9 O3B       -19.6530  142.9630  287.3090 O.3       1 NDP601      0.0000 
     10 C2B       -20.0890  144.9410  288.4680 C.3       1 NDP601      0.0000 
     11 O2B       -21.1080  145.1420  287.5320 O.3       1 NDP601      0.0000 
     12 C1B       -20.6240  145.2280  289.7850 C.3       1 NDP601      0.0000 
     13 N9A       -19.5820  145.6620  290.6520 N.pl3     1 NDP601      0.0000 
     14 C8A       -18.8140  144.8710  291.4420 C.2       1 NDP601      0.0000 
     15 N7A       -17.9380  145.6370  292.1230 N.2       1 NDP601      0.0000 
     16 C5A       -18.1430  146.9500  291.7690 C.ar      1 NDP601      0.0000 
     17 C6A       -17.5520  148.1870  292.1340 C.ar      1 NDP601      0.0000 
     18 N6A       -16.4410  148.2110  293.1190 N.pl3     1 NDP601      0.0000 
     19 N1A       -17.9980  149.3490  291.5860 N.ar      1 NDP601      0.0000 
     20 C2A       -19.0150  149.3060  290.6850 C.ar      1 NDP601      0.0000 
     21 N3A       -19.6050  148.1690  290.3110 N.ar      1 NDP601      0.0000 
     22 C4A       -19.1870  146.9620  290.8400 C.ar      1 NDP601      0.0000 
     23 O3        -20.6490  138.6620  290.1250 O.3       1 NDP601      0.0000 
     24 PN        -20.0470  137.2570  290.5630 P.3       1 NDP601      0.0000 
     25 O1N       -19.3970  136.5620  289.3580 O.co2     1 NDP601      0.0000 
     26 O2N       -18.9870  137.4790  291.6180 O.co2     1 NDP601      0.0000 
     27 O5D       -21.2300  136.3260  291.1640 O.3       1 NDP601      0.0000 
     28 C5D       -22.0420  135.5770  290.2970 C.3       1 NDP601      0.0000 
     29 C4D       -22.1040  134.1410  290.5230 C.3       1 NDP601      0.0000 
     30 O4D       -22.1770  133.8820  291.9230 O.3       1 NDP601      0.0000 
     31 C3D       -23.3060  133.5400  289.9350 C.3       1 NDP601      0.0000 
     32 O3D       -23.0230  132.2230  289.5900 O.3       1 NDP601      0.0000 
     33 C2D       -24.2410  133.5560  291.0070 C.3       1 NDP601      0.0000 
     34 O2D       -25.2360  132.5970  290.8070 O.3       1 NDP601      0.0000 
     35 C1D       -23.3760  133.2210  292.1590 C.3       1 NDP601      0.0000 
     36 N1N       -23.9530  133.6260  293.4060 N.pl3     1 NDP601      0.0000 
     37 C2N       -24.0370  132.7170  294.3930 C.2       1 NDP601      0.0000 
     38 C3N       -24.5850  133.0540  295.6390 C.2       1 NDP601      0.0000 
     39 C7N       -24.6600  131.9920  296.7220 C.2       1 NDP601      0.0000 
     40 O7N       -25.0190  132.3180  297.8650 O.2       1 NDP601      0.0000 
     41 N7N       -24.3230  130.6220  296.4520 N.am      1 NDP601      0.0000 
     42 C4N       -25.0530  134.3610  295.8660 C.3       1 NDP601      0.0000 
     43 C5N       -24.9470  135.2830  294.8170 C.2       1 NDP601      0.0000 
     44 C6N       -24.3960  134.9080  293.5930 C.2       1 NDP601      0.0000 
     45 P2B       -20.9210  146.1100  286.3230 P.3       1 NDP601      0.0000 
     46 O1X       -20.2810  145.3220  285.1620 O.co2     1 NDP601      0.0000 
     47 O2X       -22.2370  146.6420  285.9240 O.co2     1 NDP601      0.0000 
     48 O3X       -20.0410  147.2590  286.6980 O.co2     1 NDP601      0.0000 
@<TRIPOS>BOND
     1    1    2 ar   
     2    1    3 ar   
     3    1    4 1    
     4    1   23 1    
     5    4    5 1    
     6    5    6 1    
     7    6    7 1    
     8    6    8 1    
     9    7   12 1    
    10    8    9 1    
    11    8   10 1    
    12   10   11 1    
    13   10   12 1    
    14   11   45 1    
    15   12   13 1    
    16   13   14 1    
    17   13   22 1    
    18   14   15 2    
    19   15   16 1    
    20   16   17 ar   
    21   16   22 ar   
    22   17   18 1    
    23   17   19 ar   
    24   19   20 ar   
    25   20   21 ar   
    26   21   22 ar   
    27   23   24 1    
    28   24   25 ar   
    29   24   26 ar   
    30   24   27 1    
    31   27   28 1    
    32   28   29 1    
    33   29   30 1    
    34   29   31 1    
    35   30   35 1    
    36   31   32 1    
    37   31   33 1    
    38   33   34 1    
    39   33   35 1    
    40   35   36 1    
    41   36   37 1    
    42   36   44 1    
    43   37   38 2    
    44   38   39 1    
    45   38   42 1    
    46   39   40 2    
    47   39   41 am   
    48   42   43 1    
    49   43   44 2    
    50   45   46 ar   
    51   45   47 ar   
    52   45   48 ar   
@<TRIPOS>SUBSTRUCTURE
     1 NDP601      1 GROUP   
@<TRIPOS>SET
ATOM$ORANGE STATIC     ATOMS   COLORGROUP SYSTEM 
42 5 5 6 6 8 8 10 10 12 12 14 14 16 16 17 17 20 \
20 22 22 28 28 29 29 31 31 33 33 35 35 37 37 38 38 39 \
39 42 42 43 43 44 44 

