#    Name: 5zsb_1_IDQ
#    Modification time : Fri May 22 19:29:46 2020

@<TRIPOS>MOLECULE
5zsb_1_IDQ
   27    30     1     0     0
SMALL
NO_CHARGES


@<TRIPOS>ATOM
      1 N4        -12.5450  -35.0240  -10.4580           1 IDQ1011     0.0000 
      2 C21       -13.4340  -34.2790   -9.5430           1 IDQ1011     0.0000 
      3 C18       -14.0530  -33.0570  -10.2080           1 IDQ1011     0.0000 
      4 C17       -13.7540  -31.7690   -9.7440           1 IDQ1011     0.0000 
      5 C16       -14.3290  -30.6450  -10.3460           1 IDQ1011     0.0000 
      6 C20       -14.9230  -33.2050  -11.2950           1 IDQ1011     0.0000 
      7 C19       -15.4900  -32.0730  -11.8950           1 IDQ1011     0.0000 
      8 C15       -15.1990  -30.7880  -11.4290           1 IDQ1011     0.0000 
      9 C14       -15.8240  -29.5680  -12.0930           1 IDQ1011     0.0000 
     10 N2        -14.8850  -28.4700  -11.8560           1 IDQ1011     0.0000 
     11 C9        -14.9880  -27.5470  -10.8670           1 IDQ1011     0.0000 
     12 C10       -16.0770  -27.4250   -9.8360           1 IDQ1011     0.0000 
     13 C11       -17.1010  -26.3770  -10.2420           1 IDQ1011     0.0000 
     14 C12       -17.4740  -26.5690  -11.7110           1 IDQ1011     0.0000 
     15 C13       -18.6910  -25.7770  -12.1400           1 IDQ1011     0.0000 
     16 N1        -13.9440  -26.7060  -10.9170           1 IDQ1011     0.0000 
     17 C7        -13.1330  -27.0660  -11.9260           1 IDQ1011     0.0000 
     18 C6        -11.8450  -26.5780  -12.4720           1 IDQ1011     0.0000 
     19 N3        -11.2320  -25.5080  -11.9250           1 IDQ1011     0.0000 
     20 N         -11.3000  -27.1990  -13.5340           1 IDQ1011     0.0000 
     21 C         -11.8640  -28.2760  -14.1180           1 IDQ1011     0.0000 
     22 C8        -13.7630  -28.2240  -12.5430           1 IDQ1011     0.0000 
     23 C1        -13.1560  -28.8510  -13.6350           1 IDQ1011     0.0000 
     24 C3        -13.6620  -29.9630  -14.3100           1 IDQ1011     0.0000 
     25 C5        -12.9830  -30.4980  -15.3960           1 IDQ1011     0.0000 
     26 C4        -11.7930  -29.9450  -15.8330           1 IDQ1011     0.0000 
     27 C2        -11.2320  -28.8450  -15.2020           1 IDQ1011     0.0000 
@<TRIPOS>BOND
     1    1    2 du   
     2    2    3 du   
     3    3    4 du   
     4    3    6 du   
     5    4    5 du   
     6    5    8 du   
     7    6    7 du   
     8    7    8 du   
     9    8    9 du   
    10    9   10 du   
    11   10   11 du   
    12   10   22 du   
    13   11   12 du   
    14   11   16 du   
    15   12   13 du   
    16   13   14 du   
    17   14   15 du   
    18   16   17 du   
    19   17   18 du   
    20   17   22 du   
    21   18   19 du   
    22   18   20 du   
    23   20   21 du   
    24   21   23 du   
    25   21   27 du   
    26   22   23 du   
    27   23   24 du   
    28   24   25 du   
    29   25   26 du   
    30   26   27 du   
@<TRIPOS>SUBSTRUCTURE
     1 IDQ1011     1 GROUP   
@<TRIPOS>SET

