#    Name: 6q6q_1_FAD
#    Modification time : Fri May 22 19:26:25 2020

@<TRIPOS>MOLECULE
6q6q_1_FAD
   53    58     1     0     1
SMALL
NO_CHARGES


@<TRIPOS>ATOM
      1 PA        -64.4830  -38.3850  -39.5380 P.3       1 FAD3003     0.0000 
      2 O1A       -64.9200  -38.5730  -40.9720 O.co2     1 FAD3003     0.0000 
      3 O2A       -63.0060  -38.0500  -39.4970 O.co2     1 FAD3003     0.0000 
      4 O5B       -64.7680  -39.7830  -38.6860 O.3       1 FAD3003     0.0000 
      5 C5B       -64.4970  -39.7930  -37.3000 C.3       1 FAD3003     0.0000 
      6 C4B       -65.4130  -40.8400  -36.5970 C.3       1 FAD3003     0.0000 
      7 O4B       -66.6520  -40.4190  -36.5810 O.3       1 FAD3003     0.0000 
      8 C3B       -65.4130  -42.1600  -37.3950 C.3       1 FAD3003     0.0000 
      9 O3B       -65.2480  -43.2110  -36.5520 O.3       1 FAD3003     0.0000 
     10 C2B       -66.8040  -42.2200  -38.0550 C.3       1 FAD3003     0.0000 
     11 O2B       -67.2400  -43.6410  -38.2070 O.3       1 FAD3003     0.0000 
     12 C1B       -67.5730  -41.5910  -37.2140 C.3       1 FAD3003     0.0000 
     13 N9A       -68.7060  -41.0040  -37.8880 N.pl3     1 FAD3003     0.0000 
     14 C8A       -68.6680  -39.9730  -38.7360 C.2       1 FAD3003     0.0000 
     15 N7A       -69.9200  -39.7230  -39.1420 N.2       1 FAD3003     0.0000 
     16 C5A       -70.7340  -40.6020  -38.5380 C.ar      1 FAD3003     0.0000 
     17 C6A       -72.1000  -40.7890  -38.5970 C.ar      1 FAD3003     0.0000 
     18 N6A       -73.2630  -40.2240  -39.2510 N.pl3     1 FAD3003     0.0000 
     19 N1A       -72.6700  -41.7510  -37.8870 N.ar      1 FAD3003     0.0000 
     20 C2A       -71.9120  -42.5520  -37.1010 C.ar      1 FAD3003     0.0000 
     21 N3A       -70.5700  -42.3720  -37.0400 N.ar      1 FAD3003     0.0000 
     22 C4A       -69.9870  -41.3940  -37.7620 C.ar      1 FAD3003     0.0000 
     23 N1        -61.8510  -29.9920  -32.6220 N.2       1 FAD3003     0.0000 
     24 C2        -62.2350  -29.0250  -31.5670 C.2       1 FAD3003     0.0000 
     25 O2        -63.0840  -29.3000  -30.7910 O.2       1 FAD3003     0.0000 
     26 N3        -61.5480  -27.7040  -31.4860 N.am      1 FAD3003     0.0000 
     27 C4        -60.5060  -27.3700  -32.4490 C.2       1 FAD3003     0.0000 
     28 O4        -59.9560  -26.3220  -32.3930 O.2       1 FAD3003     0.0000 
     29 C4X       -60.1270  -28.3720  -33.5190 C.2       1 FAD3003     0.0000 
     30 N5        -59.0860  -28.0480  -34.4800 N.2       1 FAD3003     0.0000 
     31 C5X       -58.7120  -29.0330  -35.5350 C.ar      1 FAD3003     0.0000 
     32 C6        -57.7100  -28.7180  -36.4590 C.ar      1 FAD3003     0.0000 
     33 C7        -57.3610  -29.6390  -37.4430 C.ar      1 FAD3003     0.0000 
     34 C7M       -56.2490  -29.0410  -38.3070 C.3       1 FAD3003     0.0000 
     35 C8        -58.0100  -30.8820  -37.5130 C.ar      1 FAD3003     0.0000 
     36 C8M       -57.5940  -31.8620  -38.6110 C.3       1 FAD3003     0.0000 
     37 C9        -59.0100  -31.1990  -36.5920 C.ar      1 FAD3003     0.0000 
     38 C9A       -59.3630  -30.2780  -35.6030 C.ar      1 FAD3003     0.0000 
     39 N10       -60.4370  -30.6140  -34.6180 N.pl3     1 FAD3003     0.0000 
     40 C10       -60.8020  -29.6580  -33.5880 C.2       1 FAD3003     0.0000 
     41 C1'       -61.1120  -31.9160  -34.6840 C.3       1 FAD3003     0.0000 
     42 C2'       -62.3550  -31.8530  -35.5880 C.3       1 FAD3003     0.0000 
     43 O2'       -63.2840  -30.9650  -35.0640 O.3       1 FAD3003     0.0000 
     44 C3'       -62.9650  -33.2540  -35.6620 C.3       1 FAD3003     0.0000 
     45 O3'       -62.0170  -34.1430  -36.1650 O.3       1 FAD3003     0.0000 
     46 C4'       -64.1770  -33.2210  -36.5940 C.3       1 FAD3003     0.0000 
     47 O4'       -65.1780  -32.4360  -36.0280 O.3       1 FAD3003     0.0000 
     48 C5'       -64.7090  -34.6390  -36.8390 C.3       1 FAD3003     0.0000 
     49 O5'       -65.5760  -34.6200  -37.9580 O.3       1 FAD3003     0.0000 
     50 P         -65.1940  -35.5610  -39.2740 P.3       1 FAD3003     0.0000 
     51 O1P       -66.1270  -35.2410  -40.4190 O.co2     1 FAD3003     0.0000 
     52 O2P       -63.7680  -35.2930  -39.6930 O.co2     1 FAD3003     0.0000 
     53 O3P       -65.3630  -37.1570  -38.8590 O.3       1 FAD3003     0.0000 
@<TRIPOS>BOND
     1    1    2 ar   
     2    1    3 ar   
     3    1    4 1    
     4    1   53 1    
     5    4    5 1    
     6    5    6 1    
     7    6    7 1    
     8    6    8 1    
     9    7   12 1    
    10    8    9 1    
    11    8   10 1    
    12   10   11 1    
    13   10   12 1    
    14   12   13 1    
    15   13   14 1    
    16   13   22 1    
    17   14   15 2    
    18   15   16 1    
    19   16   17 ar   
    20   16   22 ar   
    21   17   18 1    
    22   17   19 ar   
    23   19   20 ar   
    24   20   21 ar   
    25   21   22 ar   
    26   23   24 1    
    27   23   40 2    
    28   24   25 2    
    29   24   26 am   
    30   26   27 am   
    31   27   28 2    
    32   27   29 1    
    33   29   30 2    
    34   29   40 1    
    35   30   31 1    
    36   31   32 ar   
    37   31   38 ar   
    38   32   33 ar   
    39   33   34 1    
    40   33   35 ar   
    41   35   36 1    
    42   35   37 ar   
    43   37   38 ar   
    44   38   39 1    
    45   39   40 1    
    46   39   41 1    
    47   41   42 1    
    48   42   43 1    
    49   42   44 1    
    50   44   45 1    
    51   44   46 1    
    52   46   47 1    
    53   46   48 1    
    54   48   49 1    
    55   49   50 1    
    56   50   51 ar   
    57   50   52 ar   
    58   50   53 1    
@<TRIPOS>SUBSTRUCTURE
     1 FAD3003     1 GROUP   
@<TRIPOS>SET
ATOM$ORANGE STATIC     ATOMS   COLORGROUP SYSTEM 
54 5 5 6 6 8 8 10 10 12 12 14 14 16 16 17 17 20 \
20 22 22 24 24 27 27 29 29 31 31 32 32 33 33 34 34 35 \
35 36 36 37 37 38 38 40 40 41 41 42 42 44 44 46 46 48 \
48 

