#    Name: 6o4h_1_NAD
#    Modification time : Fri May 22 19:30:10 2020

@<TRIPOS>MOLECULE
6o4h_1_NAD
   44    48     1     0     1
SMALL
NO_CHARGES


@<TRIPOS>ATOM
      1 PA         57.6050   69.6870   33.8110 P.3       1 NAD601      0.0000 
      2 O1A        58.3270   71.0150   33.7270 O.co2     1 NAD601      0.0000 
      3 O2A        56.3010   69.8280   34.5610 O.co2     1 NAD601      0.0000 
      4 O5B        57.3700   69.1590   32.2960 O.3       1 NAD601      0.0000 
      5 C5B        56.8280   67.8510   32.0990 C.3       1 NAD601      0.0000 
      6 C4B        56.0140   67.9150   30.7730 C.3       1 NAD601      0.0000 
      7 O4B        55.0390   68.7950   30.8860 O.3       1 NAD601      0.0000 
      8 C3B        56.9110   68.4100   29.6210 C.3       1 NAD601      0.0000 
      9 O3B        56.6820   67.6870   28.5000 O.3       1 NAD601      0.0000 
     10 C2B        56.4290   69.8600   29.4030 C.3       1 NAD601      0.0000 
     11 O2B        56.7740   70.3750   28.0450 O.3       1 NAD601      0.0000 
     12 C1B        55.1480   69.7530   29.5990 C.3       1 NAD601      0.0000 
     13 N9A        54.5790   70.9870   29.9760 N.pl3     1 NAD601      0.0000 
     14 C8A        55.2420   72.0730   30.4510 C.2       1 NAD601      0.0000 
     15 N7A        54.3200   73.0390   30.6890 N.2       1 NAD601      0.0000 
     16 C5A        53.0940   72.5470   30.3610 C.ar      1 NAD601      0.0000 
     17 C6A        51.8420   73.1190   30.4140 C.ar      1 NAD601      0.0000 
     18 N6A        51.5950   74.4440   30.8730 N.pl3     1 NAD601      0.0000 
     19 N1A        50.7610   72.4220   30.0410 N.ar      1 NAD601      0.0000 
     20 C2A        50.9160   71.1320   29.6020 C.ar      1 NAD601      0.0000 
     21 N3A        52.1550   70.5520   29.5250 N.ar      1 NAD601      0.0000 
     22 C4A        53.2450   71.2740   29.9220 C.ar      1 NAD601      0.0000 
     23 O3         58.4930   68.5730   34.5360 O.3       1 NAD601      0.0000 
     24 PN         60.0520   68.3520   34.2050 P.3       1 NAD601      0.0000 
     25 O1N        60.7170   69.7180   34.0680 O.co2     1 NAD601      0.0000 
     26 O2N        60.2210   67.6020   32.8800 O.co2     1 NAD601      0.0000 
     27 O5D        60.7320   67.6390   35.4590 O.3       1 NAD601      0.0000 
     28 C5D        60.3300   66.3630   35.9250 C.3       1 NAD601      0.0000 
     29 C4D        59.1850   66.5080   36.9340 C.3       1 NAD601      0.0000 
     30 O4D        58.3650   65.5220   36.6860 O.3       1 NAD601      0.0000 
     31 C3D        59.6610   66.3090   38.3690 C.3       1 NAD601      0.0000 
     32 O3D        59.0050   67.1360   39.2140 O.3       1 NAD601      0.0000 
     33 C2D        59.3190   64.8190   38.6510 C.3       1 NAD601      0.0000 
     34 O2D        59.1260   64.5440   40.0930 O.3       1 NAD601      0.0000 
     35 C1D        58.2320   64.6170   38.0040 C.3       1 NAD601      0.0000 
     36 N1N        58.1750   63.2480   37.6010 N.pl3     1 NAD601      0.0000 
     37 C2N        57.1850   62.4330   38.0970 C.ar      1 NAD601      0.0000 
     38 C3N        57.1420   61.1000   37.6980 C.ar      1 NAD601      0.0000 
     39 C7N        56.0450   60.1470   38.2380 C.2       1 NAD601      0.0000 
     40 O7N        55.8880   59.0850   37.6840 O.2       1 NAD601      0.0000 
     41 N7N        55.2210   60.4910   39.3770 N.am      1 NAD601      0.0000 
     42 C4N        58.0840   60.6150   36.8230 C.ar      1 NAD601      0.0000 
     43 C5N        59.0690   61.4410   36.3260 C.ar      1 NAD601      0.0000 
     44 C6N        59.1100   62.7730   36.7240 C.ar      1 NAD601      0.0000 
@<TRIPOS>BOND
     1    1    2 ar   
     2    1    3 ar   
     3    1    4 1    
     4    1   23 1    
     5    4    5 1    
     6    5    6 1    
     7    6    7 1    
     8    6    8 1    
     9    7   12 1    
    10    8    9 1    
    11    8   10 1    
    12   10   11 1    
    13   10   12 1    
    14   12   13 1    
    15   13   14 1    
    16   13   22 1    
    17   14   15 2    
    18   15   16 1    
    19   16   17 ar   
    20   16   22 ar   
    21   17   18 1    
    22   17   19 ar   
    23   19   20 ar   
    24   20   21 ar   
    25   21   22 ar   
    26   23   24 1    
    27   24   25 ar   
    28   24   26 ar   
    29   24   27 1    
    30   27   28 1    
    31   28   29 1    
    32   29   30 1    
    33   29   31 1    
    34   30   35 1    
    35   31   32 1    
    36   31   33 1    
    37   33   34 1    
    38   33   35 1    
    39   35   36 1    
    40   36   37 ar   
    41   36   44 ar   
    42   37   38 ar   
    43   38   39 1    
    44   38   42 ar   
    45   39   40 2    
    46   39   41 am   
    47   42   43 ar   
    48   43   44 ar   
@<TRIPOS>SUBSTRUCTURE
     1 NAD601      1 GROUP   
@<TRIPOS>SET
ATOM$ORANGE STATIC     ATOMS   COLORGROUP SYSTEM 
42 5 5 6 6 8 8 10 10 12 12 14 14 16 16 17 17 20 \
20 22 22 28 28 29 29 31 31 33 33 35 35 37 37 38 38 39 \
39 42 42 43 43 44 44 

