#    Name: 6o4h_5_NAD
#    Modification time : Fri May 22 19:30:43 2020

@<TRIPOS>MOLECULE
6o4h_5_NAD
   44    48     1     0     1
SMALL
NO_CHARGES


@<TRIPOS>ATOM
      1 PA         23.5150   86.5780   32.6750 P.3       1 NAD601      0.0000 
      2 O1A        24.8120   86.3390   33.4190 O.co2     1 NAD601      0.0000 
      3 O2A        22.7530   85.2710   32.6130 O.co2     1 NAD601      0.0000 
      4 O5B        23.8100   87.1000   31.1680 O.3       1 NAD601      0.0000 
      5 C5B        24.4280   88.3750   30.9860 C.3       1 NAD601      0.0000 
      6 C4B        25.2530   88.2670   29.6760 C.3       1 NAD601      0.0000 
      7 O4B        26.2150   87.4010   29.8830 O.3       1 NAD601      0.0000 
      8 C3B        24.4010   87.7090   28.5260 C.3       1 NAD601      0.0000 
      9 O3B        24.6460   88.4220   27.3910 O.3       1 NAD601      0.0000 
     10 C2B        24.9020   86.2390   28.4240 C.3       1 NAD601      0.0000 
     11 O2B        24.6310   85.5990   27.0960 O.3       1 NAD601      0.0000 
     12 C1B        26.1660   86.3560   28.6710 C.3       1 NAD601      0.0000 
     13 N9A        26.7350   85.1440   29.1380 N.pl3     1 NAD601      0.0000 
     14 C8A        26.0830   84.0760   29.6660 C.2       1 NAD601      0.0000 
     15 N7A        27.0150   83.1390   29.9730 N.2       1 NAD601      0.0000 
     16 C5A        28.2420   83.6300   29.6270 C.ar      1 NAD601      0.0000 
     17 C6A        29.5100   83.0910   29.7330 C.ar      1 NAD601      0.0000 
     18 N6A        29.7880   81.7960   30.2630 N.pl3     1 NAD601      0.0000 
     19 N1A        30.5820   83.7950   29.3360 N.ar      1 NAD601      0.0000 
     20 C2A        30.3980   85.0490   28.8180 C.ar      1 NAD601      0.0000 
     21 N3A        29.1440   85.5870   28.6960 N.ar      1 NAD601      0.0000 
     22 C4A        28.0730   84.8660   29.1150 C.ar      1 NAD601      0.0000 
     23 O3         22.6830   87.7250   33.4370 O.3       1 NAD601      0.0000 
     24 PN         21.1360   88.0750   33.1530 P.3       1 NAD601      0.0000 
     25 O1N        20.4090   86.7580   32.9180 O.co2     1 NAD601      0.0000 
     26 O2N        20.9890   88.9650   31.9260 O.co2     1 NAD601      0.0000 
     27 O5D        20.5010   88.7160   34.4660 O.3       1 NAD601      0.0000 
     28 C5D        20.7640   90.0500   34.8330 C.3       1 NAD601      0.0000 
     29 C4D        21.9270   90.0010   35.8170 C.3       1 NAD601      0.0000 
     30 O4D        22.7340   90.9700   35.4670 O.3       1 NAD601      0.0000 
     31 C3D        21.4490   90.3090   37.2340 C.3       1 NAD601      0.0000 
     32 O3D        22.1610   89.6270   38.1630 O.3       1 NAD601      0.0000 
     33 C2D        21.7380   91.8260   37.3470 C.3       1 NAD601      0.0000 
     34 O2D        21.8280   92.2590   38.7590 O.3       1 NAD601      0.0000 
     35 C1D        22.8530   91.9840   36.7050 C.3       1 NAD601      0.0000 
     36 N1N        22.8990   93.3220   36.2030 N.pl3     1 NAD601      0.0000 
     37 C2N        23.8270   94.2100   36.7060 C.ar      1 NAD601      0.0000 
     38 C3N        23.8450   95.5220   36.2190 C.ar      1 NAD601      0.0000 
     39 C7N        24.8870   96.5280   36.7730 C.2       1 NAD601      0.0000 
     40 O7N        25.0900   97.5440   36.1450 O.2       1 NAD601      0.0000 
     41 N7N        25.5950   96.2470   38.0190 N.am      1 NAD601      0.0000 
     42 C4N        22.9380   95.9280   35.2630 C.ar      1 NAD601      0.0000 
     43 C5N        22.0090   95.0310   34.7660 C.ar      1 NAD601      0.0000 
     44 C6N        21.9940   93.7200   35.2500 C.ar      1 NAD601      0.0000 
@<TRIPOS>BOND
     1    1    2 ar   
     2    1    3 ar   
     3    1    4 1    
     4    1   23 1    
     5    4    5 1    
     6    5    6 1    
     7    6    7 1    
     8    6    8 1    
     9    7   12 1    
    10    8    9 1    
    11    8   10 1    
    12   10   11 1    
    13   10   12 1    
    14   12   13 1    
    15   13   14 1    
    16   13   22 1    
    17   14   15 2    
    18   15   16 1    
    19   16   17 ar   
    20   16   22 ar   
    21   17   18 1    
    22   17   19 ar   
    23   19   20 ar   
    24   20   21 ar   
    25   21   22 ar   
    26   23   24 1    
    27   24   25 ar   
    28   24   26 ar   
    29   24   27 1    
    30   27   28 1    
    31   28   29 1    
    32   29   30 1    
    33   29   31 1    
    34   30   35 1    
    35   31   32 1    
    36   31   33 1    
    37   33   34 1    
    38   33   35 1    
    39   35   36 1    
    40   36   37 ar   
    41   36   44 ar   
    42   37   38 ar   
    43   38   39 1    
    44   38   42 ar   
    45   39   40 2    
    46   39   41 am   
    47   42   43 ar   
    48   43   44 ar   
@<TRIPOS>SUBSTRUCTURE
     1 NAD601      1 GROUP   
@<TRIPOS>SET
ATOM$ORANGE STATIC     ATOMS   COLORGROUP SYSTEM 
42 5 5 6 6 8 8 10 10 12 12 14 14 16 16 17 17 20 \
20 22 22 28 28 29 29 31 31 33 33 35 35 37 37 38 38 39 \
39 42 42 43 43 44 44 

