#    Name: 6o4h_3_NAD
#    Modification time : Fri May 22 19:30:27 2020

@<TRIPOS>MOLECULE
6o4h_3_NAD
   44    48     1     0     1
SMALL
NO_CHARGES


@<TRIPOS>ATOM
      1 PA         46.3340    6.7910   23.7780 P.3       1 NAD601      0.0000 
      2 O1A        46.3740    5.4290   23.1180 O.co2     1 NAD601      0.0000 
      3 O2A        45.5850    6.6600   25.0800 O.co2     1 NAD601      0.0000 
      4 O5B        47.8570    7.2920   24.0700 O.3       1 NAD601      0.0000 
      5 C5B        48.0500    8.6160   24.5720 C.3       1 NAD601      0.0000 
      6 C4B        49.3530    8.5830   25.4210 C.3       1 NAD601      0.0000 
      7 O4B        49.1900    7.7520   26.4040 O.3       1 NAD601      0.0000 
      8 C3B        50.5540    8.0520   24.6250 C.3       1 NAD601      0.0000 
      9 O3B        51.6400    8.8470   24.8690 O.3       1 NAD601      0.0000 
     10 C2B        50.7230    6.6090   25.1800 C.3       1 NAD601      0.0000 
     11 O2B        52.0770    6.0010   24.9560 O.3       1 NAD601      0.0000 
     12 C1B        50.4630    6.7680   26.4330 C.3       1 NAD601      0.0000 
     13 N9A        50.0260    5.5640   27.0390 N.pl3     1 NAD601      0.0000 
     14 C8A        49.5300    4.4790   26.3960 C.2       1 NAD601      0.0000 
     15 N7A        49.2120    3.5590   27.3370 N.2       1 NAD601      0.0000 
     16 C5A        49.5150    4.0760   28.5660 C.ar      1 NAD601      0.0000 
     17 C6A        49.3910    3.5580   29.8420 C.ar      1 NAD601      0.0000 
     18 N6A        48.8720    2.2620   30.1480 N.pl3     1 NAD601      0.0000 
     19 N1A        49.7560    4.2800   30.9160 N.ar      1 NAD601      0.0000 
     20 C2A        50.2580    5.5470   30.7250 C.ar      1 NAD601      0.0000 
     21 N3A        50.3980    6.0680   29.4630 N.ar      1 NAD601      0.0000 
     22 C4A        50.0170    5.3220   28.3820 C.ar      1 NAD601      0.0000 
     23 O3         45.6190    7.9140   22.8700 O.3       1 NAD601      0.0000 
     24 PN         45.8830    8.1940   21.3040 P.3       1 NAD601      0.0000 
     25 O1N        45.9660    6.8410   20.6040 O.co2     1 NAD601      0.0000 
     26 O2N        47.1990    8.9590   21.1580 O.co2     1 NAD601      0.0000 
     27 O5D        44.6390    8.9560   20.6360 O.3       1 NAD601      0.0000 
     28 C5D        44.2640   10.2890   20.9640 C.3       1 NAD601      0.0000 
     29 C4D        43.1980   10.2880   22.0770 C.3       1 NAD601      0.0000 
     30 O4D        43.4500   11.2960   22.8730 O.3       1 NAD601      0.0000 
     31 C3D        41.7800   10.5270   21.5610 C.3       1 NAD601      0.0000 
     32 O3D        40.9000    9.8020   22.2860 O.3       1 NAD601      0.0000 
     33 C2D        41.5410   12.0400   21.8090 C.3       1 NAD601      0.0000 
     34 O2D        40.0970   12.3570   21.9440 O.3       1 NAD601      0.0000 
     35 C1D        42.1640   12.2630   22.9140 C.3       1 NAD601      0.0000 
     36 N1N        42.6150   13.6210   22.9450 N.pl3     1 NAD601      0.0000 
     37 C2N        42.1910   14.4550   23.9530 C.ar      1 NAD601      0.0000 
     38 C3N        42.6310   15.7830   23.9720 C.ar      1 NAD601      0.0000 
     39 C7N        42.1430   16.7290   25.0990 C.2       1 NAD601      0.0000 
     40 O7N        42.7630   17.7440   25.3090 O.2       1 NAD601      0.0000 
     41 N7N        40.9590   16.4100   25.8720 N.am      1 NAD601      0.0000 
     42 C4N        43.4900   16.2530   22.9990 C.ar      1 NAD601      0.0000 
     43 C5N        43.9120   15.4020   21.9950 C.ar      1 NAD601      0.0000 
     44 C6N        43.4680   14.0780   21.9750 C.ar      1 NAD601      0.0000 
@<TRIPOS>BOND
     1    1    2 ar   
     2    1    3 ar   
     3    1    4 1    
     4    1   23 1    
     5    4    5 1    
     6    5    6 1    
     7    6    7 1    
     8    6    8 1    
     9    7   12 1    
    10    8    9 1    
    11    8   10 1    
    12   10   11 1    
    13   10   12 1    
    14   12   13 1    
    15   13   14 1    
    16   13   22 1    
    17   14   15 2    
    18   15   16 1    
    19   16   17 ar   
    20   16   22 ar   
    21   17   18 1    
    22   17   19 ar   
    23   19   20 ar   
    24   20   21 ar   
    25   21   22 ar   
    26   23   24 1    
    27   24   25 ar   
    28   24   26 ar   
    29   24   27 1    
    30   27   28 1    
    31   28   29 1    
    32   29   30 1    
    33   29   31 1    
    34   30   35 1    
    35   31   32 1    
    36   31   33 1    
    37   33   34 1    
    38   33   35 1    
    39   35   36 1    
    40   36   37 ar   
    41   36   44 ar   
    42   37   38 ar   
    43   38   39 1    
    44   38   42 ar   
    45   39   40 2    
    46   39   41 am   
    47   42   43 ar   
    48   43   44 ar   
@<TRIPOS>SUBSTRUCTURE
     1 NAD601      1 GROUP   
@<TRIPOS>SET
ATOM$ORANGE STATIC     ATOMS   COLORGROUP SYSTEM 
42 5 5 6 6 8 8 10 10 12 12 14 14 16 16 17 17 20 \
20 22 22 28 28 29 29 31 31 33 33 35 35 37 37 38 38 39 \
39 42 42 43 43 44 44 

