#    Name: 6o4h_2_NAD
#    Modification time : Fri May 22 19:30:18 2020

@<TRIPOS>MOLECULE
6o4h_2_NAD
   44    48     1     0     1
SMALL
NO_CHARGES


@<TRIPOS>ATOM
      1 PA         21.5880   69.4710   43.0950 P.3       1 NAD602      0.0000 
      2 O1A        22.8890   69.6740   42.3580 O.co2     1 NAD602      0.0000 
      3 O2A        20.7190   70.7110   43.0240 O.co2     1 NAD602      0.0000 
      4 O5B        21.8590   69.1120   44.6500 O.3       1 NAD602      0.0000 
      5 C5B        22.3580   67.8270   45.0010 C.3       1 NAD602      0.0000 
      6 C4B        23.2030   68.0430   46.2860 C.3       1 NAD602      0.0000 
      7 O4B        24.1490   68.9280   46.0580 O.3       1 NAD602      0.0000 
      8 C3B        22.3270   68.6340   47.3900 C.3       1 NAD602      0.0000 
      9 O3B        22.6190   67.9790   48.5330 O.3       1 NAD602      0.0000 
     10 C2B        22.7570   70.1300   47.4350 C.3       1 NAD602      0.0000 
     11 O2B        22.4200   70.8340   48.7250 O.3       1 NAD602      0.0000 
     12 C1B        24.0290   70.0640   47.1930 C.3       1 NAD602      0.0000 
     13 N9A        24.5520   71.2780   46.6620 N.pl3     1 NAD602      0.0000 
     14 C8A        23.8710   72.2490   46.0220 C.2       1 NAD602      0.0000 
     15 N7A        24.7540   73.2230   45.6860 N.2       1 NAD602      0.0000 
     16 C5A        25.9960   72.8510   46.1160 C.ar      1 NAD602      0.0000 
     17 C6A        27.2470   73.4630   46.0300 C.ar      1 NAD602      0.0000 
     18 N6A        27.5420   74.7250   45.4240 N.pl3     1 NAD602      0.0000 
     19 N1A        28.3210   72.8750   46.5460 N.ar      1 NAD602      0.0000 
     20 C2A        28.1730   71.6600   47.1460 C.ar      1 NAD602      0.0000 
     21 N3A        26.9620   71.0510   47.2490 N.ar      1 NAD602      0.0000 
     22 C4A        25.8670   71.6480   46.7180 C.ar      1 NAD602      0.0000 
     23 O3         20.8360   68.2230   42.4230 O.3       1 NAD602      0.0000 
     24 PN         19.2670   67.9560   42.5980 P.3       1 NAD602      0.0000 
     25 O1N        18.5250   69.2880   42.5860 O.co2     1 NAD602      0.0000 
     26 O2N        19.0400   67.2440   43.9230 O.co2     1 NAD602      0.0000 
     27 O5D        18.7630   67.0960   41.3570 O.3       1 NAD602      0.0000 
     28 C5D        19.0480   65.7110   41.2980 C.3       1 NAD602      0.0000 
     29 C4D        20.1990   65.5150   40.3100 C.3       1 NAD602      0.0000 
     30 O4D        20.9120   64.5000   40.7190 O.3       1 NAD602      0.0000 
     31 C3D        19.6750   65.1460   38.9240 C.3       1 NAD602      0.0000 
     32 O3D        20.3150   65.8650   37.9740 O.3       1 NAD602      0.0000 
     33 C2D        19.9990   63.6330   38.8020 C.3       1 NAD602      0.0000 
     34 O2D        20.1600   63.2280   37.3840 O.3       1 NAD602      0.0000 
     35 C1D        21.1020   63.5330   39.4540 C.3       1 NAD602      0.0000 
     36 N1N        21.2320   62.2390   40.0210 N.pl3     1 NAD602      0.0000 
     37 C2N        22.2930   61.4420   39.6670 C.ar      1 NAD602      0.0000 
     38 C3N        22.3870   60.1840   40.2620 C.ar      1 NAD602      0.0000 
     39 C7N        23.5640   59.2740   39.8690 C.2       1 NAD602      0.0000 
     40 O7N        23.8220   58.3190   40.5670 O.2       1 NAD602      0.0000 
     41 N7N        24.3300   59.5900   38.6850 N.am      1 NAD602      0.0000 
     42 C4N        21.4610   59.7480   41.1850 C.ar      1 NAD602      0.0000 
     43 C5N        20.4110   60.5700   41.5400 C.ar      1 NAD602      0.0000 
     44 C6N        20.3050   61.8290   40.9500 C.ar      1 NAD602      0.0000 
@<TRIPOS>BOND
     1    1    2 ar   
     2    1    3 ar   
     3    1    4 1    
     4    1   23 1    
     5    4    5 1    
     6    5    6 1    
     7    6    7 1    
     8    6    8 1    
     9    7   12 1    
    10    8    9 1    
    11    8   10 1    
    12   10   11 1    
    13   10   12 1    
    14   12   13 1    
    15   13   14 1    
    16   13   22 1    
    17   14   15 2    
    18   15   16 1    
    19   16   17 ar   
    20   16   22 ar   
    21   17   18 1    
    22   17   19 ar   
    23   19   20 ar   
    24   20   21 ar   
    25   21   22 ar   
    26   23   24 1    
    27   24   25 ar   
    28   24   26 ar   
    29   24   27 1    
    30   27   28 1    
    31   28   29 1    
    32   29   30 1    
    33   29   31 1    
    34   30   35 1    
    35   31   32 1    
    36   31   33 1    
    37   33   34 1    
    38   33   35 1    
    39   35   36 1    
    40   36   37 ar   
    41   36   44 ar   
    42   37   38 ar   
    43   38   39 1    
    44   38   42 ar   
    45   39   40 2    
    46   39   41 am   
    47   42   43 ar   
    48   43   44 ar   
@<TRIPOS>SUBSTRUCTURE
     1 NAD602      1 GROUP   
@<TRIPOS>SET
ATOM$ORANGE STATIC     ATOMS   COLORGROUP SYSTEM 
42 5 5 6 6 8 8 10 10 12 12 14 14 16 16 17 17 20 \
20 22 22 28 28 29 29 31 31 33 33 35 35 37 37 38 38 39 \
39 42 42 43 43 44 44 

