#    Name: 6o4h_4_NAD
#    Modification time : Fri May 22 19:30:35 2020

@<TRIPOS>MOLECULE
6o4h_4_NAD
   44    48     1     0     1
SMALL
NO_CHARGES


@<TRIPOS>ATOM
      1 PA         36.2050    8.5380   59.7800 P.3       1 NAD601      0.0000 
      2 O1A        37.0330    8.3050   58.5340 O.co2     1 NAD601      0.0000 
      3 O2A        36.1600    7.3090   60.6620 O.co2     1 NAD601      0.0000 
      4 O5B        34.6670    8.8820   59.3790 O.3       1 NAD601      0.0000 
      5 C5B        34.3360   10.1300   58.7690 C.3       1 NAD601      0.0000 
      6 C4B        33.0330    9.9290   57.9430 C.3       1 NAD601      0.0000 
      7 O4B        33.2380    9.0210   57.0290 O.3       1 NAD601      0.0000 
      8 C3B        31.8800    9.3970   58.8070 C.3       1 NAD601      0.0000 
      9 O3B        30.7330   10.0660   58.5010 O.3       1 NAD601      0.0000 
     10 C2B        31.8050    7.8950   58.4220 C.3       1 NAD601      0.0000 
     11 O2B        30.4620    7.2780   58.6470 O.3       1 NAD601      0.0000 
     12 C1B        32.0670    7.9250   57.1670 C.3       1 NAD601      0.0000 
     13 N9A        32.6020    6.6960   56.7210 N.pl3     1 NAD601      0.0000 
     14 C8A        33.2210    5.7430   57.4600 C.2       1 NAD601      0.0000 
     15 N7A        33.5800    4.7510   56.6080 N.2       1 NAD601      0.0000 
     16 C5A        33.1850    5.0990   55.3480 C.ar      1 NAD601      0.0000 
     17 C6A        33.3160    4.4630   54.1250 C.ar      1 NAD601      0.0000 
     18 N6A        33.9360    3.1870   53.9190 N.pl3     1 NAD601      0.0000 
     19 N1A        32.8440    5.0450   53.0140 N.ar      1 NAD601      0.0000 
     20 C2A        32.2340    6.2670   53.1030 C.ar      1 NAD601      0.0000 
     21 N3A        32.0930    6.8990   54.3040 N.ar      1 NAD601      0.0000 
     22 C4A        32.5830    6.3030   55.4210 C.ar      1 NAD601      0.0000 
     23 O3         36.8630    9.7740   60.5700 O.3       1 NAD601      0.0000 
     24 PN         36.6150   10.1140   62.1230 P.3       1 NAD601      0.0000 
     25 O1N        36.5830    8.8050   62.9040 O.co2     1 NAD601      0.0000 
     26 O2N        35.2810   10.8250   62.2760 O.co2     1 NAD601      0.0000 
     27 O5D        37.8400   11.0000   62.6470 O.3       1 NAD601      0.0000 
     28 C5D        38.0670   12.3210   62.1620 C.3       1 NAD601      0.0000 
     29 C4D        39.0930   12.3020   61.0180 C.3       1 NAD601      0.0000 
     30 O4D        38.7170   13.1970   60.1430 O.3       1 NAD601      0.0000 
     31 C3D        40.4790   12.7270   61.4920 C.3       1 NAD601      0.0000 
     32 O3D        41.4460   11.9380   60.9660 O.3       1 NAD601      0.0000 
     33 C2D        40.6350   14.1840   60.9790 C.3       1 NAD601      0.0000 
     34 O2D        42.0620   14.4960   60.7140 O.3       1 NAD601      0.0000 
     35 C1D        39.9390   14.2110   59.8930 C.3       1 NAD601      0.0000 
     36 N1N        39.3920   15.5230   59.7190 N.pl3     1 NAD601      0.0000 
     37 C2N        39.8470   16.3380   58.7070 C.ar      1 NAD601      0.0000 
     38 C3N        39.2960   17.6130   58.5820 C.ar      1 NAD601      0.0000 
     39 C7N        39.7830   18.5620   57.4670 C.2       1 NAD601      0.0000 
     40 O7N        39.1490   19.5770   57.2690 O.2       1 NAD601      0.0000 
     41 N7N        40.9670   18.2480   56.6930 N.am      1 NAD601      0.0000 
     42 C4N        38.3150   18.0480   59.4470 C.ar      1 NAD601      0.0000 
     43 C5N        37.8520   17.2180   60.4490 C.ar      1 NAD601      0.0000 
     44 C6N        38.4070   15.9460   60.5760 C.ar      1 NAD601      0.0000 
@<TRIPOS>BOND
     1    1    2 ar   
     2    1    3 ar   
     3    1    4 1    
     4    1   23 1    
     5    4    5 1    
     6    5    6 1    
     7    6    7 1    
     8    6    8 1    
     9    7   12 1    
    10    8    9 1    
    11    8   10 1    
    12   10   11 1    
    13   10   12 1    
    14   12   13 1    
    15   13   14 1    
    16   13   22 1    
    17   14   15 2    
    18   15   16 1    
    19   16   17 ar   
    20   16   22 ar   
    21   17   18 1    
    22   17   19 ar   
    23   19   20 ar   
    24   20   21 ar   
    25   21   22 ar   
    26   23   24 1    
    27   24   25 ar   
    28   24   26 ar   
    29   24   27 1    
    30   27   28 1    
    31   28   29 1    
    32   29   30 1    
    33   29   31 1    
    34   30   35 1    
    35   31   32 1    
    36   31   33 1    
    37   33   34 1    
    38   33   35 1    
    39   35   36 1    
    40   36   37 ar   
    41   36   44 ar   
    42   37   38 ar   
    43   38   39 1    
    44   38   42 ar   
    45   39   40 2    
    46   39   41 am   
    47   42   43 ar   
    48   43   44 ar   
@<TRIPOS>SUBSTRUCTURE
     1 NAD601      1 GROUP   
@<TRIPOS>SET
ATOM$ORANGE STATIC     ATOMS   COLORGROUP SYSTEM 
42 5 5 6 6 8 8 10 10 12 12 14 14 16 16 17 17 20 \
20 22 22 28 28 29 29 31 31 33 33 35 35 37 37 38 38 39 \
39 42 42 43 43 44 44 

