#    Name: 6o4h_8_NAD
#    Modification time : Fri May 22 19:31:07 2020

@<TRIPOS>MOLECULE
6o4h_8_NAD
   44    48     1     0     1
SMALL
NO_CHARGES


@<TRIPOS>ATOM
      1 PA         44.0420  148.7780   57.3040 P.3       1 NAD601      0.0000 
      2 O1A        43.3460  149.0580   55.9970 O.co2     1 NAD601      0.0000 
      3 O2A        43.9920  150.0130   58.1750 O.co2     1 NAD601      0.0000 
      4 O5B        45.5880  148.3780   57.0080 O.3       1 NAD601      0.0000 
      5 C5B        45.8820  147.1050   56.4410 C.3       1 NAD601      0.0000 
      6 C4B        47.2250  147.2610   55.6700 C.3       1 NAD601      0.0000 
      7 O4B        47.0580  148.1390   54.7170 O.3       1 NAD601      0.0000 
      8 C3B        48.3470  147.8150   56.5610 C.3       1 NAD601      0.0000 
      9 O3B        49.4880  147.0970   56.3620 O.3       1 NAD601      0.0000 
     10 C2B        48.4660  149.2920   56.0810 C.3       1 NAD601      0.0000 
     11 O2B        49.7700  149.9570   56.4020 O.3       1 NAD601      0.0000 
     12 C1B        48.2650  149.2000   54.8120 C.3       1 NAD601      0.0000 
     13 N9A        47.7990  150.4300   54.2940 N.pl3     1 NAD601      0.0000 
     14 C8A        47.2110  151.4340   54.9900 C.2       1 NAD601      0.0000 
     15 N7A        46.9130  152.4250   54.1170 N.2       1 NAD601      0.0000 
     16 C5A        47.3130  152.0290   52.8720 C.ar      1 NAD601      0.0000 
     17 C6A        47.2350  152.6480   51.6290 C.ar      1 NAD601      0.0000 
     18 N6A        46.6900  153.9440   51.3770 N.pl3     1 NAD601      0.0000 
     19 N1A        47.6980  152.0360   50.5360 N.ar      1 NAD601      0.0000 
     20 C2A        48.2410  150.7900   50.6630 C.ar      1 NAD601      0.0000 
     21 N3A        48.3260  150.1670   51.8800 N.ar      1 NAD601      0.0000 
     22 C4A        47.8560  150.7970   52.9860 C.ar      1 NAD601      0.0000 
     23 O3         43.3850  147.5080   58.0520 O.3       1 NAD601      0.0000 
     24 PN         43.6270  147.1480   59.6050 P.3       1 NAD601      0.0000 
     25 O1N        43.4690  148.4410   60.3940 O.co2     1 NAD601      0.0000 
     26 O2N        45.0360  146.5950   59.8300 O.co2     1 NAD601      0.0000 
     27 O5D        42.5170  146.1360   60.1540 O.3       1 NAD601      0.0000 
     28 C5D        42.2410  144.8680   59.5750 C.3       1 NAD601      0.0000 
     29 C4D        41.1280  144.9820   58.5160 C.3       1 NAD601      0.0000 
     30 O4D        41.3670  144.0670   57.6140 O.3       1 NAD601      0.0000 
     31 C3D        39.7370  144.6600   59.0550 C.3       1 NAD601      0.0000 
     32 O3D        38.7550  145.3110   58.3730 O.3       1 NAD601      0.0000 
     33 C2D        39.6130  143.1370   58.8130 C.3       1 NAD601      0.0000 
     34 O2D        38.1900  142.7540   58.6990 O.3       1 NAD601      0.0000 
     35 C1D        40.2100  142.9560   57.6870 C.3       1 NAD601      0.0000 
     36 N1N        40.8050  141.6530   57.6400 N.pl3     1 NAD601      0.0000 
     37 C2N        40.4660  140.7940   56.6190 C.ar      1 NAD601      0.0000 
     38 C3N        41.0480  139.5230   56.5770 C.ar      1 NAD601      0.0000 
     39 C7N        40.6560  138.5620   55.4280 C.2       1 NAD601      0.0000 
     40 O7N        41.2680  137.5240   55.2910 O.2       1 NAD601      0.0000 
     41 N7N        39.5760  138.9270   54.5290 N.am      1 NAD601      0.0000 
     42 C4N        41.9570  139.1320   57.5380 C.ar      1 NAD601      0.0000 
     43 C5N        42.3020  140.0090   58.5510 C.ar      1 NAD601      0.0000 
     44 C6N        41.7180  141.2790   58.5970 C.ar      1 NAD601      0.0000 
@<TRIPOS>BOND
     1    1    2 ar   
     2    1    3 ar   
     3    1    4 1    
     4    1   23 1    
     5    4    5 1    
     6    5    6 1    
     7    6    7 1    
     8    6    8 1    
     9    7   12 1    
    10    8    9 1    
    11    8   10 1    
    12   10   11 1    
    13   10   12 1    
    14   12   13 1    
    15   13   14 1    
    16   13   22 1    
    17   14   15 2    
    18   15   16 1    
    19   16   17 ar   
    20   16   22 ar   
    21   17   18 1    
    22   17   19 ar   
    23   19   20 ar   
    24   20   21 ar   
    25   21   22 ar   
    26   23   24 1    
    27   24   25 ar   
    28   24   26 ar   
    29   24   27 1    
    30   27   28 1    
    31   28   29 1    
    32   29   30 1    
    33   29   31 1    
    34   30   35 1    
    35   31   32 1    
    36   31   33 1    
    37   33   34 1    
    38   33   35 1    
    39   35   36 1    
    40   36   37 ar   
    41   36   44 ar   
    42   37   38 ar   
    43   38   39 1    
    44   38   42 ar   
    45   39   40 2    
    46   39   41 am   
    47   42   43 ar   
    48   43   44 ar   
@<TRIPOS>SUBSTRUCTURE
     1 NAD601      1 GROUP   
@<TRIPOS>SET
ATOM$ORANGE STATIC     ATOMS   COLORGROUP SYSTEM 
42 5 5 6 6 8 8 10 10 12 12 14 14 16 16 17 17 20 \
20 22 22 28 28 29 29 31 31 33 33 35 35 37 37 38 38 39 \
39 42 42 43 43 44 44 

