#    Name: 6o4h_6_NAD
#    Modification time : Fri May 22 19:30:51 2020

@<TRIPOS>MOLECULE
6o4h_6_NAD
   44    48     1     0     1
SMALL
NO_CHARGES


@<TRIPOS>ATOM
      1 PA         59.0480   87.2520   43.6960 P.3       1 NAD602      0.0000 
      2 O1A        57.7280   87.1200   42.9650 O.co2     1 NAD602      0.0000 
      3 O2A        59.8000   85.9440   43.6480 O.co2     1 NAD602      0.0000 
      4 O5B        58.7680   87.6560   45.2490 O.3       1 NAD602      0.0000 
      5 C5B        58.1490   88.9150   45.5210 C.3       1 NAD602      0.0000 
      6 C4B        57.3400   88.7560   46.8380 C.3       1 NAD602      0.0000 
      7 O4B        56.3960   87.8560   46.6640 O.3       1 NAD602      0.0000 
      8 C3B        58.2350   88.2210   47.9630 C.3       1 NAD602      0.0000 
      9 O3B        57.9570   88.9060   49.0990 O.3       1 NAD602      0.0000 
     10 C2B        57.8050   86.7300   48.0900 C.3       1 NAD602      0.0000 
     11 O2B        58.0950   86.1450   49.4410 O.3       1 NAD602      0.0000 
     12 C1B        56.5270   86.7870   47.8510 C.3       1 NAD602      0.0000 
     13 N9A        56.0110   85.5760   47.3390 N.pl3     1 NAD602      0.0000 
     14 C8A        56.7280   84.5470   46.8350 C.2       1 NAD602      0.0000 
     15 N7A        55.8540   83.5930   46.4490 N.2       1 NAD602      0.0000 
     16 C5A        54.5900   84.0390   46.7100 C.ar      1 NAD602      0.0000 
     17 C6A        53.3500   83.4610   46.5060 C.ar      1 NAD602      0.0000 
     18 N6A        53.1380   82.1640   45.9220 N.pl3     1 NAD602      0.0000 
     19 N1A        52.2350   84.1280   46.8490 N.ar      1 NAD602      0.0000 
     20 C2A        52.3340   85.3730   47.4030 C.ar      1 NAD602      0.0000 
     21 N3A        53.5560   85.9420   47.6120 N.ar      1 NAD602      0.0000 
     22 C4A        54.6850   85.2660   47.2610 C.ar      1 NAD602      0.0000 
     23 O3         59.8740   88.4500   43.0080 O.3       1 NAD602      0.0000 
     24 PN         61.4360   88.7560   43.2520 P.3       1 NAD602      0.0000 
     25 O1N        61.6150   89.5890   44.5150 O.co2     1 NAD602      0.0000 
     26 O2N        62.1770   87.4340   43.3800 O.co2     1 NAD602      0.0000 
     27 O5D        62.0140   89.5000   41.9660 O.3       1 NAD602      0.0000 
     28 C5D        61.7720   90.8820   41.7740 C.3       1 NAD602      0.0000 
     29 C4D        60.5680   91.0640   40.8430 C.3       1 NAD602      0.0000 
     30 O4D        59.9100   92.1180   41.2630 O.3       1 NAD602      0.0000 
     31 C3D        60.9830   91.3850   39.4080 C.3       1 NAD602      0.0000 
     32 O3D        60.1400   90.7840   38.5350 O.3       1 NAD602      0.0000 
     33 C2D        60.8240   92.9280   39.3430 C.3       1 NAD602      0.0000 
     34 O2D        60.7360   93.4230   37.9450 O.3       1 NAD602      0.0000 
     35 C1D        59.7170   93.0700   39.9830 C.3       1 NAD602      0.0000 
     36 N1N        59.5400   94.4130   40.4380 N.pl3     1 NAD602      0.0000 
     37 C2N        58.4860   95.1570   39.9340 C.ar      1 NAD602      0.0000 
     38 C3N        58.3150   96.4680   40.3800 C.ar      1 NAD602      0.0000 
     39 C7N        57.1640   97.3500   39.8220 C.2       1 NAD602      0.0000 
     40 O7N        56.9720   98.4220   40.3510 O.2       1 NAD602      0.0000 
     41 N7N        56.3380   96.9380   38.6990 N.am      1 NAD602      0.0000 
     42 C4N        59.1810   96.9950   41.3210 C.ar      1 NAD602      0.0000 
     43 C5N        60.2260   96.2400   41.8280 C.ar      1 NAD602      0.0000 
     44 C6N        60.4000   94.9310   41.3780 C.ar      1 NAD602      0.0000 
@<TRIPOS>BOND
     1    1    2 ar   
     2    1    3 ar   
     3    1    4 1    
     4    1   23 1    
     5    4    5 1    
     6    5    6 1    
     7    6    7 1    
     8    6    8 1    
     9    7   12 1    
    10    8    9 1    
    11    8   10 1    
    12   10   11 1    
    13   10   12 1    
    14   12   13 1    
    15   13   14 1    
    16   13   22 1    
    17   14   15 2    
    18   15   16 1    
    19   16   17 ar   
    20   16   22 ar   
    21   17   18 1    
    22   17   19 ar   
    23   19   20 ar   
    24   20   21 ar   
    25   21   22 ar   
    26   23   24 1    
    27   24   25 ar   
    28   24   26 ar   
    29   24   27 1    
    30   27   28 1    
    31   28   29 1    
    32   29   30 1    
    33   29   31 1    
    34   30   35 1    
    35   31   32 1    
    36   31   33 1    
    37   33   34 1    
    38   33   35 1    
    39   35   36 1    
    40   36   37 ar   
    41   36   44 ar   
    42   37   38 ar   
    43   38   39 1    
    44   38   42 ar   
    45   39   40 2    
    46   39   41 am   
    47   42   43 ar   
    48   43   44 ar   
@<TRIPOS>SUBSTRUCTURE
     1 NAD602      1 GROUP   
@<TRIPOS>SET
ATOM$ORANGE STATIC     ATOMS   COLORGROUP SYSTEM 
42 5 5 6 6 8 8 10 10 12 12 14 14 16 16 17 17 20 \
20 22 22 28 28 29 29 31 31 33 33 35 35 37 37 38 38 39 \
39 42 42 43 43 44 44 

