#    Name: 6o4h_7_NAD
#    Modification time : Fri May 22 19:30:59 2020

@<TRIPOS>MOLECULE
6o4h_7_NAD
   44    48     1     0     1
SMALL
NO_CHARGES


@<TRIPOS>ATOM
      1 PA         35.4320  149.0810   21.2080 P.3       1 NAD601      0.0000 
      2 O1A        36.1030  149.2080   22.5660 O.co2     1 NAD601      0.0000 
      3 O2A        35.4010  150.4150   20.4910 O.co2     1 NAD601      0.0000 
      4 O5B        33.9080  148.5380   21.3810 O.3       1 NAD601      0.0000 
      5 C5B        33.6780  147.3580   22.1400 C.3       1 NAD601      0.0000 
      6 C4B        32.2870  147.5040   22.8310 C.3       1 NAD601      0.0000 
      7 O4B        32.3650  148.3630   23.8130 O.3       1 NAD601      0.0000 
      8 C3B        31.1990  148.0380   21.8940 C.3       1 NAD601      0.0000 
      9 O3B        30.0720  147.3100   22.1150 O.3       1 NAD601      0.0000 
     10 C2B        31.0210  149.5090   22.3550 C.3       1 NAD601      0.0000 
     11 O2B        29.6650  150.0680   22.0300 O.3       1 NAD601      0.0000 
     12 C1B        31.1770  149.4200   23.6330 C.3       1 NAD601      0.0000 
     13 N9A        31.6230  150.6370   24.1870 N.pl3     1 NAD601      0.0000 
     14 C8A        32.1720  151.6740   23.5150 C.2       1 NAD601      0.0000 
     15 N7A        32.4670  152.6300   24.4310 N.2       1 NAD601      0.0000 
     16 C5A        32.1010  152.1830   25.6630 C.ar      1 NAD601      0.0000 
     17 C6A        32.1840  152.7610   26.9210 C.ar      1 NAD601      0.0000 
     18 N6A        32.7180  154.0570   27.2010 N.pl3     1 NAD601      0.0000 
     19 N1A        31.7540  152.0890   27.9950 N.ar      1 NAD601      0.0000 
     20 C2A        31.2330  150.8330   27.8430 C.ar      1 NAD601      0.0000 
     21 N3A        31.1450  150.2670   26.6020 N.ar      1 NAD601      0.0000 
     22 C4A        31.5840  150.9470   25.5130 C.ar      1 NAD601      0.0000 
     23 O3         36.2370  148.0090   20.3240 O.3       1 NAD601      0.0000 
     24 PN         35.9820  147.7880   18.7520 P.3       1 NAD601      0.0000 
     25 O1N        35.8450  149.1600   18.0960 O.co2     1 NAD601      0.0000 
     26 O2N        34.7030  146.9780   18.5520 O.co2     1 NAD601      0.0000 
     27 O5D        37.2670  147.0640   18.1300 O.3       1 NAD601      0.0000 
     28 C5D        37.5950  145.7170   18.4510 C.3       1 NAD601      0.0000 
     29 C4D        38.5470  145.6880   19.6560 C.3       1 NAD601      0.0000 
     30 O4D        38.1770  144.6950   20.4190 O.3       1 NAD601      0.0000 
     31 C3D        39.9900  145.3820   19.2730 C.3       1 NAD601      0.0000 
     32 O3D        40.8390  146.0600   20.0770 O.3       1 NAD601      0.0000 
     33 C2D        40.0950  143.8560   19.5350 C.3       1 NAD601      0.0000 
     34 O2D        41.4890  143.3870   19.6960 O.3       1 NAD601      0.0000 
     35 C1D        39.4250  143.7060   20.6190 C.3       1 NAD601      0.0000 
     36 N1N        38.9220  142.3680   20.6530 N.pl3     1 NAD601      0.0000 
     37 C2N        39.3340  141.4970   21.6380 C.ar      1 NAD601      0.0000 
     38 C3N        38.8300  140.1940   21.6370 C.ar      1 NAD601      0.0000 
     39 C7N        39.2840  139.2010   22.7330 C.2       1 NAD601      0.0000 
     40 O7N        38.5890  138.2340   22.9550 O.2       1 NAD601      0.0000 
     41 N7N        40.5150  139.4320   23.4710 N.am      1 NAD601      0.0000 
     42 C4N        37.9350  139.7800   20.6710 C.ar      1 NAD601      0.0000 
     43 C5N        37.5240  140.6630   19.6900 C.ar      1 NAD601      0.0000 
     44 C6N        38.0280  141.9650   19.6890 C.ar      1 NAD601      0.0000 
@<TRIPOS>BOND
     1    1    2 ar   
     2    1    3 ar   
     3    1    4 1    
     4    1   23 1    
     5    4    5 1    
     6    5    6 1    
     7    6    7 1    
     8    6    8 1    
     9    7   12 1    
    10    8    9 1    
    11    8   10 1    
    12   10   11 1    
    13   10   12 1    
    14   12   13 1    
    15   13   14 1    
    16   13   22 1    
    17   14   15 2    
    18   15   16 1    
    19   16   17 ar   
    20   16   22 ar   
    21   17   18 1    
    22   17   19 ar   
    23   19   20 ar   
    24   20   21 ar   
    25   21   22 ar   
    26   23   24 1    
    27   24   25 ar   
    28   24   26 ar   
    29   24   27 1    
    30   27   28 1    
    31   28   29 1    
    32   29   30 1    
    33   29   31 1    
    34   30   35 1    
    35   31   32 1    
    36   31   33 1    
    37   33   34 1    
    38   33   35 1    
    39   35   36 1    
    40   36   37 ar   
    41   36   44 ar   
    42   37   38 ar   
    43   38   39 1    
    44   38   42 ar   
    45   39   40 2    
    46   39   41 am   
    47   42   43 ar   
    48   43   44 ar   
@<TRIPOS>SUBSTRUCTURE
     1 NAD601      1 GROUP   
@<TRIPOS>SET
ATOM$ORANGE STATIC     ATOMS   COLORGROUP SYSTEM 
42 5 5 6 6 8 8 10 10 12 12 14 14 16 16 17 17 20 \
20 22 22 28 28 29 29 31 31 33 33 35 35 37 37 38 38 39 \
39 42 42 43 43 44 44 

