#    Name: 6cqd_2_ANP
#    Modification time : Fri May 22 19:36:58 2020

@<TRIPOS>MOLECULE
6cqd_2_ANP
   31    33     1     0     1
SMALL
NO_CHARGES


@<TRIPOS>ATOM
      1 PG         25.3210   18.3310   56.0920 P.3       1 ANP302      0.0000 
      2 O1G        25.1130   17.0300   55.2140 O.co2     1 ANP302      0.0000 
      3 O2G        25.4310   17.9220   57.6120 O.co2     1 ANP302      0.0000 
      4 O3G        26.5840   19.0220   55.6820 O.co2     1 ANP302      0.0000 
      5 PB         23.5210   20.0110   57.3540 P.3       1 ANP302      0.0000 
      6 O1B        22.2940   20.9440   57.1420 O.co2     1 ANP302      0.0000 
      7 O2B        24.6530   20.7960   57.9320 O.co2     1 ANP302      0.0000 
      8 N3B        23.9980   19.3700   55.8770 N.3       1 ANP302      0.0000 
      9 PA         22.8250   18.9400   59.8580 P.3       1 ANP302      0.0000 
     10 O1A        21.4350   19.3940   60.0950 O.co2     1 ANP302      0.0000 
     11 O2A        23.1520   17.5640   60.4510 O.co2     1 ANP302      0.0000 
     12 O3A        23.1520   18.8190   58.2970 O.3       1 ANP302      0.0000 
     13 O5'        23.7990   20.0180   60.4790 O.3       1 ANP302      0.0000 
     14 C5'        23.3070   20.9020   61.4930 C.3       1 ANP302      0.0000 
     15 C4'        24.2070   20.9160   62.7040 C.3       1 ANP302      0.0000 
     16 O4'        23.6860   21.8970   63.6320 O.3       1 ANP302      0.0000 
     17 C3'        24.2980   19.5980   63.4820 C.3       1 ANP302      0.0000 
     18 O3'        25.4460   18.8210   63.1540 O.3       1 ANP302      0.0000 
     19 C2'        24.3340   20.0620   64.9410 C.3       1 ANP302      0.0000 
     20 O2'        25.6470   20.4160   65.3650 O.3       1 ANP302      0.0000 
     21 C1'        23.4350   21.2940   64.8850 C.3       1 ANP302      0.0000 
     22 N9         22.0030   20.9930   64.9920 N.pl3     1 ANP302      0.0000 
     23 C8         21.1680   20.5370   64.0040 C.2       1 ANP302      0.0000 
     24 N7         19.9350   20.3360   64.3990 N.2       1 ANP302      0.0000 
     25 C5         19.9580   20.6820   65.7420 C.ar      1 ANP302      0.0000 
     26 C6         18.9620   20.6850   66.7390 C.ar      1 ANP302      0.0000 
     27 N6         17.6960   20.3180   66.5220 N.pl3     1 ANP302      0.0000 
     28 N1         19.3180   21.0860   67.9820 N.ar      1 ANP302      0.0000 
     29 C2         20.5870   21.4420   68.2040 C.ar      1 ANP302      0.0000 
     30 N3         21.6120   21.4740   67.3460 N.ar      1 ANP302      0.0000 
     31 C4         21.2290   21.0810   66.1250 C.ar      1 ANP302      0.0000 
@<TRIPOS>BOND
     1    1    2 ar   
     2    1    3 ar   
     3    1    4 ar   
     4    1    8 1    
     5    5    6 ar   
     6    5    7 ar   
     7    5    8 1    
     8    5   12 1    
     9    9   10 ar   
    10    9   11 ar   
    11    9   12 1    
    12    9   13 1    
    13   13   14 1    
    14   14   15 1    
    15   15   16 1    
    16   15   17 1    
    17   16   21 1    
    18   17   18 1    
    19   17   19 1    
    20   19   20 1    
    21   19   21 1    
    22   21   22 1    
    23   22   23 1    
    24   22   31 1    
    25   23   24 2    
    26   24   25 1    
    27   25   26 ar   
    28   25   31 ar   
    29   26   27 1    
    30   26   28 ar   
    31   28   29 ar   
    32   29   30 ar   
    33   30   31 ar   
@<TRIPOS>SUBSTRUCTURE
     1 ANP302      1 GROUP   
@<TRIPOS>SET
ATOM$ORANGE STATIC     ATOMS   COLORGROUP SYSTEM 
20 14 14 15 15 17 17 19 19 21 21 23 23 25 25 26 26 29 \
29 31 31 

