#    Name: 6cqd_1_ANP
#    Modification time : Fri May 22 19:36:55 2020

@<TRIPOS>MOLECULE
6cqd_1_ANP
   31    33     1     0     1
SMALL
NO_CHARGES


@<TRIPOS>ATOM
      1 PG          8.7640    0.9770   23.0910 P.3       1 ANP301      0.0000 
      2 O1G         8.8380   -0.5420   22.6810 O.co2     1 ANP301      0.0000 
      3 O2G         7.5900    1.1630   24.0070 O.co2     1 ANP301      0.0000 
      4 O3G        10.1100    1.4280   23.8040 O.co2     1 ANP301      0.0000 
      5 PB          9.8200    2.9330   21.3740 P.3       1 ANP301      0.0000 
      6 O1B         9.3180    4.4040   21.3980 O.co2     1 ANP301      0.0000 
      7 O2B        10.8920    2.8010   22.3920 O.co2     1 ANP301      0.0000 
      8 N3B         8.5380    1.8920   21.6840 N.3       1 ANP301      0.0000 
      9 PA         10.8940    1.1570   19.5160 P.3       1 ANP301      0.0000 
     10 O1A        11.8480    1.2810   18.4030 O.co2     1 ANP301      0.0000 
     11 O2A        11.4260    0.3770   20.7200 O.co2     1 ANP301      0.0000 
     12 O3A        10.4090    2.6130   19.9660 O.3       1 ANP301      0.0000 
     13 O5'         9.6170    0.3490   19.0780 O.3       1 ANP301      0.0000 
     14 C5'         8.9580    0.5890   17.8590 C.3       1 ANP301      0.0000 
     15 C4'         8.3450   -0.6850   17.3370 C.3       1 ANP301      0.0000 
     16 O4'         8.0960   -0.4990   15.9260 O.3       1 ANP301      0.0000 
     17 C3'         9.2120   -1.9420   17.4530 C.3       1 ANP301      0.0000 
     18 O3'         8.8720   -2.7620   18.5670 O.3       1 ANP301      0.0000 
     19 C2'         8.9160   -2.6810   16.1500 C.3       1 ANP301      0.0000 
     20 O2'         7.6690   -3.3580   16.2350 O.3       1 ANP301      0.0000 
     21 C1'         8.7430   -1.5150   15.1860 C.3       1 ANP301      0.0000 
     22 N9          9.9890   -0.9860   14.6440 N.pl3     1 ANP301      0.0000 
     23 C8         10.8920   -0.1510   15.2500 C.2       1 ANP301      0.0000 
     24 N7         11.9240    0.1570   14.5080 N.2       1 ANP301      0.0000 
     25 C5         11.6800   -0.5230   13.3200 C.ar      1 ANP301      0.0000 
     26 C6         12.4080   -0.6100   12.1190 C.ar      1 ANP301      0.0000 
     27 N6         13.5730    0.0090   11.9100 N.pl3     1 ANP301      0.0000 
     28 N1         11.8920   -1.3750   11.1320 N.ar      1 ANP301      0.0000 
     29 C2         10.7310   -2.0010   11.3430 C.ar      1 ANP301      0.0000 
     30 N3          9.9590   -1.9920   12.4320 N.ar      1 ANP301      0.0000 
     31 C4         10.4980   -1.2260   13.3920 C.ar      1 ANP301      0.0000 
@<TRIPOS>BOND
     1    1    2 ar   
     2    1    3 ar   
     3    1    4 ar   
     4    1    8 1    
     5    5    6 ar   
     6    5    7 ar   
     7    5    8 1    
     8    5   12 1    
     9    9   10 ar   
    10    9   11 ar   
    11    9   12 1    
    12    9   13 1    
    13   13   14 1    
    14   14   15 1    
    15   15   16 1    
    16   15   17 1    
    17   16   21 1    
    18   17   18 1    
    19   17   19 1    
    20   19   20 1    
    21   19   21 1    
    22   21   22 1    
    23   22   23 1    
    24   22   31 1    
    25   23   24 2    
    26   24   25 1    
    27   25   26 ar   
    28   25   31 ar   
    29   26   27 1    
    30   26   28 ar   
    31   28   29 ar   
    32   29   30 ar   
    33   30   31 ar   
@<TRIPOS>SUBSTRUCTURE
     1 ANP301      1 GROUP   
@<TRIPOS>SET
ATOM$ORANGE STATIC     ATOMS   COLORGROUP SYSTEM 
20 14 14 15 15 17 17 19 19 21 21 23 23 25 25 26 26 29 \
29 31 31 

