#    Name: 6ixw_3_ADP
#    Modification time : Fri May 22 19:24:43 2020

@<TRIPOS>MOLECULE
6ixw_3_ADP
   27    29     1     0     1
SMALL
NO_CHARGES


@<TRIPOS>ATOM
      1 PB        -24.2940   19.4780   23.5280 P.3       1 ADP401      0.0000 
      2 O1B       -24.8610   18.8870   22.2450 O.co2     1 ADP401      0.0000 
      3 O2B       -24.2820   20.9840   23.5610 O.co2     1 ADP401      0.0000 
      4 O3B       -24.8120   18.8260   24.7860 O.co2     1 ADP401      0.0000 
      5 PA        -21.6450   19.7180   22.5670 P.3       1 ADP401      0.0000 
      6 O1A       -20.9890   18.6830   21.6790 O.co2     1 ADP401      0.0000 
      7 O2A       -22.2400   20.9630   21.9730 O.co2     1 ADP401      0.0000 
      8 O3A       -22.7720   18.9700   23.4410 O.3       1 ADP401      0.0000 
      9 O5'       -20.6190   20.1450   23.7250 O.3       1 ADP401      0.0000 
     10 C5'       -19.8770   21.3580   23.6370 C.3       1 ADP401      0.0000 
     11 C4'       -19.1140   21.5850   24.9370 C.3       1 ADP401      0.0000 
     12 O4'       -17.8190   21.0190   24.7830 O.3       1 ADP401      0.0000 
     13 C3'       -18.8970   23.0630   25.2620 C.3       1 ADP401      0.0000 
     14 O3'       -19.8720   23.5820   26.1780 O.3       1 ADP401      0.0000 
     15 C2'       -17.5240   23.1140   25.8950 C.3       1 ADP401      0.0000 
     16 O2'       -17.5820   23.0240   27.3290 O.3       1 ADP401      0.0000 
     17 C1'       -16.8460   21.8600   25.3960 C.3       1 ADP401      0.0000 
     18 N9        -15.8240   22.2510   24.4010 N.pl3     1 ADP401      0.0000 
     19 C8        -15.9700   22.3530   23.0640 C.2       1 ADP401      0.0000 
     20 N7        -14.7980   22.7220   22.4770 N.2       1 ADP401      0.0000 
     21 C5        -13.8830   22.8620   23.4630 C.ar      1 ADP401      0.0000 
     22 C6        -12.4490   23.2330   23.5650 C.ar      1 ADP401      0.0000 
     23 N6        -11.7190   23.5490   22.4570 N.pl3     1 ADP401      0.0000 
     24 N1        -11.8960   23.2500   24.8080 N.ar      1 ADP401      0.0000 
     25 C2        -12.5920   22.9470   25.9220 C.ar      1 ADP401      0.0000 
     26 N3        -13.8900   22.6080   25.9040 N.ar      1 ADP401      0.0000 
     27 C4        -14.5690   22.5500   24.7280 C.ar      1 ADP401      0.0000 
@<TRIPOS>BOND
     1    1    2 ar   
     2    1    3 ar   
     3    1    4 ar   
     4    1    8 1    
     5    5    6 ar   
     6    5    7 ar   
     7    5    8 1    
     8    5    9 1    
     9    9   10 1    
    10   10   11 1    
    11   11   12 1    
    12   11   13 1    
    13   12   17 1    
    14   13   14 1    
    15   13   15 1    
    16   15   16 1    
    17   15   17 1    
    18   17   18 1    
    19   18   19 1    
    20   18   27 1    
    21   19   20 2    
    22   20   21 1    
    23   21   22 ar   
    24   21   27 ar   
    25   22   23 1    
    26   22   24 ar   
    27   24   25 ar   
    28   25   26 ar   
    29   26   27 ar   
@<TRIPOS>SUBSTRUCTURE
     1 ADP401      1 GROUP   
@<TRIPOS>SET
ATOM$ORANGE STATIC     ATOMS   COLORGROUP SYSTEM 
20 10 10 11 11 13 13 15 15 17 17 19 19 21 21 22 22 25 \
25 27 27 

