#    Name: 6ixw_2_ADP
#    Modification time : Fri May 22 19:24:38 2020

@<TRIPOS>MOLECULE
6ixw_2_ADP
   27    29     1     0     1
SMALL
NO_CHARGES


@<TRIPOS>ATOM
      1 PB         15.3610   -4.9280   23.0350 P.3       1 ADP401      0.0000 
      2 O1B        16.6170   -4.8220   22.1770 O.co2     1 ADP401      0.0000 
      3 O2B        14.2150   -5.6970   22.4100 O.co2     1 ADP401      0.0000 
      4 O3B        15.5560   -5.2680   24.4970 O.co2     1 ADP401      0.0000 
      5 PA         13.8660   -2.6010   22.2830 P.3       1 ADP401      0.0000 
      6 O1A        14.6350   -1.8370   21.2270 O.co2     1 ADP401      0.0000 
      7 O2A        12.7880   -3.5700   21.8750 O.co2     1 ADP401      0.0000 
      8 O3A        14.9540   -3.3760   23.1720 O.3       1 ADP401      0.0000 
      9 O5'        13.2320   -1.6530   23.4250 O.3       1 ADP401      0.0000 
     10 C5'        11.8050   -1.6440   23.5130 C.3       1 ADP401      0.0000 
     11 C4'        11.2590   -1.3280   24.9010 C.3       1 ADP401      0.0000 
     12 O4'        11.0890    0.0800   25.0000 O.3       1 ADP401      0.0000 
     13 C3'         9.8780   -1.9510   25.1040 C.3       1 ADP401      0.0000 
     14 O3'         9.9150   -3.0770   25.9960 O.3       1 ADP401      0.0000 
     15 C2'         8.9980   -0.8690   25.6820 C.3       1 ADP401      0.0000 
     16 O2'         8.8660   -1.0200   27.1000 O.3       1 ADP401      0.0000 
     17 C1'         9.7710    0.4080   25.4670 C.3       1 ADP401      0.0000 
     18 N9          9.0050    1.2280   24.4930 N.pl3     1 ADP401      0.0000 
     19 C8          9.1340    1.1960   23.1570 C.2       1 ADP401      0.0000 
     20 N7          8.2870    2.0870   22.5820 N.2       1 ADP401      0.0000 
     21 C5          7.5960    2.7000   23.5580 C.ar      1 ADP401      0.0000 
     22 C6          6.5390    3.7350   23.6300 C.ar      1 ADP401      0.0000 
     23 N6          6.0580    4.2970   22.4830 N.pl3     1 ADP401      0.0000 
     24 N1          6.0890    4.0890   24.8690 N.ar      1 ADP401      0.0000 
     25 C2          6.5840    3.5310   25.9930 C.ar      1 ADP401      0.0000 
     26 N3          7.5420    2.5870   25.9870 N.ar      1 ADP401      0.0000 
     27 C4          8.0720    2.1310   24.8220 C.ar      1 ADP401      0.0000 
@<TRIPOS>BOND
     1    1    2 ar   
     2    1    3 ar   
     3    1    4 ar   
     4    1    8 1    
     5    5    6 ar   
     6    5    7 ar   
     7    5    8 1    
     8    5    9 1    
     9    9   10 1    
    10   10   11 1    
    11   11   12 1    
    12   11   13 1    
    13   12   17 1    
    14   13   14 1    
    15   13   15 1    
    16   15   16 1    
    17   15   17 1    
    18   17   18 1    
    19   18   19 1    
    20   18   27 1    
    21   19   20 2    
    22   20   21 1    
    23   21   22 ar   
    24   21   27 ar   
    25   22   23 1    
    26   22   24 ar   
    27   24   25 ar   
    28   25   26 ar   
    29   26   27 ar   
@<TRIPOS>SUBSTRUCTURE
     1 ADP401      1 GROUP   
@<TRIPOS>SET
ATOM$ORANGE STATIC     ATOMS   COLORGROUP SYSTEM 
20 10 10 11 11 13 13 15 15 17 17 19 19 21 21 22 22 25 \
25 27 27 

