#    Name: 6ixw_1_ADP
#    Modification time : Fri May 22 19:24:34 2020

@<TRIPOS>MOLECULE
6ixw_1_ADP
   27    29     1     0     1
SMALL
NO_CHARGES


@<TRIPOS>ATOM
      1 PB         17.1030   41.3580   22.9260 P.3       1 ADP401      0.0000 
      2 O1B        16.8820   42.2740   21.7080 O.co2     1 ADP401      0.0000 
      3 O2B        18.3900   40.5490   22.9970 O.co2     1 ADP401      0.0000 
      4 O3B        16.7910   42.0340   24.2380 O.co2     1 ADP401      0.0000 
      5 PA         15.9040   38.9070   21.9420 P.3       1 ADP401      0.0000 
      6 O1A        14.6730   38.8690   21.0690 O.co2     1 ADP401      0.0000 
      7 O2A        17.2620   38.6880   21.3310 O.co2     1 ADP401      0.0000 
      8 O3A        15.8710   40.3240   22.7270 O.3       1 ADP401      0.0000 
      9 O5'        15.7040   37.8900   23.1760 O.3       1 ADP401      0.0000 
     10 C5'        16.3820   36.6370   23.2270 C.3       1 ADP401      0.0000 
     11 C4'        16.0900   35.9470   24.5580 C.3       1 ADP401      0.0000 
     12 O4'        14.9770   35.0840   24.3560 O.3       1 ADP401      0.0000 
     13 C3'        17.2240   35.0530   25.0430 C.3       1 ADP401      0.0000 
     14 O3'        17.9580   35.6490   26.1170 O.3       1 ADP401      0.0000 
     15 C2'        16.5950   33.7410   25.4860 C.3       1 ADP401      0.0000 
     16 O2'        16.5390   33.5750   26.9110 O.3       1 ADP401      0.0000 
     17 C1'        15.1780   33.8100   24.9730 C.3       1 ADP401      0.0000 
     18 N9         15.0020   32.7180   23.9870 N.pl3     1 ADP401      0.0000 
     19 C8         15.0990   32.8000   22.6440 C.2       1 ADP401      0.0000 
     20 N7         14.8640   31.5940   22.0740 N.2       1 ADP401      0.0000 
     21 C5         14.6120   30.7300   23.0720 C.ar      1 ADP401      0.0000 
     22 C6         14.2880   29.2970   23.1790 C.ar      1 ADP401      0.0000 
     23 N6         14.1770   28.5190   22.0660 N.pl3     1 ADP401      0.0000 
     24 N1         14.1060   28.7930   24.4200 N.ar      1 ADP401      0.0000 
     25 C2         14.2090   29.5500   25.5270 C.ar      1 ADP401      0.0000 
     26 N3         14.4990   30.8550   25.5080 N.ar      1 ADP401      0.0000 
     27 C4         14.7090   31.4730   24.3280 C.ar      1 ADP401      0.0000 
@<TRIPOS>BOND
     1    1    2 ar   
     2    1    3 ar   
     3    1    4 ar   
     4    1    8 1    
     5    5    6 ar   
     6    5    7 ar   
     7    5    8 1    
     8    5    9 1    
     9    9   10 1    
    10   10   11 1    
    11   11   12 1    
    12   11   13 1    
    13   12   17 1    
    14   13   14 1    
    15   13   15 1    
    16   15   16 1    
    17   15   17 1    
    18   17   18 1    
    19   18   19 1    
    20   18   27 1    
    21   19   20 2    
    22   20   21 1    
    23   21   22 ar   
    24   21   27 ar   
    25   22   23 1    
    26   22   24 ar   
    27   24   25 ar   
    28   25   26 ar   
    29   26   27 ar   
@<TRIPOS>SUBSTRUCTURE
     1 ADP401      1 GROUP   
@<TRIPOS>SET
ATOM$ORANGE STATIC     ATOMS   COLORGROUP SYSTEM 
20 10 10 11 11 13 13 15 15 17 17 19 19 21 21 22 22 25 \
25 27 27 

