#    Name: 6ucz_1_PMM_CAVITY_N1_4
#    Modification time : Fri May 22 19:29:52 2020

@<TRIPOS>MOLECULE
6ucz_1_PMM_CAVITY_N1_4
   61     0     7     0     0
SMALL
NO_CHARGES


@<TRIPOS>ATOM
      1 OG         30.4700   14.8400  -26.7900 O.3       1 SER1        0.0000 
      2 O          30.6500   16.7700  -29.5300 O.2       2 ALA2        0.0000 
      3 O          29.3100   17.3600  -29.2000 O.2       2 ALA2        0.0000 
      4 O          27.9800   17.9500  -28.8800 O.2       2 ALA2        0.0000 
      5 O          30.2800   15.5200  -28.8000 O.2       2 ALA2        0.0000 
      6 O          28.9400   16.1100  -28.4700 O.2       2 ALA2        0.0000 
      7 O          27.6000   16.7000  -28.1400 O.2       2 ALA2        0.0000 
      8 O          28.5700   14.8500  -27.7300 O.2       2 ALA2        0.0000 
      9 O          28.2000   13.6000  -27.0000 O.2       2 ALA2        0.0000 
     10 O          27.2000   19.1200  -27.2800 O.2       2 ALA2        0.0000 
     11 O          30.8400   16.0900  -27.5300 O.2       2 ALA2        0.0000 
     12 O          29.5000   16.6800  -27.2000 O.2       2 ALA2        0.0000 
     13 O          28.1700   17.2700  -26.8800 O.2       2 ALA2        0.0000 
     14 N          26.8300   17.8600  -26.5500 N.am      2 ALA2        0.0000 
     15 O          29.1300   15.4300  -26.4700 O.2       2 ALA2        0.0000 
     16 O          27.7900   16.0200  -26.1400 O.2       2 ALA2        0.0000 
     17 OD1        26.4800   15.5500  -30.6700 O.co2     3 ASP3        0.0000 
     18 OD1        24.7700   14.8800  -29.6100 O.co2     3 ASP3        0.0000 
     19 OD1        23.4300   15.4700  -29.2800 O.co2     3 ASP3        0.0000 
     20 OD1        22.0900   16.0600  -28.9600 O.co2     3 ASP3        0.0000 
     21 OD1        27.4100   17.3700  -30.1400 O.co2     3 ASP3        0.0000 
     22 OD1        25.7000   16.7100  -29.0800 O.co2     3 ASP3        0.0000 
     23 OD1        23.9900   16.0500  -28.0200 O.co2     3 ASP3        0.0000 
     24 OD1        22.6500   16.6400  -27.6900 O.co2     3 ASP3        0.0000 
     25 OD1        26.6400   18.5400  -28.5500 O.co2     3 ASP3        0.0000 
     26 OD1        26.2600   17.2900  -27.8100 O.co2     3 ASP3        0.0000 
     27 OD1        24.9200   17.8800  -27.4900 O.co2     3 ASP3        0.0000 
     28 NZ         25.4900   18.4500  -26.2200 N.4       4 LYS4        0.0000 
     29 CZ         23.0500   14.2200  -28.5500 C.ar      5 PHE5        0.0000 
     30 CZ         21.7100   14.8100  -28.2200 C.ar      5 PHE5        0.0000 
     31 CZ         24.0200   12.3800  -28.1400 C.ar      5 PHE5        0.0000 
     32 CZ         23.6500   11.1200  -27.4100 C.ar      5 PHE5        0.0000 
     33 CZ         23.6200   14.7900  -27.2800 C.ar      5 PHE5        0.0000 
     34 CZ         22.2800   15.3800  -26.9600 C.ar      5 PHE5        0.0000 
     35 CA         26.5100   11.8700  -30.8000 C.3       6 GLY6        0.0000 
     36 CA         26.1100   14.2900  -29.9400 C.3       6 GLY6        0.0000 
     37 CA         25.7300   13.0400  -29.2000 C.3       6 GLY6        0.0000 
     38 CA         24.3900   13.6300  -28.8800 C.3       6 GLY6        0.0000 
     39 CA         25.3600   11.7900  -28.4700 C.3       6 GLY6        0.0000 
     40 CA         26.6700   14.8700  -28.6700 C.3       6 GLY6        0.0000 
     41 CA         25.3300   15.4600  -28.3500 C.3       6 GLY6        0.0000 
     42 CA         28.9700   12.4300  -28.5900 C.3       6 GLY6        0.0000 
     43 CA         27.6400   13.0200  -28.2600 C.3       6 GLY6        0.0000 
     44 CA         26.3000   13.6100  -27.9400 C.3       6 GLY6        0.0000 
     45 CA         24.9600   14.2000  -27.6100 C.3       6 GLY6        0.0000 
     46 CA         28.6000   11.1800  -27.8600 C.3       6 GLY6        0.0000 
     47 CA         27.2600   11.7700  -27.5300 C.3       6 GLY6        0.0000 
     48 CA         25.9200   12.3600  -27.2000 C.3       6 GLY6        0.0000 
     49 CA         29.9100   14.2600  -28.0600 C.3       6 GLY6        0.0000 
     50 CA         27.2300   15.4400  -27.4100 C.3       6 GLY6        0.0000 
     51 CA         25.8900   16.0300  -27.0800 C.3       6 GLY6        0.0000 
     52 CA         24.5500   16.6200  -26.7500 C.3       6 GLY6        0.0000 
     53 CA         26.4500   16.6100  -25.8100 C.3       6 GLY6        0.0000 
     54 DU         27.4500   13.7000  -30.2700 H         7 CUB7        0.0000 
     55 DU         28.4100   11.8600  -29.8600 H         7 CUB7        0.0000 
     56 DU         27.0700   12.4500  -29.5300 H         7 CUB7        0.0000 
     57 DU         28.0400   10.6100  -29.1200 H         7 CUB7        0.0000 
     58 DU         26.7000   11.2000  -28.8000 H         7 CUB7        0.0000 
     59 DU         27.0400   16.1200  -29.4100 H         7 CUB7        0.0000 
     60 DU         29.3500   13.6900  -29.3300 H         7 CUB7        0.0000 
     61 DU         28.0100   14.2800  -29.0000 H         7 CUB7        0.0000 
@<TRIPOS>BOND
@<TRIPOS>SUBSTRUCTURE
     1 SER1        1 GROUP   
     2 ALA2        2 GROUP   
     3 ASP3       17 GROUP   
     4 LYS4       28 GROUP   
     5 PHE5       29 GROUP   
     6 GLY6       35 GROUP   
     7 CUB7       54 GROUP   
@<TRIPOS>SET

