#    Name: 6ucz_1_PMM
#    Modification time : Fri May 22 19:29:52 2020

@<TRIPOS>MOLECULE
6ucz_1_PMM
   18    19     1     0     0
SMALL
NO_CHARGES


@<TRIPOS>ATOM
      1 N5         22.3510   14.9730  -29.0660 N.ar      1 PMM301      0.0000 
      2 C6         23.4410   15.3870  -28.4110 C.ar      1 PMM301      0.0000 
      3 C7         23.4300   16.5590  -27.6780 C.ar      1 PMM301      0.0000 
      4 N8         22.3620   17.3540  -27.5470 N.ar      1 PMM301      0.0000 
      5 N1         20.1840   17.7650  -28.0860 N.2       1 PMM301      0.0000 
      6 C2         19.0650   17.4040  -28.7030 C.2       1 PMM301      0.0000 
      7 N2         17.9690   18.1620  -28.5890 N.pl3     1 PMM301      0.0000 
      8 N3         18.9600   16.2650  -29.4550 N.am      1 PMM301      0.0000 
      9 C4         19.9720   15.3550  -29.6570 C.2       1 PMM301      0.0000 
     10 O4         19.7920   14.3380  -30.3260 O.2       1 PMM301      0.0000 
     11 C4A        21.2380   15.7180  -28.9850 C.ar      1 PMM301      0.0000 
     12 C8A        21.2770   16.9320  -28.2070 C.ar      1 PMM301      0.0000 
     13 C9         24.6380   14.4720  -28.4790 C.3       1 PMM301      0.0000 
     14 O10        25.1970   14.5200  -29.8080 O.3       1 PMM301      0.0000 
     15 PA         26.6090   15.2420  -30.1300 P.3       1 PMM301      0.0000 
     16 O1P        26.9070   14.8550  -31.5880 O.co2     1 PMM301      0.0000 
     17 O2P        27.6720   14.5760  -29.2670 O.co2     1 PMM301      0.0000 
     18 O3P        26.4980   16.7140  -29.9090 O.co2     1 PMM301      0.0000 
@<TRIPOS>BOND
     1    1    2 ar   
     2    1   11 ar   
     3    2    3 ar   
     4    2   13 1    
     5    3    4 ar   
     6    4   12 ar   
     7    5    6 2    
     8    5   12 1    
     9    6    7 1    
    10    6    8 1    
    11    8    9 am   
    12    9   10 2    
    13    9   11 1    
    14   11   12 ar   
    15   13   14 1    
    16   14   15 1    
    17   15   16 ar   
    18   15   17 ar   
    19   15   18 ar   
@<TRIPOS>SUBSTRUCTURE
     1 PMM301      1 GROUP   
@<TRIPOS>SET

