#    Name: 6qgh_1_1XJ
#    Modification time : Fri May 22 19:30:53 2020

@<TRIPOS>MOLECULE
6qgh_1_1XJ
   65    71     1     0     0
SMALL
NO_CHARGES


@<TRIPOS>ATOM
      1 C4         -0.9430   -2.0120   16.4300 C.ar      1 1XJ401      0.0000 
      2 C5          1.1760   -3.1590   16.4420 C.ar      1 1XJ401      0.0000 
      3 C6          1.1050    5.0820   10.5640 C.ar      1 1XJ401      0.0000 
      4 C7         -0.7510    5.5780   12.0030 C.ar      1 1XJ401      0.0000 
      5 C8          1.5630    4.1490   11.5190 C.ar      1 1XJ401      0.0000 
      6 C10        -1.9510    7.1450    5.2970 C.ar      1 1XJ401      0.0000 
      7 C13        -1.6680    7.7810    6.5150 C.ar      1 1XJ401      0.0000 
      8 C15         0.6570   -4.1370   15.5870 C.ar      1 1XJ401      0.0000 
      9 C17         0.3940   -2.0770   16.8300 C.ar      1 1XJ401      0.0000 
     10 C20        -3.1340    6.4070    5.1660 C.ar      1 1XJ401      0.0000 
     11 C21        -1.8140    3.2750    5.2080 C.ar      1 1XJ401      0.0000 
     12 C22        -2.5300    7.6040    7.6140 C.ar      1 1XJ401      0.0000 
     13 C24        -0.6440   -4.0280   15.1310 C.ar      1 1XJ401      0.0000 
     14 C26         1.9760   -0.2160   17.5380 C.2       1 1XJ401      0.0000 
     15 C28         0.3580   -1.1400   19.3000 C.3       1 1XJ401      0.0000 
     16 C1         -1.7660    3.2740    8.0060 C.ar      1 1XJ401      0.0000 
     17 C2         -2.8190    2.6610    7.3270 C.ar      1 1XJ401      0.0000 
     18 C3         -0.7180    3.8730    7.2790 C.ar      1 1XJ401      0.0000 
     19 C9         -0.2900    4.6770   12.9510 C.ar      1 1XJ401      0.0000 
     20 C11        -2.8430    2.6550    5.9450 C.ar      1 1XJ401      0.0000 
     21 C12        -0.7420    3.8610    5.8770 C.ar      1 1XJ401      0.0000 
     22 C14        -1.4600   -2.9680   15.5750 C.ar      1 1XJ401      0.0000 
     23 C16        -3.7300    6.9320    7.4480 C.ar      1 1XJ401      0.0000 
     24 C18        -0.0260    5.8110   10.8210 C.ar      1 1XJ401      0.0000 
     25 C19         0.8230    3.9200   12.6860 C.ar      1 1XJ401      0.0000 
     26 C23        -3.9980    6.2710    6.2790 C.ar      1 1XJ401      0.0000 
     27 C25         0.9290   -1.0760   17.8520 C.2       1 1XJ401      0.0000 
     28 C27        -0.5490    6.8500    9.8120 C.2       1 1XJ401      0.0000 
     29 C29         2.5290    0.8350   18.5960 C.3       1 1XJ401      0.0000 
     30 C30         0.5910    0.1850   20.0160 C.3       1 1XJ401      0.0000 
     31 C31         2.7000    2.6560   13.5600 C.3       1 1XJ401      0.0000 
     32 C32         0.5140    2.8490   14.8650 C.3       1 1XJ401      0.0000 
     33 C33         2.8650    1.2550   14.1670 C.3       1 1XJ401      0.0000 
     34 C34         0.8230    1.4680   15.4820 C.3       1 1XJ401      0.0000 
     35 C35        -4.0500    4.2800   -1.1640 C.3       1 1XJ401      0.0000 
     36 C36        -3.0700    6.2790   -2.1100 C.3       1 1XJ401      0.0000 
     37 C37        -4.9860    4.1720   -2.3680 C.3       1 1XJ401      0.0000 
     38 C38        -4.0300    6.2390   -3.2720 C.3       1 1XJ401      0.0000 
     39 C39         2.0710    0.4830   20.0170 C.3       1 1XJ401      0.0000 
     40 C40         2.8210   -0.7240   20.4810 C.3       1 1XJ401      0.0000 
     41 C41         2.3560    1.6510   20.9720 C.3       1 1XJ401      0.0000 
     42 C42         2.5040   -0.1480   16.0950 C.3       1 1XJ401      0.0000 
     43 C43        -3.4990    5.4760    1.5200 C.3       1 1XJ401      0.0000 
     44 C44        -2.7770    5.7720    0.2070 C.3       1 1XJ401      0.0000 
     45 C45        -1.3960    4.9090    2.9230 C.3       1 1XJ401      0.0000 
     46 C46        -2.6100    5.8700    2.7930 C.3       1 1XJ401      0.0000 
     47 C47        -6.6350    6.6600    5.3900 C.3       1 1XJ401      0.0000 
     48 N48         1.2820    3.0510   13.6080 N.3       1 1XJ401      0.0000 
     49 N51        -3.4390    5.7440    3.9860 N.pl3     1 1XJ401      0.0000 
     50 N52        -1.6600    7.4590   10.0730 N.am      1 1XJ401      0.0000 
     51 N49         2.2890    1.2260   15.5420 N.4       1 1XJ401      0.0000 
     52 N50        -3.7140    5.7000   -0.9120 N.4       1 1XJ401      0.0000 
     53 O53         0.0470    7.0740    8.7590 O.2       1 1XJ401      0.0000 
     54 O54        -6.0880    5.1910    7.4440 O.2       1 1XJ401      0.0000 
     55 O55        -5.4890    4.3250    5.2230 O.2       1 1XJ401      0.0000 
     56 O56        -1.3240    9.6490    8.8700 O.2       1 1XJ401      0.0000 
     57 O57        -3.5840    8.9010    9.6230 O.2       1 1XJ401      0.0000 
     58 O58        -4.4090    4.8260   -3.5470 O.3       1 1XJ401      0.0000 
     59 F59        -6.9170    7.6340    6.2850 F         1 1XJ401      0.0000 
     60 F60        -6.0220    7.2120    4.3020 F         1 1XJ401      0.0000 
     61 F61        -7.7660    6.0370    5.0450 F         1 1XJ401      0.0000 
     62 S62        -1.8600    3.2110    3.4260 S.3       1 1XJ401      0.0000 
     63 S63        -5.4910    5.5010    6.1280 S.o2      1 1XJ401      0.0000 
     64 S64        -2.2740    8.4700    9.0980 S.o2      1 1XJ401      0.0000 
     65 CL6        -1.2950   -5.2460   14.1060 Cl        1 1XJ401      0.0000 
@<TRIPOS>BOND
     1    1    9 ar   
     2    1   22 ar   
     3    2    8 ar   
     4    2    9 ar   
     5    3    5 ar   
     6    3   24 ar   
     7    4   19 ar   
     8    4   24 ar   
     9    5   25 ar   
    10    6    7 ar   
    11    6   10 ar   
    12    7   12 ar   
    13    8   13 ar   
    14    9   27 1    
    15   10   26 ar   
    16   10   49 1    
    17   11   20 ar   
    18   11   21 ar   
    19   11   62 1    
    20   12   23 ar   
    21   12   64 1    
    22   13   22 ar   
    23   13   65 1    
    24   14   27 2    
    25   14   29 1    
    26   14   42 1    
    27   15   27 1    
    28   15   30 1    
    29   16   17 ar   
    30   16   18 ar   
    31   17   20 ar   
    32   18   21 ar   
    33   19   25 ar   
    34   23   26 ar   
    35   24   28 1    
    36   25   48 1    
    37   26   63 1    
    38   28   50 am   
    39   28   53 2    
    40   29   39 1    
    41   30   39 1    
    42   31   33 1    
    43   31   48 1    
    44   32   34 1    
    45   32   48 1    
    46   33   51 1    
    47   34   51 1    
    48   35   37 1    
    49   35   52 1    
    50   36   38 1    
    51   36   52 1    
    52   37   58 1    
    53   38   58 1    
    54   39   40 1    
    55   39   41 1    
    56   42   51 1    
    57   43   44 1    
    58   43   46 1    
    59   44   52 1    
    60   45   46 1    
    61   45   62 1    
    62   46   49 1    
    63   47   59 1    
    64   47   60 1    
    65   47   61 1    
    66   47   63 1    
    67   50   64 1    
    68   54   63 2    
    69   55   63 2    
    70   56   64 2    
    71   57   64 2    
@<TRIPOS>SUBSTRUCTURE
     1 1XJ401      1 GROUP   
@<TRIPOS>SET

