#    Name: 6gtr_1_ACO_CAVITY_N1_12
#    Modification time : Fri May 22 19:30:15 2020

@<TRIPOS>MOLECULE
6gtr_1_ACO_CAVITY_N1_12
   91     0     6     0     0
SMALL
NO_CHARGES


@<TRIPOS>ATOM
      1 O         -11.1000   39.7000  -32.6100 O.2       1 ALA2        0.0000 
      2 O         -10.8100   37.7200  -31.9000 O.2       1 ALA2        0.0000 
      3 O         -11.5700   36.8000  -31.0000 O.2       1 ALA2        0.0000 
      4 O          -9.0000   37.2000  -30.9300 O.2       1 ALA2        0.0000 
      5 O         -12.1500   40.3600  -30.3200 O.2       1 ALA2        0.0000 
      6 O          -8.7100   35.2200  -30.2300 O.2       1 ALA2        0.0000 
      7 O          -9.7600   36.2700  -30.0200 O.2       1 ALA2        0.0000 
      8 O         -10.8000   37.3300  -29.8200 O.2       1 ALA2        0.0000 
      9 N          -5.8500   33.6400  -29.4500 N.am      1 ALA2        0.0000 
     10 O          -6.6000   32.7200  -28.5500 O.2       1 ALA2        0.0000 
     11 O          -7.6500   33.7700  -28.3400 O.2       1 ALA2        0.0000 
     12 N         -10.5000   34.9500  -27.0300 N.am      1 ALA2        0.0000 
     13 N         -10.2100   32.9700  -26.3300 N.am      1 ALA2        0.0000 
     14 N         -10.9700   32.0500  -25.4200 N.am      1 ALA2        0.0000 
     15 O          -7.1800   36.2800  -27.8700 O.2       1 ALA2        0.0000 
     16 N          -6.8900   34.3000  -27.1700 N.am      1 ALA2        0.0000 
     17 O          -8.4000   32.4500  -25.3500 O.2       1 ALA2        0.0000 
     18 N         -10.5000   34.5600  -24.9500 N.am      1 ALA2        0.0000 
     19 O          -8.1100   30.4700  -24.6500 O.2       1 ALA2        0.0000 
     20 N         -10.2000   32.5800  -24.2400 N.am      1 ALA2        0.0000 
     21 N         -11.2500   33.6300  -24.0400 N.am      1 ALA2        0.0000 
     22 O         -10.9600   31.6500  -23.3400 O.2       1 ALA2        0.0000 
     23 O         -12.0100   32.7100  -23.1300 O.2       1 ALA2        0.0000 
     24 O          -8.3900   32.0600  -23.2700 O.2       1 ALA2        0.0000 
     25 N          -9.4400   33.1100  -23.0700 N.am      1 ALA2        0.0000 
     26 N          -9.1500   31.1300  -22.3600 N.am      1 ALA2        0.0000 
     27 N         -10.2000   32.1900  -22.1600 N.am      1 ALA2        0.0000 
     28 N         -11.2500   33.2400  -21.9600 N.am      1 ALA2        0.0000 
     29 OD1       -12.1500   40.7500  -32.4100 O.co2     2 ASP3        0.0000 
     30 OD1       -12.9100   39.8300  -31.5000 O.co2     2 ASP3        0.0000 
     31 OD1       -11.3900   41.2900  -31.2300 O.co2     2 ASP3        0.0000 
     32 NZ         -7.3700   32.1900  -29.7200 N.4       3 LYS4        0.0000 
     33 NZ         -8.4100   33.2400  -29.5200 N.4       3 LYS4        0.0000 
     34 NZ         -9.1700   32.3100  -28.6100 N.4       3 LYS4        0.0000 
     35 NZ         -8.4100   32.8500  -27.4400 N.4       3 LYS4        0.0000 
     36 NZ         -9.1600   31.9200  -26.5300 N.4       3 LYS4        0.0000 
     37 NZ         -8.8700   29.9400  -25.8300 N.4       3 LYS4        0.0000 
     38 CZ        -10.3400   39.8400  -29.3500 C.ar      4 PHE5        0.0000 
     39 CZ        -11.3800   40.8900  -29.1400 C.ar      4 PHE5        0.0000 
     40 CZ        -11.0900   38.9100  -28.4400 C.ar      4 PHE5        0.0000 
     41 CZ         -8.5200   39.3200  -28.3700 C.ar      4 PHE5        0.0000 
     42 CZ         -9.2800   38.3900  -27.4600 C.ar      4 PHE5        0.0000 
     43 CZ        -10.0400   37.4600  -26.5600 C.ar      4 PHE5        0.0000 
     44 CZ        -10.0300   37.0700  -24.4700 C.ar      4 PHE5        0.0000 
     45 CZ         -9.7400   35.0900  -23.7700 C.ar      4 PHE5        0.0000 
     46 CZ        -10.4900   34.1600  -22.8600 C.ar      4 PHE5        0.0000 
     47 CA        -11.8600   38.7700  -31.7000 C.3       5 GLY6        0.0000 
     48 CA        -12.6100   37.8500  -30.7900 C.3       5 GLY6        0.0000 
     49 CA        -11.8500   38.3800  -29.6200 C.3       5 GLY6        0.0000 
     50 CA        -12.9000   39.4300  -29.4100 C.3       5 GLY6        0.0000 
     51 CA        -12.6100   37.4500  -28.7100 C.3       5 GLY6        0.0000 
     52 CA        -10.2200   33.3700  -28.4100 C.3       5 GLY6        0.0000 
     53 CA        -10.9700   32.4400  -27.5100 C.3       5 GLY6        0.0000 
     54 CA         -6.9000   34.7000  -29.2500 C.3       5 GLY6        0.0000 
     55 CA        -11.8500   37.9900  -27.5300 C.3       5 GLY6        0.0000 
     56 CA        -11.5500   36.0100  -26.8300 C.3       5 GLY6        0.0000 
     57 CA         -9.9200   30.9900  -25.6200 C.3       5 GLY6        0.0000 
     58 CA         -9.6300   29.0100  -24.9200 C.3       5 GLY6        0.0000 
     59 CA        -10.6700   30.0700  -24.7200 C.3       5 GLY6        0.0000 
     60 CA        -11.7200   31.1200  -24.5100 C.3       5 GLY6        0.0000 
     61 CA         -6.1400   35.2300  -28.0700 C.3       5 GLY6        0.0000 
     62 CA         -8.2300   37.3400  -27.6700 C.3       5 GLY6        0.0000 
     63 CA         -7.9400   35.3600  -26.9600 C.3       5 GLY6        0.0000 
     64 CA         -8.9900   36.4100  -26.7600 C.3       5 GLY6        0.0000 
     65 CA         -7.6500   33.3800  -26.2600 C.3       5 GLY6        0.0000 
     66 CA         -8.6900   34.4300  -26.0600 C.3       5 GLY6        0.0000 
     67 CA         -9.7400   35.4800  -25.8500 C.3       5 GLY6        0.0000 
     68 CA        -10.7900   36.5400  -25.6500 C.3       5 GLY6        0.0000 
     69 CA         -9.4500   33.5100  -25.1500 C.3       5 GLY6        0.0000 
     70 CA        -11.5500   35.6100  -24.7400 C.3       5 GLY6        0.0000 
     71 CA         -8.8600   29.5500  -23.7400 C.3       5 GLY6        0.0000 
     72 CA         -7.4700   37.8700  -26.4900 C.3       5 GLY6        0.0000 
     73 CA         -8.2300   36.9400  -25.5800 C.3       5 GLY6        0.0000 
     74 CA         -8.9800   36.0200  -24.6800 C.3       5 GLY6        0.0000 
     75 DU        -10.3400   40.2300  -31.4300 H         6 CUB7        0.0000 
     76 DU         -7.9500   36.1500  -31.1300 H         6 CUB7        0.0000 
     77 DU        -10.0500   38.2500  -30.7300 H         6 CUB7        0.0000 
     78 DU        -11.1000   39.3100  -30.5200 H         6 CUB7        0.0000 
     79 DU         -7.6600   34.1700  -30.4300 H         6 CUB7        0.0000 
     80 DU         -9.4600   34.2900  -29.3200 H         6 CUB7        0.0000 
     81 DU         -7.1900   36.6800  -29.9500 H         6 CUB7        0.0000 
     82 DU         -8.2400   37.7300  -29.7500 H         6 CUB7        0.0000 
     83 DU         -9.2900   38.7800  -29.5500 H         6 CUB7        0.0000 
     84 DU         -7.9500   35.7500  -29.0500 H         6 CUB7        0.0000 
     85 DU        -10.0400   37.8600  -28.6400 H         6 CUB7        0.0000 
     86 DU         -8.7000   34.8300  -28.1400 H         6 CUB7        0.0000 
     87 DU         -9.7500   35.8800  -27.9400 H         6 CUB7        0.0000 
     88 DU        -10.8000   36.9300  -27.7400 H         6 CUB7        0.0000 
     89 DU         -9.4600   33.9000  -27.2300 H         6 CUB7        0.0000 
     90 DU         -9.1600   31.5300  -24.4500 H         6 CUB7        0.0000 
     91 DU         -9.9100   30.6000  -23.5400 H         6 CUB7        0.0000 
@<TRIPOS>BOND
@<TRIPOS>SUBSTRUCTURE
     1 ALA2        1 GROUP   
     2 ASP3       29 GROUP   
     3 LYS4       32 GROUP   
     4 PHE5       38 GROUP   
     5 GLY6       47 GROUP   
     6 CUB7       75 GROUP   
@<TRIPOS>SET

