#    Name: 6gtr_1_ACO
#    Modification time : Fri May 22 19:30:13 2020

@<TRIPOS>MOLECULE
6gtr_1_ACO
   51    53     1     0     1
SMALL
NO_CHARGES


@<TRIPOS>ATOM
      1 N1A       -14.2890   48.1690  -35.5420 N.ar      1 ACO201      0.0000 
      2 C2A       -13.0800   47.6670  -35.8520 C.ar      1 ACO201      0.0000 
      3 N3A       -12.1650   47.3030  -34.9360 N.ar      1 ACO201      0.0000 
      4 C4A       -12.4200   47.4280  -33.6110 C.ar      1 ACO201      0.0000 
      5 C5A       -13.7210   47.9700  -33.1910 C.ar      1 ACO201      0.0000 
      6 C6A       -14.6770   48.3480  -34.2590 C.ar      1 ACO201      0.0000 
      7 N6A       -15.8970   48.8550  -33.9610 N.pl3     1 ACO201      0.0000 
      8 N7A       -13.7140   47.9860  -31.8460 N.2       1 ACO201      0.0000 
      9 C8A       -12.5140   47.4980  -31.4390 C.2       1 ACO201      0.0000 
     10 N9A       -11.7440   47.1650  -32.4910 N.pl3     1 ACO201      0.0000 
     11 C1B       -10.3720   46.6020  -32.4180 C.3       1 ACO201      0.0000 
     12 C2B        -9.9890   46.3590  -30.9660 C.3       1 ACO201      0.0000 
     13 O2B        -8.9600   47.2790  -30.5730 O.3       1 ACO201      0.0000 
     14 C3B        -9.5460   44.9040  -30.8840 C.3       1 ACO201      0.0000 
     15 O3B        -8.1670   44.7670  -30.5420 O.3       1 ACO201      0.0000 
     16 P3B        -7.5630   43.3320  -30.1330 P.3       1 ACO201      0.0000 
     17 O7A        -6.2320   43.6650  -29.5030 O.co2     1 ACO201      0.0000 
     18 O8A        -8.5830   42.7680  -29.1740 O.co2     1 ACO201      0.0000 
     19 O9A        -7.4630   42.5910  -31.4450 O.co2     1 ACO201      0.0000 
     20 C4B        -9.7890   44.3120  -32.2640 C.3       1 ACO201      0.0000 
     21 O4B       -10.3250   45.3440  -33.0970 O.3       1 ACO201      0.0000 
     22 C5B       -10.7600   43.1400  -32.2030 C.3       1 ACO201      0.0000 
     23 O5B       -11.8250   43.4500  -31.3060 O.3       1 ACO201      0.0000 
     24 P1A       -11.8800   42.7840  -29.8410 P.3       1 ACO201      0.0000 
     25 O1A       -11.1640   43.7010  -28.8780 O.co2     1 ACO201      0.0000 
     26 O2A       -13.3050   42.3670  -29.5660 O.co2     1 ACO201      0.0000 
     27 O3A       -10.9920   41.4540  -30.0250 O.3       1 ACO201      0.0000 
     28 P2A       -11.5010   40.2530  -30.9700 P.3       1 ACO201      0.0000 
     29 O4A       -13.0100   40.2270  -30.9290 O.co2     1 ACO201      0.0000 
     30 O5A       -10.7850   40.3570  -32.2950 O.co2     1 ACO201      0.0000 
     31 O6A       -10.9540   38.9470  -30.2030 O.3       1 ACO201      0.0000 
     32 CBP        -9.3730   37.5840  -29.0050 C.3       1 ACO201      0.0000 
     33 CCP        -9.7000   38.9770  -29.5250 C.3       1 ACO201      0.0000 
     34 CDP        -7.8840   37.4790  -28.7060 C.3       1 ACO201      0.0000 
     35 CEP        -9.7700   36.5400  -30.0390 C.3       1 ACO201      0.0000 
     36 CAP       -10.1570   37.3360  -27.7230 C.3       1 ACO201      0.0000 
     37 OAP       -11.5490   37.1990  -28.0330 O.3       1 ACO201      0.0000 
     38 C9P        -9.6650   36.0780  -27.0710 C.2       1 ACO201      0.0000 
     39 O9P        -8.9960   36.1300  -26.0520 O.2       1 ACO201      0.0000 
     40 N8P        -9.9970   34.9340  -27.6620 N.am      1 ACO201      0.0000 
     41 C7P        -9.9690   33.6740  -26.9440 C.3       1 ACO201      0.0000 
     42 C6P        -8.8180   32.7850  -27.3980 C.3       1 ACO201      0.0000 
     43 C5P        -8.8170   32.6920  -28.9060 C.2       1 ACO201      0.0000 
     44 O5P        -9.8540   32.8260  -29.5350 O.2       1 ACO201      0.0000 
     45 N4P        -7.6430   32.4590  -29.4850 N.am      1 ACO201      0.0000 
     46 C3P        -7.5190   32.3400  -30.9250 C.3       1 ACO201      0.0000 
     47 C2P        -6.5710   31.2170  -31.3250 C.3       1 ACO201      0.0000 
     48 S1P        -5.5190   31.7700  -32.6260 S.3       1 ACO201      0.0000 
     49 C          -4.0960   31.9650  -31.7840 C.2       1 ACO201      0.0000 
     50 O          -3.0510   32.0660  -32.4040 O.2       1 ACO201      0.0000 
     51 CH3        -4.1390   32.0100  -30.2850 C.3       1 ACO201      0.0000 
@<TRIPOS>BOND
     1    1    2 ar   
     2    1    6 ar   
     3    2    3 ar   
     4    3    4 ar   
     5    4    5 ar   
     6    4   10 1    
     7    5    6 ar   
     8    5    8 1    
     9    6    7 1    
    10    8    9 2    
    11    9   10 1    
    12   10   11 1    
    13   11   12 1    
    14   11   21 1    
    15   12   13 1    
    16   12   14 1    
    17   14   15 1    
    18   14   20 1    
    19   15   16 1    
    20   16   17 ar   
    21   16   18 ar   
    22   16   19 ar   
    23   20   21 1    
    24   20   22 1    
    25   22   23 1    
    26   23   24 1    
    27   24   25 ar   
    28   24   26 ar   
    29   24   27 1    
    30   27   28 1    
    31   28   29 ar   
    32   28   30 ar   
    33   28   31 1    
    34   31   33 1    
    35   32   33 1    
    36   32   34 1    
    37   32   35 1    
    38   32   36 1    
    39   36   37 1    
    40   36   38 1    
    41   38   39 2    
    42   38   40 am   
    43   40   41 1    
    44   41   42 1    
    45   42   43 1    
    46   43   44 2    
    47   43   45 am   
    48   45   46 1    
    49   46   47 1    
    50   47   48 1    
    51   48   49 1    
    52   49   50 2    
    53   49   51 1    
@<TRIPOS>SUBSTRUCTURE
     1 ACO201      1 GROUP   
@<TRIPOS>SET
ATOM$ORANGE STATIC     ATOMS   COLORGROUP SYSTEM 
46 2 2 4 4 5 5 6 6 9 9 11 11 12 12 14 14 20 \
20 22 22 32 32 33 33 34 34 35 35 36 36 38 38 41 41 42 \
42 43 43 46 46 47 47 49 49 51 51 

