#    Name: 6fml_3_ADP
#    Modification time : Fri May 22 19:33:29 2020

@<TRIPOS>MOLECULE
6fml_3_ADP
   27    29     1     0     1
SMALL
NO_CHARGES


@<TRIPOS>ATOM
      1 PB        186.0290  183.4760   94.0650 P.3       1 ADP501      0.0000 
      2 O1B       187.0470  182.4440   93.6930 O.co2     1 ADP501      0.0000 
      3 O2B       186.4200  184.3310   95.2380 O.co2     1 ADP501      0.0000 
      4 O3B       184.6140  182.9920   94.1170 O.co2     1 ADP501      0.0000 
      5 PA        185.2150  185.8070   92.8800 P.3       1 ADP501      0.0000 
      6 O1A       183.7650  185.5080   93.1220 O.co2     1 ADP501      0.0000 
      7 O2A       185.9400  186.7440   93.8010 O.co2     1 ADP501      0.0000 
      8 O3A       186.0260  184.4400   92.7910 O.3       1 ADP501      0.0000 
      9 O5'       185.3490  186.4250   91.4180 O.3       1 ADP501      0.0000 
     10 C5'       185.9230  187.7190   91.3960 C.3       1 ADP501      0.0000 
     11 C4'       185.1040  188.5970   90.4800 C.3       1 ADP501      0.0000 
     12 O4'       184.8730  187.9470   89.2420 O.3       1 ADP501      0.0000 
     13 C3'       183.7630  188.9030   91.0960 C.3       1 ADP501      0.0000 
     14 O3'       183.7030  190.2980   91.3610 O.3       1 ADP501      0.0000 
     15 C2'       182.7640  188.6010   90.0240 C.3       1 ADP501      0.0000 
     16 O2'       182.0630  189.8030   89.7570 O.3       1 ADP501      0.0000 
     17 C1'       183.5780  188.2900   88.8020 C.3       1 ADP501      0.0000 
     18 N9        183.0200  187.1490   88.0940 N.pl3     1 ADP501      0.0000 
     19 C8        183.3900  185.8870   88.3090 C.2       1 ADP501      0.0000 
     20 N7        182.7220  185.0470   87.4910 N.2       1 ADP501      0.0000 
     21 C5        181.9180  185.7970   86.7360 C.ar      1 ADP501      0.0000 
     22 C6        180.9470  185.5320   85.6710 C.ar      1 ADP501      0.0000 
     23 N6        180.7120  184.2760   85.2560 N.pl3     1 ADP501      0.0000 
     24 N1        180.3120  186.5790   85.1280 N.ar      1 ADP501      0.0000 
     25 C2        180.5590  187.8310   85.5480 C.ar      1 ADP501      0.0000 
     26 N3        181.4290  188.1480   86.5160 N.ar      1 ADP501      0.0000 
     27 C4        182.1320  187.1850   87.1250 C.ar      1 ADP501      0.0000 
@<TRIPOS>BOND
     1    1    2 ar   
     2    1    3 ar   
     3    1    4 ar   
     4    1    8 1    
     5    5    6 ar   
     6    5    7 ar   
     7    5    8 1    
     8    5    9 1    
     9    9   10 1    
    10   10   11 1    
    11   11   12 1    
    12   11   13 1    
    13   12   17 1    
    14   13   14 1    
    15   13   15 1    
    16   15   16 1    
    17   15   17 1    
    18   17   18 1    
    19   18   19 1    
    20   18   27 1    
    21   19   20 2    
    22   20   21 1    
    23   21   22 ar   
    24   21   27 ar   
    25   22   23 1    
    26   22   24 ar   
    27   24   25 ar   
    28   25   26 ar   
    29   26   27 ar   
@<TRIPOS>SUBSTRUCTURE
     1 ADP501      1 GROUP   
@<TRIPOS>SET
ATOM$ORANGE STATIC     ATOMS   COLORGROUP SYSTEM 
20 10 10 11 11 13 13 15 15 17 17 19 19 21 21 22 22 25 \
25 27 27 

