#    Name: 6fml_4_ADP
#    Modification time : Fri May 22 19:33:49 2020

@<TRIPOS>MOLECULE
6fml_4_ADP
   27    29     1     0     1
SMALL
NO_CHARGES


@<TRIPOS>ATOM
      1 PB        180.7430  155.8120  108.0170 P.3       1 ADP501      0.0000 
      2 O1B       181.9440  155.8430  107.1100 O.co2     1 ADP501      0.0000 
      3 O2B       180.3930  157.1620  108.5940 O.co2     1 ADP501      0.0000 
      4 O3B       180.7360  154.6670  108.9950 O.co2     1 ADP501      0.0000 
      5 PA        178.0120  155.5150  107.6160 P.3       1 ADP501      0.0000 
      6 O1A       177.6510  156.9710  107.6620 O.co2     1 ADP501      0.0000 
      7 O2A       177.8620  154.6190  108.8140 O.co2     1 ADP501      0.0000 
      8 O3A       179.5140  155.4240  107.0630 O.3       1 ADP501      0.0000 
      9 O5'       177.2520  154.8740  106.3730 O.3       1 ADP501      0.0000 
     10 C5'       177.3030  155.6250  105.1760 C.3       1 ADP501      0.0000 
     11 C4'       175.9500  155.6060  104.5140 C.3       1 ADP501      0.0000 
     12 O4'       175.7650  154.3850  103.8230 O.3       1 ADP501      0.0000 
     13 C3'       174.8660  155.7310  105.5530 C.3       1 ADP501      0.0000 
     14 O3'       174.0550  156.8550  105.2200 O.3       1 ADP501      0.0000 
     15 C2'       174.0250  154.4950  105.4320 C.3       1 ADP501      0.0000 
     16 O2'       172.6890  154.8920  105.1490 O.3       1 ADP501      0.0000 
     17 C1'       174.5570  153.7710  104.2280 C.3       1 ADP501      0.0000 
     18 N9        174.8880  152.3920  104.6060 N.pl3     1 ADP501      0.0000 
     19 C8        176.1330  151.9100  104.7030 C.2       1 ADP501      0.0000 
     20 N7        176.1150  150.6030  105.0570 N.2       1 ADP501      0.0000 
     21 C5        174.8290  150.2460  105.1910 C.ar      1 ADP501      0.0000 
     22 C6        174.1020  149.0140  105.5520 C.ar      1 ADP501      0.0000 
     23 N6        174.7730  147.8780  105.8440 N.pl3     1 ADP501      0.0000 
     24 N1        172.7550  149.0600  105.5810 N.ar      1 ADP501      0.0000 
     25 C2        172.0820  150.1850  105.2950 C.ar      1 ADP501      0.0000 
     26 N3        172.6750  151.3410  104.9630 N.ar      1 ADP501      0.0000 
     27 C4        174.0210  151.4310  104.9000 C.ar      1 ADP501      0.0000 
@<TRIPOS>BOND
     1    1    2 ar   
     2    1    3 ar   
     3    1    4 ar   
     4    1    8 1    
     5    5    6 ar   
     6    5    7 ar   
     7    5    8 1    
     8    5    9 1    
     9    9   10 1    
    10   10   11 1    
    11   11   12 1    
    12   11   13 1    
    13   12   17 1    
    14   13   14 1    
    15   13   15 1    
    16   15   16 1    
    17   15   17 1    
    18   17   18 1    
    19   18   19 1    
    20   18   27 1    
    21   19   20 2    
    22   20   21 1    
    23   21   22 ar   
    24   21   27 ar   
    25   22   23 1    
    26   22   24 ar   
    27   24   25 ar   
    28   25   26 ar   
    29   26   27 ar   
@<TRIPOS>SUBSTRUCTURE
     1 ADP501      1 GROUP   
@<TRIPOS>SET
ATOM$ORANGE STATIC     ATOMS   COLORGROUP SYSTEM 
20 10 10 11 11 13 13 15 15 17 17 19 19 21 21 22 22 25 \
25 27 27 

