#    Name: 6fml_2_ADP
#    Modification time : Fri May 22 19:33:09 2020

@<TRIPOS>MOLECULE
6fml_2_ADP
   27    29     1     0     1
SMALL
NO_CHARGES


@<TRIPOS>ATOM
      1 PB        221.4490  197.1910  133.7190 P.3       1 ADP501      0.0000 
      2 O1B       222.1500  196.4870  132.5910 O.co2     1 ADP501      0.0000 
      3 O2B       220.5400  196.3010  134.5210 O.co2     1 ADP501      0.0000 
      4 O3B       220.8400  198.5210  133.3600 O.co2     1 ADP501      0.0000 
      5 PA        222.3170  198.6420  135.8660 P.3       1 ADP501      0.0000 
      6 O1A       222.3860  200.0220  135.2700 O.co2     1 ADP501      0.0000 
      7 O2A       221.0700  198.2230  136.5970 O.co2     1 ADP501      0.0000 
      8 O3A       222.6370  197.5640  134.7310 O.3       1 ADP501      0.0000 
      9 O5'       223.5120  198.5420  136.9070 O.3       1 ADP501      0.0000 
     10 C5'       223.2230  199.2530  138.0900 C.3       1 ADP501      0.0000 
     11 C4'       224.4060  199.2410  139.0130 C.3       1 ADP501      0.0000 
     12 O4'       225.5090  199.8810  138.4020 O.3       1 ADP501      0.0000 
     13 C3'       224.0700  200.0350  140.2450 C.3       1 ADP501      0.0000 
     14 O3'       224.4140  199.2330  141.3660 O.3       1 ADP501      0.0000 
     15 C2'       224.9920  201.2160  140.2630 C.3       1 ADP501      0.0000 
     16 O2'       225.6290  201.2690  141.5280 O.3       1 ADP501      0.0000 
     17 C1'       226.0630  200.8510  139.2830 C.3       1 ADP501      0.0000 
     18 N9        226.5220  201.9950  138.4850 N.pl3     1 ADP501      0.0000 
     19 C8        226.4660  202.0570  137.1630 C.2       1 ADP501      0.0000 
     20 N7        226.9840  203.2020  136.6790 N.2       1 ADP501      0.0000 
     21 C5        227.4110  203.8870  137.7330 C.ar      1 ADP501      0.0000 
     22 C6        228.0670  205.1840  137.9250 C.ar      1 ADP501      0.0000 
     23 N6        228.3760  205.9680  136.8730 N.pl3     1 ADP501      0.0000 
     24 N1        228.3540  205.5520  139.1840 N.ar      1 ADP501      0.0000 
     25 C2        228.0530  204.7650  140.2320 C.ar      1 ADP501      0.0000 
     26 N3        227.4470  203.5720  140.1310 N.ar      1 ADP501      0.0000 
     27 C4        227.1070  203.0930  138.9230 C.ar      1 ADP501      0.0000 
@<TRIPOS>BOND
     1    1    2 ar   
     2    1    3 ar   
     3    1    4 ar   
     4    1    8 1    
     5    5    6 ar   
     6    5    7 ar   
     7    5    8 1    
     8    5    9 1    
     9    9   10 1    
    10   10   11 1    
    11   11   12 1    
    12   11   13 1    
    13   12   17 1    
    14   13   14 1    
    15   13   15 1    
    16   15   16 1    
    17   15   17 1    
    18   17   18 1    
    19   18   19 1    
    20   18   27 1    
    21   19   20 2    
    22   20   21 1    
    23   21   22 ar   
    24   21   27 ar   
    25   22   23 1    
    26   22   24 ar   
    27   24   25 ar   
    28   25   26 ar   
    29   26   27 ar   
@<TRIPOS>SUBSTRUCTURE
     1 ADP501      1 GROUP   
@<TRIPOS>SET
ATOM$ORANGE STATIC     ATOMS   COLORGROUP SYSTEM 
20 10 10 11 11 13 13 15 15 17 17 19 19 21 21 22 22 25 \
25 27 27 

