#    Name: 6fml_6_ADP
#    Modification time : Fri May 22 19:34:28 2020

@<TRIPOS>MOLECULE
6fml_6_ADP
   27    29     1     0     1
SMALL
NO_CHARGES


@<TRIPOS>ATOM
      1 PB        206.6940  205.3640  107.2660 P.3       1 ADP501      0.0000 
      2 O1B       205.8880  205.1090  106.0300 O.co2     1 ADP501      0.0000 
      3 O2B       205.9350  205.2590  108.5550 O.co2     1 ADP501      0.0000 
      4 O3B       208.0340  204.6900  107.2860 O.co2     1 ADP501      0.0000 
      5 PA        205.9140  207.9950  107.4490 P.3       1 ADP501      0.0000 
      6 O1A       204.7220  207.7270  106.5830 O.co2     1 ADP501      0.0000 
      7 O2A       205.7330  208.0540  108.9340 O.co2     1 ADP501      0.0000 
      8 O3A       207.0420  206.9130  107.1350 O.3       1 ADP501      0.0000 
      9 O5'       206.6890  209.3310  107.0190 O.3       1 ADP501      0.0000 
     10 C5'       207.8370  209.6590  107.7950 C.3       1 ADP501      0.0000 
     11 C4'       207.9080  211.1370  108.1350 C.3       1 ADP501      0.0000 
     12 O4'       208.3430  211.8870  107.0130 O.3       1 ADP501      0.0000 
     13 C3'       206.5530  211.6480  108.5350 C.3       1 ADP501      0.0000 
     14 O3'       206.6540  212.1090  109.8770 O.3       1 ADP501      0.0000 
     15 C2'       206.2720  212.8190  107.6320 C.3       1 ADP501      0.0000 
     16 O2'       206.0270  213.9630  108.4350 O.3       1 ADP501      0.0000 
     17 C1'       207.5320  213.0360  106.8350 C.3       1 ADP501      0.0000 
     18 N9        207.2280  213.1370  105.3970 N.pl3     1 ADP501      0.0000 
     19 C8        207.0670  212.0930  104.5750 C.2       1 ADP501      0.0000 
     20 N7        206.8130  212.4930  103.3060 N.2       1 ADP501      0.0000 
     21 C5        206.8140  213.8270  103.3140 C.ar      1 ADP501      0.0000 
     22 C6        206.6150  214.8740  102.3080 C.ar      1 ADP501      0.0000 
     23 N6        206.3600  214.5360  101.0320 N.pl3     1 ADP501      0.0000 
     24 N1        206.6950  216.1550  102.6970 N.ar      1 ADP501      0.0000 
     25 C2        206.9480  216.4650  103.9760 C.ar      1 ADP501      0.0000 
     26 N3        207.1480  215.5620  104.9480 N.ar      1 ADP501      0.0000 
     27 C4        207.0890  214.2470  104.6850 C.ar      1 ADP501      0.0000 
@<TRIPOS>BOND
     1    1    2 ar   
     2    1    3 ar   
     3    1    4 ar   
     4    1    8 1    
     5    5    6 ar   
     6    5    7 ar   
     7    5    8 1    
     8    5    9 1    
     9    9   10 1    
    10   10   11 1    
    11   11   12 1    
    12   11   13 1    
    13   12   17 1    
    14   13   14 1    
    15   13   15 1    
    16   15   16 1    
    17   15   17 1    
    18   17   18 1    
    19   18   19 1    
    20   18   27 1    
    21   19   20 2    
    22   20   21 1    
    23   21   22 ar   
    24   21   27 ar   
    25   22   23 1    
    26   22   24 ar   
    27   24   25 ar   
    28   25   26 ar   
    29   26   27 ar   
@<TRIPOS>SUBSTRUCTURE
     1 ADP501      1 GROUP   
@<TRIPOS>SET
ATOM$ORANGE STATIC     ATOMS   COLORGROUP SYSTEM 
20 10 10 11 11 13 13 15 15 17 17 19 19 21 21 22 22 25 \
25 27 27 

