#    Name: 6fml_1_ADP
#    Modification time : Fri May 22 19:32:49 2020

@<TRIPOS>MOLECULE
6fml_1_ADP
   27    29     1     0     1
SMALL
NO_CHARGES


@<TRIPOS>ATOM
      1 PB        196.6840  148.4710  135.8550 P.3       1 ADP501      0.0000 
      2 O1B       197.2600  148.5320  134.4710 O.co2     1 ADP501      0.0000 
      3 O2B       195.8100  149.6350  136.2250 O.co2     1 ADP501      0.0000 
      4 O3B       197.6480  148.0920  136.9390 O.co2     1 ADP501      0.0000 
      5 PA        194.4160  147.1840  136.7700 P.3       1 ADP501      0.0000 
      6 O1A       193.3510  148.0140  136.1100 O.co2     1 ADP501      0.0000 
      7 O2A       194.8370  147.5100  138.1790 O.co2     1 ADP501      0.0000 
      8 O3A       195.7040  147.2090  135.8230 O.3       1 ADP501      0.0000 
      9 O5'       194.0130  145.6500  136.6240 O.3       1 ADP501      0.0000 
     10 C5'       193.2030  145.3760  135.5010 C.3       1 ADP501      0.0000 
     11 C4'       192.5500  144.0410  135.7290 C.3       1 ADP501      0.0000 
     12 O4'       193.5070  143.1110  136.2020 O.3       1 ADP501      0.0000 
     13 C3'       191.4960  144.1660  136.8010 C.3       1 ADP501      0.0000 
     14 O3'       190.2090  143.9490  136.2230 O.3       1 ADP501      0.0000 
     15 C2'       191.7750  143.0640  137.7890 C.3       1 ADP501      0.0000 
     16 O2'       190.6450  142.2070  137.8840 O.3       1 ADP501      0.0000 
     17 C1'       192.8960  142.2740  137.1750 C.3       1 ADP501      0.0000 
     18 N9        193.8870  141.8880  138.1840 N.pl3     1 ADP501      0.0000 
     19 C8        195.1280  142.3690  138.2850 C.2       1 ADP501      0.0000 
     20 N7        195.7910  141.7840  139.3090 N.2       1 ADP501      0.0000 
     21 C5        194.9550  140.9070  139.8660 C.ar      1 ADP501      0.0000 
     22 C6        195.0250  139.9650  140.9810 C.ar      1 ADP501      0.0000 
     23 N6        196.1480  139.8540  141.7080 N.pl3     1 ADP501      0.0000 
     24 N1        193.9420  139.2270  141.2460 N.ar      1 ADP501      0.0000 
     25 C2        192.8260  139.3480  140.5130 C.ar      1 ADP501      0.0000 
     26 N3        192.6890  140.1840  139.4810 N.ar      1 ADP501      0.0000 
     27 C4        193.7080  140.9730  139.1170 C.ar      1 ADP501      0.0000 
@<TRIPOS>BOND
     1    1    2 ar   
     2    1    3 ar   
     3    1    4 ar   
     4    1    8 1    
     5    5    6 ar   
     6    5    7 ar   
     7    5    8 1    
     8    5    9 1    
     9    9   10 1    
    10   10   11 1    
    11   11   12 1    
    12   11   13 1    
    13   12   17 1    
    14   13   14 1    
    15   13   15 1    
    16   15   16 1    
    17   15   17 1    
    18   17   18 1    
    19   18   19 1    
    20   18   27 1    
    21   19   20 2    
    22   20   21 1    
    23   21   22 ar   
    24   21   27 ar   
    25   22   23 1    
    26   22   24 ar   
    27   24   25 ar   
    28   25   26 ar   
    29   26   27 ar   
@<TRIPOS>SUBSTRUCTURE
     1 ADP501      1 GROUP   
@<TRIPOS>SET
ATOM$ORANGE STATIC     ATOMS   COLORGROUP SYSTEM 
20 10 10 11 11 13 13 15 15 17 17 19 19 21 21 22 22 25 \
25 27 27 

