#    Name: 6fml_7_ATP
#    Modification time : Fri May 22 19:34:41 2020

@<TRIPOS>MOLECULE
6fml_7_ATP
   31    33     1     0     1
SMALL
NO_CHARGES


@<TRIPOS>ATOM
      1 PG        179.6440  239.5220  201.3180 P.3       1 ATP801      0.0000 
      2 O1G       179.6040  240.6740  200.3590 O.co2     1 ATP801      0.0000 
      3 O2G       179.4950  239.8750  202.7630 O.co2     1 ATP801      0.0000 
      4 O3G       178.8310  238.3330  200.9100 O.co2     1 ATP801      0.0000 
      5 PB        182.3500  239.8590  201.6660 P.3       1 ATP801      0.0000 
      6 O1B       182.3900  241.1210  200.8560 O.co2     1 ATP801      0.0000 
      7 O2B       182.3160  239.9110  203.1630 O.co2     1 ATP801      0.0000 
      8 O3B       181.1290  238.9620  201.1920 O.3       1 ATP801      0.0000 
      9 PA        185.0640  239.4050  201.5380 P.3       1 ATP801      0.0000 
     10 O1A       185.4240  240.5380  200.6250 O.co2     1 ATP801      0.0000 
     11 O2A       185.1700  239.5950  203.0240 O.co2     1 ATP801      0.0000 
     12 O3A       183.5700  238.9430  201.2060 O.3       1 ATP801      0.0000 
     13 O5'       185.9050  238.0920  201.1610 O.3       1 ATP801      0.0000 
     14 C5'       186.6890  237.4170  202.1400 C.3       1 ATP801      0.0000 
     15 C4'       187.2270  236.1510  201.4930 C.3       1 ATP801      0.0000 
     16 O4'       188.3250  236.4730  200.6550 O.3       1 ATP801      0.0000 
     17 C3'       187.7540  235.1410  202.4940 C.3       1 ATP801      0.0000 
     18 O3'       186.9970  233.9410  202.3650 O.3       1 ATP801      0.0000 
     19 C2'       189.1570  234.8020  202.0880 C.3       1 ATP801      0.0000 
     20 O2'       189.2620  233.3960  201.9050 O.3       1 ATP801      0.0000 
     21 C1'       189.2950  235.4370  200.7390 C.3       1 ATP801      0.0000 
     22 N9        190.6500  235.9860  200.6180 N.pl3     1 ATP801      0.0000 
     23 C8        191.1360  237.0610  201.2550 C.2       1 ATP801      0.0000 
     24 N7        192.4280  237.2830  200.9080 N.2       1 ATP801      0.0000 
     25 C5        192.7750  236.3230  200.0400 C.ar      1 ATP801      0.0000 
     26 C6        193.9840  235.9580  199.2810 C.ar      1 ATP801      0.0000 
     27 N6        195.1140  236.6890  199.3900 N.pl3     1 ATP801      0.0000 
     28 N1        193.9290  234.8750  198.4830 N.ar      1 ATP801      0.0000 
     29 C2        192.8110  234.1420  198.3690 C.ar      1 ATP801      0.0000 
     30 N3        191.6740  234.4130  199.0260 N.ar      1 ATP801      0.0000 
     31 C4        191.6020  235.4660  199.8630 C.ar      1 ATP801      0.0000 
@<TRIPOS>BOND
     1    1    2 ar   
     2    1    3 ar   
     3    1    4 ar   
     4    1    8 1    
     5    5    6 ar   
     6    5    7 ar   
     7    5    8 1    
     8    5   12 1    
     9    9   10 ar   
    10    9   11 ar   
    11    9   12 1    
    12    9   13 1    
    13   13   14 1    
    14   14   15 1    
    15   15   16 1    
    16   15   17 1    
    17   16   21 1    
    18   17   18 1    
    19   17   19 1    
    20   19   20 1    
    21   19   21 1    
    22   21   22 1    
    23   22   23 1    
    24   22   31 1    
    25   23   24 2    
    26   24   25 1    
    27   25   26 ar   
    28   25   31 ar   
    29   26   27 1    
    30   26   28 ar   
    31   28   29 ar   
    32   29   30 ar   
    33   30   31 ar   
@<TRIPOS>SUBSTRUCTURE
     1 ATP801      1 GROUP   
@<TRIPOS>SET
ATOM$ORANGE STATIC     ATOMS   COLORGROUP SYSTEM 
20 14 14 15 15 17 17 19 19 21 21 23 23 25 25 26 26 29 \
29 31 31 

