#    Name: 6fml_5_ADP
#    Modification time : Fri May 22 19:34:08 2020

@<TRIPOS>MOLECULE
6fml_5_ADP
   27    29     1     0     1
SMALL
NO_CHARGES


@<TRIPOS>ATOM
      1 PB        216.6060  169.2650  149.0990 P.3       1 ADP501      0.0000 
      2 O1B       216.8250  168.2870  147.9810 O.co2     1 ADP501      0.0000 
      3 O2B       215.1980  169.7850  149.2040 O.co2     1 ADP501      0.0000 
      4 O3B       217.6750  170.3100  149.2400 O.co2     1 ADP501      0.0000 
      5 PA        216.2660  168.9950  151.7940 P.3       1 ADP501      0.0000 
      6 O1A       214.7920  168.6910  151.8050 O.co2     1 ADP501      0.0000 
      7 O2A       216.7630  170.4040  151.9910 O.co2     1 ADP501      0.0000 
      8 O3A       216.8100  168.3920  150.4200 O.3       1 ADP501      0.0000 
      9 O5'       216.9580  168.0250  152.8600 O.3       1 ADP501      0.0000 
     10 C5'       216.7870  166.6390  152.6260 C.3       1 ADP501      0.0000 
     11 C4'       216.5180  165.9600  153.9510 C.3       1 ADP501      0.0000 
     12 O4'       217.7230  165.8540  154.6780 O.3       1 ADP501      0.0000 
     13 C3'       215.5680  166.7940  154.7680 C.3       1 ADP501      0.0000 
     14 O3'       214.4340  165.9960  155.0760 O.3       1 ADP501      0.0000 
     15 C2'       216.2660  167.0950  156.0540 C.3       1 ADP501      0.0000 
     16 O2'       215.4890  166.5190  157.0950 O.3       1 ADP501      0.0000 
     17 C1'       217.5580  166.3330  155.9970 C.3       1 ADP501      0.0000 
     18 N9        218.6970  167.2130  156.2950 N.pl3     1 ADP501      0.0000 
     19 C8        219.5030  167.7650  155.3840 C.2       1 ADP501      0.0000 
     20 N7        220.4770  168.4950  155.9780 N.2       1 ADP501      0.0000 
     21 C5        220.2940  168.3830  157.2950 C.ar      1 ADP501      0.0000 
     22 C6        220.9480  168.8910  158.4980 C.ar      1 ADP501      0.0000 
     23 N6        222.0230  169.6880  158.3930 N.pl3     1 ADP501      0.0000 
     24 N1        220.4510  168.5420  159.6910 N.ar      1 ADP501      0.0000 
     25 C2        219.3800  167.7500  159.7950 C.ar      1 ADP501      0.0000 
     26 N3        218.7250  167.2540  158.7470 N.ar      1 ADP501      0.0000 
     27 C4        219.1370  167.5220  157.4980 C.ar      1 ADP501      0.0000 
@<TRIPOS>BOND
     1    1    2 ar   
     2    1    3 ar   
     3    1    4 ar   
     4    1    8 1    
     5    5    6 ar   
     6    5    7 ar   
     7    5    8 1    
     8    5    9 1    
     9    9   10 1    
    10   10   11 1    
    11   11   12 1    
    12   11   13 1    
    13   12   17 1    
    14   13   14 1    
    15   13   15 1    
    16   15   16 1    
    17   15   17 1    
    18   17   18 1    
    19   18   19 1    
    20   18   27 1    
    21   19   20 2    
    22   20   21 1    
    23   21   22 ar   
    24   21   27 ar   
    25   22   23 1    
    26   22   24 ar   
    27   24   25 ar   
    28   25   26 ar   
    29   26   27 ar   
@<TRIPOS>SUBSTRUCTURE
     1 ADP501      1 GROUP   
@<TRIPOS>SET
ATOM$ORANGE STATIC     ATOMS   COLORGROUP SYSTEM 
20 10 10 11 11 13 13 15 15 17 17 19 19 21 21 22 22 25 \
25 27 27 

