#    Name: 6nyo_1_U94
#    Modification time : Fri May 22 19:26:16 2020

@<TRIPOS>MOLECULE
6nyo_1_U94
   29    30     1     0     0
SMALL
NO_CHARGES


@<TRIPOS>ATOM
      1 O1        101.7270  216.0780  244.8300 O.co2     1 U94301      0.0000 
      2 C2        102.2930  216.1930  245.9510 C.2       1 U94301      0.0000 
      3 C3        101.5640  215.7940  247.2310 C.3       1 U94301      0.0000 
      4 O4        103.4630  216.6500  246.0240 O.co2     1 U94301      0.0000 
      5 C5        101.2000  217.0680  247.9820 C.3       1 U94301      0.0000 
      6 C6        100.3430  216.7280  249.1980 C.3       1 U94301      0.0000 
      7 C7        100.0620  218.0210  249.9570 C.3       1 U94301      0.0000 
      8 O8        100.3930  215.0970  246.9150 O.3       1 U94301      0.0000 
      9 O9        100.4640  217.9040  247.1300 O.3       1 U94301      0.0000 
     10 N10       101.0720  215.8710  250.1100 N.am      1 U94301      0.0000 
     11 C11       100.6110  214.5450  250.4280 C.2       1 U94301      0.0000 
     12 O12        99.6290  214.0910  249.9320 O.2       1 U94301      0.0000 
     13 C13       101.4420  213.7210  251.4090 C.3       1 U94301      0.0000 
     14 O14       102.4790  214.5360  251.8890 O.3       1 U94301      0.0000 
     15 C15       102.1400  215.1310  253.1090 C.3       1 U94301      0.0000 
     16 C16        98.6600  218.0260  250.5730 C.ar      1 U94301      0.0000 
     17 C17        97.5680  218.3330  249.7720 C.ar      1 U94301      0.0000 
     18 C18        96.3010  218.3410  250.3410 C.ar      1 U94301      0.0000 
     19 C19        96.0880  218.0710  251.6980 C.ar      1 U94301      0.0000 
     20 C20        97.1920  217.7390  252.4880 C.ar      1 U94301      0.0000 
     21 C21        98.4720  217.7340  251.9230 C.ar      1 U94301      0.0000 
     22 C22        94.7660  218.0830  252.1860 C.ar      1 U94301      0.0000 
     23 C23        93.8560  219.0260  251.7140 C.ar      1 U94301      0.0000 
     24 C24        92.5460  219.0000  252.1560 C.ar      1 U94301      0.0000 
     25 C25        92.0830  218.0810  253.0610 C.ar      1 U94301      0.0000 
     26 C26        92.9870  217.1490  253.5270 C.ar      1 U94301      0.0000 
     27 C27        94.3110  217.1460  253.1060 C.ar      1 U94301      0.0000 
     28 CL28       92.4080  215.9490  254.6940 Cl        1 U94301      0.0000 
     29 CL29       91.3840  220.1800  251.5500 Cl        1 U94301      0.0000 
@<TRIPOS>BOND
     1    1    2 ar   
     2    2    3 1    
     3    2    4 ar   
     4    3    5 1    
     5    3    8 1    
     6    5    6 1    
     7    5    9 1    
     8    6    7 1    
     9    6   10 1    
    10    7   16 1    
    11   10   11 am   
    12   11   12 2    
    13   11   13 1    
    14   13   14 1    
    15   14   15 1    
    16   16   17 ar   
    17   16   21 ar   
    18   17   18 ar   
    19   18   19 ar   
    20   19   20 ar   
    21   19   22 1    
    22   20   21 ar   
    23   22   23 ar   
    24   22   27 ar   
    25   23   24 ar   
    26   24   25 ar   
    27   24   29 1    
    28   25   26 ar   
    29   26   27 ar   
    30   26   28 1    
@<TRIPOS>SUBSTRUCTURE
     1 U94301      1 GROUP   
@<TRIPOS>SET

