#    Name: 6ugf_1_ATP
#    Modification time : Fri May 22 19:32:12 2020

@<TRIPOS>MOLECULE
6ugf_1_ATP
   31    33     1     0     1
SMALL
NO_CHARGES


@<TRIPOS>ATOM
      1 PG        118.2780  152.7790  127.0600 P.3       1 ATP501      0.0000 
      2 O1G       117.1360  151.8370  127.2970 O.co2     1 ATP501      0.0000 
      3 O2G       118.9450  152.6730  125.7180 O.co2     1 ATP501      0.0000 
      4 O3G       119.2300  152.9000  128.2120 O.co2     1 ATP501      0.0000 
      5 PB        118.0060  155.3850  127.9250 P.3       1 ATP501      0.0000 
      6 O1B       117.5800  155.0730  129.3350 O.co2     1 ATP501      0.0000 
      7 O2B       119.4380  155.6900  127.5860 O.co2     1 ATP501      0.0000 
      8 O3B       117.5280  154.1870  126.9810 O.3       1 ATP501      0.0000 
      9 PA        117.7110  157.3460  126.0640 P.3       1 ATP501      0.0000 
     10 O1A       118.8660  158.2480  126.4140 O.co2     1 ATP501      0.0000 
     11 O2A       117.9540  156.2700  125.0430 O.co2     1 ATP501      0.0000 
     12 O3A       117.1580  156.6280  127.3870 O.3       1 ATP501      0.0000 
     13 O5'       116.4740  158.2570  125.6070 O.3       1 ATP501      0.0000 
     14 C5'       115.1410  157.8660  125.9070 C.3       1 ATP501      0.0000 
     15 C4'       114.1800  158.9610  125.4720 C.3       1 ATP501      0.0000 
     16 O4'       113.3000  159.2560  126.5520 O.3       1 ATP501      0.0000 
     17 C3'       114.8900  160.2520  125.1250 C.3       1 ATP501      0.0000 
     18 O3'       114.8670  160.4710  123.7160 O.3       1 ATP501      0.0000 
     19 C2'       114.1010  161.3400  125.8060 C.3       1 ATP501      0.0000 
     20 O2'       113.3070  162.0130  124.8300 O.3       1 ATP501      0.0000 
     21 C1'       113.2020  160.6500  126.8050 C.3       1 ATP501      0.0000 
     22 N9        113.8090  160.8740  128.1260 N.pl3     1 ATP501      0.0000 
     23 C8        114.3980  159.9210  128.8590 C.2       1 ATP501      0.0000 
     24 N7        114.8760  160.4230  130.0210 N.2       1 ATP501      0.0000 
     25 C5        114.5920  161.7270  130.0360 C.ar      1 ATP501      0.0000 
     26 C6        114.8210  162.8310  130.9740 C.ar      1 ATP501      0.0000 
     27 N6        115.4610  162.6130  132.1400 N.pl3     1 ATP501      0.0000 
     28 N1        114.3730  164.0480  130.6310 N.ar      1 ATP501      0.0000 
     29 C2        113.7400  164.2490  129.4670 C.ar      1 ATP501      0.0000 
     30 N3        113.4950  163.2890  128.5660 N.ar      1 ATP501      0.0000 
     31 C4        113.8900  162.0240  128.7890 C.ar      1 ATP501      0.0000 
@<TRIPOS>BOND
     1    1    2 ar   
     2    1    3 ar   
     3    1    4 ar   
     4    1    8 1    
     5    5    6 ar   
     6    5    7 ar   
     7    5    8 1    
     8    5   12 1    
     9    9   10 ar   
    10    9   11 ar   
    11    9   12 1    
    12    9   13 1    
    13   13   14 1    
    14   14   15 1    
    15   15   16 1    
    16   15   17 1    
    17   16   21 1    
    18   17   18 1    
    19   17   19 1    
    20   19   20 1    
    21   19   21 1    
    22   21   22 1    
    23   22   23 1    
    24   22   31 1    
    25   23   24 2    
    26   24   25 1    
    27   25   26 ar   
    28   25   31 ar   
    29   26   27 1    
    30   26   28 ar   
    31   28   29 ar   
    32   29   30 ar   
    33   30   31 ar   
@<TRIPOS>SUBSTRUCTURE
     1 ATP501      1 GROUP   
@<TRIPOS>SET
ATOM$ORANGE STATIC     ATOMS   COLORGROUP SYSTEM 
20 14 14 15 15 17 17 19 19 21 21 23 23 25 25 26 26 29 \
29 31 31 

