#    Name: 6ugf_2_ATP
#    Modification time : Fri May 22 19:32:19 2020

@<TRIPOS>MOLECULE
6ugf_2_ATP
   31    33     1     0     1
SMALL
NO_CHARGES


@<TRIPOS>ATOM
      1 PG         99.8420  133.4170  114.1210 P.3       1 ATP501      0.0000 
      2 O1G        99.7010  131.9480  113.8480 O.co2     1 ATP501      0.0000 
      3 O2G       101.2560  133.9210  114.1290 O.co2     1 ATP501      0.0000 
      4 O3G        98.9500  133.9170  115.2210 O.co2     1 ATP501      0.0000 
      5 PB         97.6450  134.2150  112.7540 P.3       1 ATP501      0.0000 
      6 O1B        97.0960  132.9080  113.2320 O.co2     1 ATP501      0.0000 
      7 O2B        97.2070  135.4990  113.3910 O.co2     1 ATP501      0.0000 
      8 O3B        99.2290  134.1160  112.8280 O.3       1 ATP501      0.0000 
      9 PA         95.8770  134.4280  110.7230 P.3       1 ATP501      0.0000 
     10 O1A        94.9850  134.1670  111.8990 O.co2     1 ATP501      0.0000 
     11 O2A        95.7280  135.6920  109.9340 O.co2     1 ATP501      0.0000 
     12 O3A        97.3960  134.3220  111.1860 O.3       1 ATP501      0.0000 
     13 O5'        95.6670  133.1900  109.7420 O.3       1 ATP501      0.0000 
     14 C5'        95.7060  133.4240  108.3490 C.3       1 ATP501      0.0000 
     15 C4'        94.3700  132.9860  107.7780 C.3       1 ATP501      0.0000 
     16 O4'        93.3380  133.0650  108.7640 O.3       1 ATP501      0.0000 
     17 C3'        93.9700  133.8990  106.6420 C.3       1 ATP501      0.0000 
     18 O3'        93.9240  133.1600  105.4220 O.3       1 ATP501      0.0000 
     19 C2'        92.5810  134.3730  106.9810 C.3       1 ATP501      0.0000 
     20 O2'        91.7190  134.0910  105.8810 O.3       1 ATP501      0.0000 
     21 C1'        92.1310  133.5890  108.2020 C.3       1 ATP501      0.0000 
     22 N9         91.4700  134.3730  109.2800 N.pl3     1 ATP501      0.0000 
     23 C8         91.3900  133.8740  110.5190 C.2       1 ATP501      0.0000 
     24 N7         90.7520  134.7130  111.3600 N.2       1 ATP501      0.0000 
     25 C5         90.4030  135.7940  110.6550 C.ar      1 ATP501      0.0000 
     26 C6         89.7030  137.0560  110.9580 C.ar      1 ATP501      0.0000 
     27 N6         89.2540  137.3180  112.2000 N.pl3     1 ATP501      0.0000 
     28 N1         89.5180  137.9430  109.9740 N.ar      1 ATP501      0.0000 
     29 C2         89.9550  137.6870  108.7420 C.ar      1 ATP501      0.0000 
     30 N3         90.5950  136.5640  108.4000 N.ar      1 ATP501      0.0000 
     31 C4         90.8580  135.5730  109.2810 C.ar      1 ATP501      0.0000 
@<TRIPOS>BOND
     1    1    2 ar   
     2    1    3 ar   
     3    1    4 ar   
     4    1    8 1    
     5    5    6 ar   
     6    5    7 ar   
     7    5    8 1    
     8    5   12 1    
     9    9   10 ar   
    10    9   11 ar   
    11    9   12 1    
    12    9   13 1    
    13   13   14 1    
    14   14   15 1    
    15   15   16 1    
    16   15   17 1    
    17   16   21 1    
    18   17   18 1    
    19   17   19 1    
    20   19   20 1    
    21   19   21 1    
    22   21   22 1    
    23   22   23 1    
    24   22   31 1    
    25   23   24 2    
    26   24   25 1    
    27   25   26 ar   
    28   25   31 ar   
    29   26   27 1    
    30   26   28 ar   
    31   28   29 ar   
    32   29   30 ar   
    33   30   31 ar   
@<TRIPOS>SUBSTRUCTURE
     1 ATP501      1 GROUP   
@<TRIPOS>SET
ATOM$ORANGE STATIC     ATOMS   COLORGROUP SYSTEM 
20 14 14 15 15 17 17 19 19 21 21 23 23 25 25 26 26 29 \
29 31 31 

