#    Name: 6ugf_4_ATP
#    Modification time : Fri May 22 19:32:33 2020

@<TRIPOS>MOLECULE
6ugf_4_ATP
   31    33     1     0     1
SMALL
NO_CHARGES


@<TRIPOS>ATOM
      1 PG        124.3380   91.8030  134.3590 P.3       1 ATP501      0.0000 
      2 O1G       124.1400   91.7570  132.8750 O.co2     1 ATP501      0.0000 
      3 O2G       123.0850   92.0660  135.1360 O.co2     1 ATP501      0.0000 
      4 O3G       125.5400   92.5880  134.7870 O.co2     1 ATP501      0.0000 
      5 PB        125.6260   89.5150  133.7090 P.3       1 ATP501      0.0000 
      6 O1B       124.7090   88.9460  132.6710 O.co2     1 ATP501      0.0000 
      7 O2B       126.7450   90.4140  133.2760 O.co2     1 ATP501      0.0000 
      8 O3B       124.7210   90.3050  134.7560 O.3       1 ATP501      0.0000 
      9 PA        127.4020   87.4830  133.7910 P.3       1 ATP501      0.0000 
     10 O1A       126.8970   87.1290  132.4230 O.co2     1 ATP501      0.0000 
     11 O2A       128.6700   88.2760  133.9180 O.co2     1 ATP501      0.0000 
     12 O3A       126.2310   88.2830  134.5270 O.3       1 ATP501      0.0000 
     13 O5'       127.5770   86.1190  134.6040 O.3       1 ATP501      0.0000 
     14 C5'       128.3790   86.1010  135.7720 C.3       1 ATP501      0.0000 
     15 C4'       129.0060   84.7290  135.8670 C.3       1 ATP501      0.0000 
     16 O4'       128.0130   83.7470  136.1380 O.3       1 ATP501      0.0000 
     17 C3'       129.6170   84.4020  134.5290 C.3       1 ATP501      0.0000 
     18 O3'       131.0190   84.2210  134.6910 O.3       1 ATP501      0.0000 
     19 C2'       129.0130   83.0900  134.1190 C.3       1 ATP501      0.0000 
     20 O2'       130.0700   82.1680  133.8840 O.3       1 ATP501      0.0000 
     21 C1'       128.2060   82.6150  135.3000 C.3       1 ATP501      0.0000 
     22 N9        126.9010   82.1250  134.8220 N.pl3     1 ATP501      0.0000 
     23 C8        125.7220   82.7060  135.0600 C.2       1 ATP501      0.0000 
     24 N7        124.7080   82.0170  134.4880 N.2       1 ATP501      0.0000 
     25 C5        125.2490   80.9650  133.8700 C.ar      1 ATP501      0.0000 
     26 C6        124.7410   79.8350  133.0750 C.ar      1 ATP501      0.0000 
     27 N6        123.4240   79.6890  132.8240 N.pl3     1 ATP501      0.0000 
     28 N1        125.6350   78.9480  132.6070 N.ar      1 ATP501      0.0000 
     29 C2        126.9460   79.0850  132.8550 C.ar      1 ATP501      0.0000 
     30 N3        127.4760   80.0860  133.5710 N.ar      1 ATP501      0.0000 
     31 C4        126.6910   81.0400  134.0940 C.ar      1 ATP501      0.0000 
@<TRIPOS>BOND
     1    1    2 ar   
     2    1    3 ar   
     3    1    4 ar   
     4    1    8 1    
     5    5    6 ar   
     6    5    7 ar   
     7    5    8 1    
     8    5   12 1    
     9    9   10 ar   
    10    9   11 ar   
    11    9   12 1    
    12    9   13 1    
    13   13   14 1    
    14   14   15 1    
    15   15   16 1    
    16   15   17 1    
    17   16   21 1    
    18   17   18 1    
    19   17   19 1    
    20   19   20 1    
    21   19   21 1    
    22   21   22 1    
    23   22   23 1    
    24   22   31 1    
    25   23   24 2    
    26   24   25 1    
    27   25   26 ar   
    28   25   31 ar   
    29   26   27 1    
    30   26   28 ar   
    31   28   29 ar   
    32   29   30 ar   
    33   30   31 ar   
@<TRIPOS>SUBSTRUCTURE
     1 ATP501      1 GROUP   
@<TRIPOS>SET
ATOM$ORANGE STATIC     ATOMS   COLORGROUP SYSTEM 
20 14 14 15 15 17 17 19 19 21 21 23 23 25 25 26 26 29 \
29 31 31 

