#    Name: 6ugf_3_ATP
#    Modification time : Fri May 22 19:32:26 2020

@<TRIPOS>MOLECULE
6ugf_3_ATP
   31    33     1     0     1
SMALL
NO_CHARGES


@<TRIPOS>ATOM
      1 PG        104.0940  103.5410  115.8770 P.3       1 ATP501      0.0000 
      2 O1G       102.7910  104.2750  115.8930 O.co2     1 ATP501      0.0000 
      3 O2G       104.5480  103.0650  117.2220 O.co2     1 ATP501      0.0000 
      4 O3G       105.1540  104.1850  115.0300 O.co2     1 ATP501      0.0000 
      5 PB        103.2190  102.1630  113.6530 P.3       1 ATP501      0.0000 
      6 O1B       101.8400  102.7550  113.6040 O.co2     1 ATP501      0.0000 
      7 O2B       104.3120  102.6880  112.7670 O.co2     1 ATP501      0.0000 
      8 O3B       103.7460  102.1600  115.1580 O.3       1 ATP501      0.0000 
      9 PA        103.1580  100.2770  111.7790 P.3       1 ATP501      0.0000 
     10 O1A       102.3940  101.3490  111.0610 O.co2     1 ATP501      0.0000 
     11 O2A       104.6070  100.0770  111.4520 O.co2     1 ATP501      0.0000 
     12 O3A       103.0440  100.6170  113.3270 O.3       1 ATP501      0.0000 
     13 O5'       102.4190   98.8660  111.6660 O.3       1 ATP501      0.0000 
     14 C5'       102.9800   97.7670  112.3700 C.3       1 ATP501      0.0000 
     15 C4'       102.6940   96.4770  111.6230 C.3       1 ATP501      0.0000 
     16 O4'       101.4070   95.9800  111.9630 O.3       1 ATP501      0.0000 
     17 C3'       102.7230   96.7300  110.1370 C.3       1 ATP501      0.0000 
     18 O3'       103.6590   95.8470  109.5330 O.3       1 ATP501      0.0000 
     19 C2'       101.3550   96.3670  109.6410 C.3       1 ATP501      0.0000 
     20 O2'       101.4810   95.4310  108.5780 O.3       1 ATP501      0.0000 
     21 C1'       100.6560   95.6880  110.7930 C.3       1 ATP501      0.0000 
     22 N9         99.3230   96.2860  110.9840 N.pl3     1 ATP501      0.0000 
     23 C8         98.9260   96.8290  112.1370 C.2       1 ATP501      0.0000 
     24 N7         97.6610   97.2970  112.0550 N.2       1 ATP501      0.0000 
     25 C5         97.2350   97.0500  110.8160 C.ar      1 ATP501      0.0000 
     26 C6         95.9910   97.2940  110.0820 C.ar      1 ATP501      0.0000 
     27 N6         94.9490   97.9090  110.6790 N.pl3     1 ATP501      0.0000 
     28 N1         95.9320   96.8880  108.8060 N.ar      1 ATP501      0.0000 
     29 C2         96.9710   96.2770  108.2190 C.ar      1 ATP501      0.0000 
     30 N3         98.1330   96.0230  108.8280 N.ar      1 ATP501      0.0000 
     31 C4         98.3260   96.3790  110.1090 C.ar      1 ATP501      0.0000 
@<TRIPOS>BOND
     1    1    2 ar   
     2    1    3 ar   
     3    1    4 ar   
     4    1    8 1    
     5    5    6 ar   
     6    5    7 ar   
     7    5    8 1    
     8    5   12 1    
     9    9   10 ar   
    10    9   11 ar   
    11    9   12 1    
    12    9   13 1    
    13   13   14 1    
    14   14   15 1    
    15   15   16 1    
    16   15   17 1    
    17   16   21 1    
    18   17   18 1    
    19   17   19 1    
    20   19   20 1    
    21   19   21 1    
    22   21   22 1    
    23   22   23 1    
    24   22   31 1    
    25   23   24 2    
    26   24   25 1    
    27   25   26 ar   
    28   25   31 ar   
    29   26   27 1    
    30   26   28 ar   
    31   28   29 ar   
    32   29   30 ar   
    33   30   31 ar   
@<TRIPOS>SUBSTRUCTURE
     1 ATP501      1 GROUP   
@<TRIPOS>SET
ATOM$ORANGE STATIC     ATOMS   COLORGROUP SYSTEM 
20 14 14 15 15 17 17 19 19 21 21 23 23 25 25 26 26 29 \
29 31 31 

