#    Name: 6ugf_5_ATP
#    Modification time : Fri May 22 19:32:36 2020

@<TRIPOS>MOLECULE
6ugf_5_ATP
   31    33     1     0     1
SMALL
NO_CHARGES


@<TRIPOS>ATOM
      1 PG        137.1940  108.8620  155.6250 P.3       1 ATP501      0.0000 
      2 O1G       137.0420  107.3700  155.5200 O.co2     1 ATP501      0.0000 
      3 O2G       136.0900  109.5410  156.3870 O.co2     1 ATP501      0.0000 
      4 O3G       137.6330  109.5490  154.3600 O.co2     1 ATP501      0.0000 
      5 PB        139.7100  108.0600  156.3670 P.3       1 ATP501      0.0000 
      6 O1B       139.4350  106.7510  157.0600 O.co2     1 ATP501      0.0000 
      7 O2B       140.1050  108.0930  154.9120 O.co2     1 ATP501      0.0000 
      8 O3B       138.4610  109.0350  156.5800 O.3       1 ATP501      0.0000 
      9 PA        142.3220  108.2620  157.0740 P.3       1 ATP501      0.0000 
     10 O1A       142.2450  106.8820  156.4740 O.co2     1 ATP501      0.0000 
     11 O2A       143.1450  109.3330  156.4100 O.co2     1 ATP501      0.0000 
     12 O3A       140.8330  108.8140  157.2120 O.3       1 ATP501      0.0000 
     13 O5'       142.7590  108.1720  158.6110 O.3       1 ATP501      0.0000 
     14 C5'       142.5670  109.3220  159.4210 C.3       1 ATP501      0.0000 
     15 C4'       143.7490  109.4710  160.3660 C.3       1 ATP501      0.0000 
     16 O4'       143.6110  108.6180  161.4970 O.3       1 ATP501      0.0000 
     17 C3'       145.0460  109.0800  159.6970 C.3       1 ATP501      0.0000 
     18 O3'       145.7460  110.2320  159.2350 O.3       1 ATP501      0.0000 
     19 C2'       145.8420  108.3930  160.7770 C.3       1 ATP501      0.0000 
     20 O2'       146.8620  109.2700  161.2460 O.3       1 ATP501      0.0000 
     21 C1'       144.8740  108.1080  161.9030 C.3       1 ATP501      0.0000 
     22 N9        144.7060  106.6510  162.0470 N.pl3     1 ATP501      0.0000 
     23 C8        143.5410  106.0140  161.8820 C.2       1 ATP501      0.0000 
     24 N7        143.6750  104.6840  162.0790 N.2       1 ATP501      0.0000 
     25 C5        144.9580  104.4540  162.3740 C.ar      1 ATP501      0.0000 
     26 C6        145.7650  103.2650  162.6900 C.ar      1 ATP501      0.0000 
     27 N6        145.2090  102.0320  162.7260 N.pl3     1 ATP501      0.0000 
     28 N1        147.0740  103.4480  162.9390 N.ar      1 ATP501      0.0000 
     29 C2        147.6330  104.6670  162.9070 C.ar      1 ATP501      0.0000 
     30 N3        146.9550  105.7880  162.6270 N.ar      1 ATP501      0.0000 
     31 C4        145.6350  105.7520  162.3620 C.ar      1 ATP501      0.0000 
@<TRIPOS>BOND
     1    1    2 ar   
     2    1    3 ar   
     3    1    4 ar   
     4    1    8 1    
     5    5    6 ar   
     6    5    7 ar   
     7    5    8 1    
     8    5   12 1    
     9    9   10 ar   
    10    9   11 ar   
    11    9   12 1    
    12    9   13 1    
    13   13   14 1    
    14   14   15 1    
    15   15   16 1    
    16   15   17 1    
    17   16   21 1    
    18   17   18 1    
    19   17   19 1    
    20   19   20 1    
    21   19   21 1    
    22   21   22 1    
    23   22   23 1    
    24   22   31 1    
    25   23   24 2    
    26   24   25 1    
    27   25   26 ar   
    28   25   31 ar   
    29   26   27 1    
    30   26   28 ar   
    31   28   29 ar   
    32   29   30 ar   
    33   30   31 ar   
@<TRIPOS>SUBSTRUCTURE
     1 ATP501      1 GROUP   
@<TRIPOS>SET
ATOM$ORANGE STATIC     ATOMS   COLORGROUP SYSTEM 
20 14 14 15 15 17 17 19 19 21 21 23 23 25 25 26 26 29 \
29 31 31 

