#    Name: 6geh_1_FAD
#    Modification time : Fri May 22 19:32:21 2020

@<TRIPOS>MOLECULE
6geh_1_FAD
   84    89     1     0     1
SMALL
NO_CHARGES


@<TRIPOS>ATOM
      1 PA          4.7810    2.3070  -14.9380 P.3       1 FAD635      0.0000 
      2 O1A         4.9820    0.8830  -15.4760 O.co2     1 FAD635      0.0000 
      3 O2A         3.4390    2.5070  -14.2220 O.co2     1 FAD635      0.0000 
      4 O5B         5.9490    2.7380  -13.9070 O.3       1 FAD635      0.0000 
      5 C5B         7.2950    2.3230  -14.1790 C.3       1 FAD635      0.0000 
      6 C4B         8.2920    3.1890  -13.3520 C.3       1 FAD635      0.0000 
      7 O4B         8.1390    4.4480  -13.7150 O.3       1 FAD635      0.0000 
      8 C3B         8.0320    3.1030  -11.8530 C.3       1 FAD635      0.0000 
      9 O3B         9.1880    2.9090  -11.1540 O.3       1 FAD635      0.0000 
     10 C2B         7.3230    4.4880  -11.5650 C.3       1 FAD635      0.0000 
     11 O2B         7.5750    4.9150  -10.1710 O.3       1 FAD635      0.0000 
     12 C1B         7.8550    5.3130  -12.4010 C.3       1 FAD635      0.0000 
     13 N9A         7.0040    6.3550  -12.9000 N.pl3     1 FAD635      0.0000 
     14 C8A         5.7230    6.2410  -13.3980 C.2       1 FAD635      0.0000 
     15 N7A         5.2950    7.4750  -13.8050 N.2       1 FAD635      0.0000 
     16 C5A         6.3130    8.3580  -13.5460 C.ar      1 FAD635      0.0000 
     17 C6A         6.4400    9.7310  -13.7780 C.ar      1 FAD635      0.0000 
     18 N6A         5.5010   10.6530  -14.3670 N.pl3     1 FAD635      0.0000 
     19 N1A         7.5790   10.3740  -13.4250 N.ar      1 FAD635      0.0000 
     20 C2A         8.6240    9.6810  -12.8640 C.ar      1 FAD635      0.0000 
     21 N3A         8.5270    8.3240  -12.6370 N.ar      1 FAD635      0.0000 
     22 C4A         7.3620    7.6810  -13.0170 C.ar      1 FAD635      0.0000 
     23 N1          0.5040   10.6100  -16.4510 N.2       1 FAD635      0.0000 
     24 C2          0.7810   11.4320  -17.5550 C.2       1 FAD635      0.0000 
     25 O2          1.8800   11.4700  -18.0100 O.2       1 FAD635      0.0000 
     26 N3         -0.2670   12.2080  -18.1220 N.am      1 FAD635      0.0000 
     27 C4         -1.5760   12.2180  -17.6750 C.2       1 FAD635      0.0000 
     28 O4         -2.4270   12.8650  -18.2620 O.2       1 FAD635      0.0000 
     29 C4X        -1.8370   11.3850  -16.5200 C.2       1 FAD635      0.0000 
     30 N5         -3.1020   11.3690  -15.9900 N.2       1 FAD635      0.0000 
     31 C5X        -3.3520   10.5180  -14.8700 C.ar      1 FAD635      0.0000 
     32 C6         -4.6420   10.4730  -14.3260 C.ar      1 FAD635      0.0000 
     33 C7         -4.8920    9.6900  -13.1910 C.ar      1 FAD635      0.0000 
     34 C7M        -6.3120    9.7430  -12.6570 C.3       1 FAD635      0.0000 
     35 C8         -3.8450    8.9290  -12.6580 C.ar      1 FAD635      0.0000 
     36 C8M        -4.1390    8.0590  -11.4520 C.3       1 FAD635      0.0000 
     37 C9         -2.5850    8.9500  -13.2200 C.ar      1 FAD635      0.0000 
     38 C9A        -2.3170    9.7500  -14.3190 C.ar      1 FAD635      0.0000 
     39 N10        -1.0150    9.8030  -14.8810 N.pl3     1 FAD635      0.0000 
     40 C10        -0.7950   10.6100  -15.9930 C.2       1 FAD635      0.0000 
     41 C1'         0.1360    9.0480  -14.3430 C.3       1 FAD635      0.0000 
     42 C2'         0.4160    7.7470  -15.1510 C.3       1 FAD635      0.0000 
     43 O2'        -0.6930    6.9170  -15.1360 O.3       1 FAD635      0.0000 
     44 C3'         1.5980    7.0980  -14.4520 C.3       1 FAD635      0.0000 
     45 O3'         2.7000    8.0150  -14.5790 O.3       1 FAD635      0.0000 
     46 C4'         1.9140    5.7130  -14.9710 C.3       1 FAD635      0.0000 
     47 O4'         2.7290    5.0670  -14.0020 O.3       1 FAD635      0.0000 
     48 C5'         2.6510    5.7270  -16.2830 C.3       1 FAD635      0.0000 
     49 O5'         2.7100    4.3810  -16.7890 O.3       1 FAD635      0.0000 
     50 P           4.0340    3.7110  -17.3740 P.3       1 FAD635      0.0000 
     51 O1P         3.5780    2.4210  -17.9530 O.co2     1 FAD635      0.0000 
     52 O2P         4.8060    4.6830  -18.2010 O.co2     1 FAD635      0.0000 
     53 O3P         4.9390    3.4160  -16.0880 O.3       1 FAD635      0.0000 
     54 H51A        7.4830    2.4290  -15.1410 H         1 FAD635      0.0000 
     55 H52A        7.3990    1.3980  -13.9320 H         1 FAD635      0.0000 
     56 H4B         9.2030    2.9040  -13.5420 H         1 FAD635      0.0000 
     57 H3B         7.4130    2.3740  -11.6690 H         1 FAD635      0.0000 
     58 HO3A        9.7490    3.5630  -11.3290 H         1 FAD635      0.0000 
     59 H2B         6.3640    4.4160  -11.7290 H         1 FAD635      0.0000 
     60 HO2A        6.8010    4.9070   -9.7090 H         1 FAD635      0.0000 
     61 H1B         8.6790    5.6780  -12.0480 H         1 FAD635      0.0000 
     62 H8A         5.2000    5.3940  -13.4660 H         1 FAD635      0.0000 
     63 H61A        5.0000   11.2000  -13.8310 H         1 FAD635      0.0000 
     64 H62A        5.4050   10.6920  -15.2850 H         1 FAD635      0.0000 
     65 H2A         9.4630   10.1650  -12.6170 H         1 FAD635      0.0000 
     66 HN3        -0.0710   12.7040  -18.8680 H         1 FAD635      0.0000 
     67 H6         -5.1980   11.0850  -14.8580 H         1 FAD635      0.0000 
     68 HM71       -6.8650    9.1580  -13.1760 H         1 FAD635      0.0000 
     69 HM72       -6.6530   10.6470  -12.7280 H         1 FAD635      0.0000 
     70 HM73       -6.3240    9.4510  -11.7160 H         1 FAD635      0.0000 
     71 HM81       -4.4370    8.6260  -10.7030 H         1 FAD635      0.0000 
     72 HM82       -3.3130    7.5670  -11.1880 H         1 FAD635      0.0000 
     73 HM83       -4.8690    7.3960  -11.6830 H         1 FAD635      0.0000 
     74 H9         -2.0750    8.3370  -12.5950 H         1 FAD635      0.0000 
     75 H1'1       -0.0640    8.7940  -13.4060 H         1 FAD635      0.0000 
     76 H1'2        0.9280    9.6150  -14.3540 H         1 FAD635      0.0000 
     77 H2'         0.6670    7.9800  -16.1140 H         1 FAD635      0.0000 
     78 HO2'       -1.3720    7.3200  -15.5600 H         1 FAD635      0.0000 
     79 H3'         1.3750    7.0190  -13.4800 H         1 FAD635      0.0000 
     80 HO3'        2.8760    8.1580  -15.4590 H         1 FAD635      0.0000 
     81 H4'         1.0850    5.2130  -15.0740 H         1 FAD635      0.0000 
     82 HO4'        2.2240    4.4860  -13.5230 H         1 FAD635      0.0000 
     83 H5'1        3.5690    6.0810  -16.1570 H         1 FAD635      0.0000 
     84 H5'2        2.1580    6.3080  -16.9400 H         1 FAD635      0.0000 
@<TRIPOS>BOND
     1    1    2 ar   
     2    1    3 ar   
     3    1    4 1    
     4    1   53 1    
     5    4    5 1    
     6    5    6 1    
     7    5   54 1    
     8    5   55 1    
     9    6    7 1    
    10    6    8 1    
    11    6   56 1    
    12    7   12 1    
    13    8    9 1    
    14    8   10 1    
    15    8   57 1    
    16    9   58 1    
    17   10   11 1    
    18   10   12 1    
    19   10   59 1    
    20   12   61 1    
    21   11   60 1    
    22   12   13 1    
    23   13   14 1    
    24   13   22 1    
    25   14   15 2    
    26   14   62 1    
    27   15   16 1    
    28   16   17 ar   
    29   16   22 ar   
    30   17   18 1    
    31   17   19 ar   
    32   18   63 1    
    33   18   64 1    
    34   19   20 ar   
    35   20   21 ar   
    36   20   65 1    
    37   21   22 ar   
    38   23   24 1    
    39   23   40 2    
    40   24   25 2    
    41   24   26 am   
    42   26   27 am   
    43   26   66 1    
    44   27   28 2    
    45   27   29 1    
    46   29   30 2    
    47   29   40 1    
    48   30   31 1    
    49   31   32 ar   
    50   31   38 ar   
    51   32   33 ar   
    52   32   67 1    
    53   33   34 1    
    54   33   35 ar   
    55   34   68 1    
    56   34   69 1    
    57   34   70 1    
    58   35   36 1    
    59   35   37 ar   
    60   37   74 1    
    61   36   71 1    
    62   36   72 1    
    63   36   73 1    
    64   37   38 ar   
    65   38   39 1    
    66   39   40 1    
    67   39   41 1    
    68   41   42 1    
    69   41   75 1    
    70   41   76 1    
    71   42   43 1    
    72   42   44 1    
    73   42   77 1    
    74   43   78 1    
    75   44   45 1    
    76   44   46 1    
    77   44   79 1    
    78   45   80 1    
    79   46   47 1    
    80   46   48 1    
    81   46   81 1    
    82   47   82 1    
    83   48   49 1    
    84   48   83 1    
    85   48   84 1    
    86   49   50 1    
    87   50   51 ar   
    88   50   52 ar   
    89   50   53 1    
@<TRIPOS>SUBSTRUCTURE
     1 FAD635      1 GROUP   
@<TRIPOS>SET
ATOM$ORANGE STATIC     ATOMS   COLORGROUP SYSTEM 
54 5 5 6 6 8 8 10 10 12 12 14 14 16 16 17 17 20 \
20 22 22 24 24 27 27 29 29 31 31 32 32 33 33 34 34 35 \
35 36 36 37 37 38 38 40 40 41 41 42 42 44 44 46 46 48 \
48 

