#    Name: 6geh_1_FAD_CAVITY_N1_8
#    Modification time : Fri May 22 19:32:23 2020

@<TRIPOS>MOLECULE
6geh_1_FAD_CAVITY_N1_8
  125     0     7     0     0
SMALL
NO_CHARGES


@<TRIPOS>ATOM
      1 OG          1.3000    6.0800  -17.0500 O.3       1 SER1        0.0000 
      2 OG          3.2100    5.1900  -17.3200 O.3       1 SER1        0.0000 
      3 OG          3.9100    4.0000  -16.7500 O.3       1 SER1        0.0000 
      4 OG          5.1100    4.3000  -17.5900 O.3       1 SER1        0.0000 
      5 OG         -4.5800   10.7900  -15.7300 O.3       1 SER1        0.0000 
      6 OG          3.7600    6.0500  -16.2200 O.3       1 SER1        0.0000 
      7 OG          4.4700    4.8600  -15.6500 O.3       1 SER1        0.0000 
      8 OG          5.1700    3.6700  -15.0700 O.3       1 SER1        0.0000 
      9 OG         -6.4300   11.0400  -12.9400 O.3       1 SER1        0.0000 
     10 OG         -4.0300   11.6500  -14.6300 O.3       1 SER1        0.0000 
     11 OG          4.3100    6.9100  -15.1300 O.3       1 SER1        0.0000 
     12 OG          5.0200    5.7200  -14.5500 O.3       1 SER1        0.0000 
     13 OG          5.5700    6.5800  -13.4500 O.3       1 SER1        0.0000 
     14 OG          6.6200    8.9300  -13.7700 O.3       1 SER1        0.0000 
     15 OG          7.1200   10.4300  -15.1900 O.3       1 SER1        0.0000 
     16 OG          8.3800   10.1000  -13.5200 O.3       1 SER1        0.0000 
     17 N          -3.8700    9.6000  -15.1500 N.am      2 ALA2        0.0000 
     18 O          -3.3800   11.0900  -16.5700 O.2       2 ALA2        0.0000 
     19 N          -1.2600    7.5200  -14.8400 N.am      2 ALA2        0.0000 
     20 N          -1.4700   10.2100  -16.8400 N.am      2 ALA2        0.0000 
     21 N          -0.0600    7.8200  -15.6900 N.am      2 ALA2        0.0000 
     22 N           0.6500    6.6300  -15.1100 N.am      2 ALA2        0.0000 
     23 O           3.9700    3.3600  -14.2300 O.2       2 ALA2        0.0000 
     24 N           7.0800    2.7800  -15.3400 N.am      2 ALA2        0.0000 
     25 N           7.7900    1.5900  -14.7600 N.am      2 ALA2        0.0000 
     26 N          -2.8300   11.9500  -15.4700 N.am      2 ALA2        0.0000 
     27 N          -1.4100    9.5700  -14.3200 N.am      2 ALA2        0.0000 
     28 N          -0.7100    8.3800  -13.7500 N.am      2 ALA2        0.0000 
     29 N          -0.9200   11.0600  -15.7400 N.am      2 ALA2        0.0000 
     30 N           0.5000    8.6800  -14.5900 N.am      2 ALA2        0.0000 
     31 N           1.2000    7.4900  -14.0100 N.am      2 ALA2        0.0000 
     32 N           4.5200    4.2200  -13.1300 N.am      2 ALA2        0.0000 
     33 N           5.2300    3.0300  -12.5500 N.am      2 ALA2        0.0000 
     34 N           6.4300    3.3300  -13.4000 N.am      2 ALA2        0.0000 
     35 N           7.6300    3.6400  -14.2400 N.am      2 ALA2        0.0000 
     36 N           1.0500    9.5400  -13.4900 N.am      2 ALA2        0.0000 
     37 N           6.9900    4.1900  -12.3000 N.am      2 ALA2        0.0000 
     38 N           7.6900    3.0000  -11.7200 N.am      2 ALA2        0.0000 
     39 N           7.5400    5.0500  -11.2000 N.am      2 ALA2        0.0000 
     40 N           6.8100   14.5300  -14.1500 N.am      2 ALA2        0.0000 
     41 N           7.5200   13.3400  -13.5700 N.am      2 ALA2        0.0000 
     42 O           7.3600   15.3900  -13.0500 O.2       2 ALA2        0.0000 
     43 OD1         3.3600    3.1400  -17.8400 O.co2     3 ASP3        0.0000 
     44 OD1         4.0700    1.9500  -17.2700 O.co2     3 ASP3        0.0000 
     45 OD1         2.7100    3.6900  -15.9000 O.co2     3 ASP3        0.0000 
     46 OD1         3.4200    2.5000  -15.3300 O.co2     3 ASP3        0.0000 
     47 OD1         4.1200    1.3100  -14.7500 O.co2     3 ASP3        0.0000 
     48 OD1         4.6200    2.8100  -16.1700 O.co2     3 ASP3        0.0000 
     49 OD1         1.1400    8.1300  -16.5300 O.co2     3 ASP3        0.0000 
     50 OD1         1.8500    6.9400  -15.9600 O.co2     3 ASP3        0.0000 
     51 OD1         0.9900   10.1800  -16.0100 O.co2     3 ASP3        0.0000 
     52 OD1         2.4000    7.8000  -14.8600 O.co2     3 ASP3        0.0000 
     53 OD1         3.1100    6.6000  -14.2800 O.co2     3 ASP3        0.0000 
     54 OD1         2.2500    9.8500  -14.3400 O.co2     3 ASP3        0.0000 
     55 OD1         2.9600    8.6500  -13.7600 O.co2     3 ASP3        0.0000 
     56 OD1         4.8700    7.7700  -14.0300 O.co2     3 ASP3        0.0000 
     57 OD1         4.7100    9.8200  -13.5100 O.co2     3 ASP3        0.0000 
     58 OD1         5.2100   11.3100  -14.9300 O.co2     3 ASP3        0.0000 
     59 OD1         5.9200   10.1200  -14.3500 O.co2     3 ASP3        0.0000 
     60 NZ          6.1600   15.0800  -12.2100 N.4       4 LYS4        0.0000 
     61 CZ         -6.2800    8.9900  -13.4600 C.ar      5 PHE5        0.0000 
     62 CZ         -0.9800   11.7000  -18.2600 C.ar      5 PHE5        0.0000 
     63 CZ         -0.2700   10.5100  -17.6800 C.ar      5 PHE5        0.0000 
     64 CZ          0.4400    9.3200  -17.1100 C.ar      5 PHE5        0.0000 
     65 CZ          6.3700    3.9700  -15.9200 C.ar      5 PHE5        0.0000 
     66 CZ         -7.6300   10.7300  -12.1000 C.ar      5 PHE5        0.0000 
     67 CZ         -6.9300    9.5400  -11.5200 C.ar      5 PHE5        0.0000 
     68 CZ         -5.7200    9.8500  -12.3600 C.ar      5 PHE5        0.0000 
     69 CZ         -5.2300   11.3400  -13.7800 C.ar      5 PHE5        0.0000 
     70 CZ         -4.5200   10.1500  -13.2100 C.ar      5 PHE5        0.0000 
     71 CZ         -3.8200    8.9600  -12.6300 C.ar      5 PHE5        0.0000 
     72 CZ         -3.3200   10.4600  -14.0500 C.ar      5 PHE5        0.0000 
     73 CZ         -2.6100    9.2600  -13.4800 C.ar      5 PHE5        0.0000 
     74 CZ         -2.1200   10.7600  -14.9000 C.ar      5 PHE5        0.0000 
     75 CZ          5.7300    4.5300  -13.9700 C.ar      5 PHE5        0.0000 
     76 CZ         -5.1700   10.7000  -11.2700 C.ar      5 PHE5        0.0000 
     77 CZ         -0.8600   10.4300  -13.2200 C.ar      5 PHE5        0.0000 
     78 CZ          6.2800    5.3900  -12.8800 C.ar      5 PHE5        0.0000 
     79 CZ          7.4800    5.6900  -13.7200 C.ar      5 PHE5        0.0000 
     80 CZ          8.1900    4.5000  -13.1400 C.ar      5 PHE5        0.0000 
     81 CZ          5.4200    8.6300  -12.9300 C.ar      5 PHE5        0.0000 
     82 CZ          6.1300    7.4400  -12.3500 C.ar      5 PHE5        0.0000 
     83 CZ          6.8300    6.2400  -11.7800 C.ar      5 PHE5        0.0000 
     84 CZ          7.3300    7.7400  -13.2000 C.ar      5 PHE5        0.0000 
     85 CZ          6.4700   10.9800  -13.2500 C.ar      5 PHE5        0.0000 
     86 CZ          7.1700    9.7900  -12.6800 C.ar      5 PHE5        0.0000 
     87 CZ          7.8800    8.6000  -12.1000 C.ar      5 PHE5        0.0000 
     88 CZ          6.3200   13.0300  -12.7300 C.ar      5 PHE5        0.0000 
     89 CZ          7.0200   11.8400  -12.1500 C.ar      5 PHE5        0.0000 
     90 CZ          8.2200   12.1500  -13.0000 C.ar      5 PHE5        0.0000 
     91 CZ          8.9300   10.9500  -12.4200 C.ar      5 PHE5        0.0000 
     92 CZ          6.8700   13.8900  -11.6300 C.ar      5 PHE5        0.0000 
     93 CA          0.1000    5.7700  -16.2100 C.3       6 GLY6        0.0000 
     94 CA          0.8000    4.5800  -15.6300 C.3       6 GLY6        0.0000 
     95 CA          2.0000    4.8900  -16.4800 C.3       6 GLY6        0.0000 
     96 CA          5.3300    1.6200  -15.5900 C.3       6 GLY6        0.0000 
     97 CA          5.8200    3.1100  -17.0100 C.3       6 GLY6        0.0000 
     98 CA         -5.5700    7.8000  -12.8900 C.3       6 GLY6        0.0000 
     99 CA         -5.7800   10.4800  -14.8800 C.3       6 GLY6        0.0000 
    100 CA         -5.0800    9.2900  -14.3100 C.3       6 GLY6        0.0000 
    101 CA         -2.1800   11.4000  -17.4100 C.3       6 GLY6        0.0000 
    102 CA          1.3600    5.4400  -14.5400 C.3       6 GLY6        0.0000 
    103 CA          4.6800    2.1700  -13.6500 C.3       6 GLY6        0.0000 
    104 CA          5.8800    2.4800  -14.5000 C.3       6 GLY6        0.0000 
    105 CA          6.5900    1.2800  -13.9200 C.3       6 GLY6        0.0000 
    106 CA         -0.2100    9.8700  -15.1700 C.3       6 GLY6        0.0000 
    107 CA          1.9100    6.3000  -13.4400 C.3       6 GLY6        0.0000 
    108 CA          0.2800   11.3700  -16.5900 C.3       6 GLY6        0.0000 
    109 CA          7.1400    2.1400  -12.8200 C.3       6 GLY6        0.0000 
    110 CA          1.7600    8.3500  -12.9200 C.3       6 GLY6        0.0000 
    111 CA          3.6600    7.4600  -13.1800 C.3       6 GLY6        0.0000 
    112 CA          4.3700    6.2700  -12.6100 C.3       6 GLY6        0.0000 
    113 CA          8.0300    6.5500  -12.6200 C.3       6 GLY6        0.0000 
    114 CA          5.0600   13.3600  -14.4000 C.3       6 GLY6        0.0000 
    115 CA          5.7600   12.1700  -13.8300 C.3       6 GLY6        0.0000 
    116 CA          6.2600   13.6700  -15.2500 C.3       6 GLY6        0.0000 
    117 CA          6.9600   12.4800  -14.6700 C.3       6 GLY6        0.0000 
    118 CA          7.6700   11.2900  -14.1000 C.3       6 GLY6        0.0000 
    119 CA          9.0800    8.9000  -12.9400 C.3       6 GLY6        0.0000 
    120 CA          5.6100   14.2200  -13.3100 C.3       6 GLY6        0.0000 
    121 DU          2.5600    5.7500  -15.3800 H         7 CUB7        0.0000 
    122 DU          3.2600    4.5500  -14.8000 H         7 CUB7        0.0000 
    123 DU         -5.0200    8.6500  -11.7900 H         7 CUB7        0.0000 
    124 DU          3.8200    5.4100  -13.7100 H         7 CUB7        0.0000 
    125 DU          8.7400    5.3600  -12.0500 H         7 CUB7        0.0000 
@<TRIPOS>BOND
@<TRIPOS>SUBSTRUCTURE
     1 SER1        1 GROUP   
     2 ALA2       17 GROUP   
     3 ASP3       43 GROUP   
     4 LYS4       60 GROUP   
     5 PHE5       61 GROUP   
     6 GLY6       93 GROUP   
     7 CUB7      121 GROUP   
@<TRIPOS>SET

