#    Name: 6pta_3_GDP_CAVITY_N1_6
#    Modification time : Fri May 22 19:25:30 2020

@<TRIPOS>MOLECULE
6pta_3_GDP_CAVITY_N1_6
   61     0     6     0     0
SMALL
NO_CHARGES


@<TRIPOS>ATOM
      1 OG         36.5100   18.4500   22.6600 O.3       1 SER1        0.0000 
      2 OG         35.1800   18.6900   25.3300 O.3       1 SER1        0.0000 
      3 OG         34.7200   20.0800   24.9800 O.3       1 SER1        0.0000 
      4 OG         34.5100   18.8100   26.6700 O.3       1 SER1        0.0000 
      5 OG         33.8500   18.9300   28.0100 O.3       1 SER1        0.0000 
      6 OG         33.1800   19.0500   29.3500 O.3       1 SER1        0.0000 
      7 OG         32.7200   20.4400   28.9900 O.3       1 SER1        0.0000 
      8 OG         37.1100   19.1400   24.5700 O.3       1 SER1        0.0000 
      9 OG         36.4400   19.2600   25.9100 O.3       1 SER1        0.0000 
     10 OG         34.4400   19.6200   29.9300 O.3       1 SER1        0.0000 
     11 N          31.5300   19.0600   25.1600 N.am      2 ALA2        0.0000 
     12 O          34.5800   18.0000   23.4200 O.2       2 ALA2        0.0000 
     13 O          33.9200   18.1200   24.7600 O.2       2 ALA2        0.0000 
     14 N          33.4600   19.5100   24.4000 N.am      2 ALA2        0.0000 
     15 N          32.7900   19.6300   25.7400 N.am      2 ALA2        0.0000 
     16 O          32.1200   19.7500   27.0800 O.2       2 ALA2        0.0000 
     17 O          31.6600   21.1300   26.7200 O.2       2 ALA2        0.0000 
     18 O          31.4600   19.8700   28.4200 O.2       2 ALA2        0.0000 
     19 O          30.9900   21.2500   28.0600 O.2       2 ALA2        0.0000 
     20 O          35.8500   18.5700   24.0000 O.2       2 ALA2        0.0000 
     21 O          35.3900   19.9500   23.6400 O.2       2 ALA2        0.0000 
     22 N          35.4300   16.0500   27.3800 N.am      2 ALA2        0.0000 
     23 O          36.9000   17.8800   26.2700 O.2       2 ALA2        0.0000 
     24 OD1        34.7700   16.1700   28.7200 O.co2     3 ASP3        0.0000 
     25 NZ         32.1000   16.6500   34.0700 N.4       4 LYS4        0.0000 
     26 CA         31.3200   17.8000   26.8500 C.3       5 GLY6        0.0000 
     27 CA         31.9200   18.4900   28.7700 C.3       5 GLY6        0.0000 
     28 CA         30.5300   22.6300   27.7100 C.3       5 GLY6        0.0000 
     29 CA         31.2500   18.6100   30.1100 C.3       5 GLY6        0.0000 
     30 CA         36.3100   17.1900   24.3500 C.3       5 GLY6        0.0000 
     31 CA         36.1000   15.9300   26.0400 C.3       5 GLY6        0.0000 
     32 CA         35.6400   17.3100   25.6900 C.3       5 GLY6        0.0000 
     33 CA         32.2600   21.8200   28.6400 C.3       5 GLY6        0.0000 
     34 CA         31.8000   23.2000   28.2800 C.3       5 GLY6        0.0000 
     35 CA         32.9700   17.7900   31.0400 C.3       5 GLY6        0.0000 
     36 CA         32.5100   19.1700   30.6900 C.3       5 GLY6        0.0000 
     37 CA         32.0500   20.5600   30.3300 C.3       5 GLY6        0.0000 
     38 CA         31.5900   21.9400   29.9800 C.3       5 GLY6        0.0000 
     39 CA         31.1300   23.3200   29.6200 C.3       5 GLY6        0.0000 
     40 CA         32.7700   16.5300   32.7300 C.3       5 GLY6        0.0000 
     41 CA         32.3100   17.9100   32.3800 C.3       5 GLY6        0.0000 
     42 CA         30.4600   23.4400   30.9600 C.3       5 GLY6        0.0000 
     43 CA         37.5700   17.7600   24.9300 C.3       5 GLY6        0.0000 
     44 CA         36.2400   18.0000   27.6000 C.3       5 GLY6        0.0000 
     45 CA         35.5700   18.1200   28.9400 C.3       5 GLY6        0.0000 
     46 CA         34.9000   18.2400   30.2800 C.3       5 GLY6        0.0000 
     47 CA         34.2300   18.3600   31.6200 C.3       5 GLY6        0.0000 
     48 CA         32.3900   23.8900   30.2000 C.3       5 GLY6        0.0000 
     49 CA         34.0300   17.1000   33.3100 C.3       5 GLY6        0.0000 
     50 CA         33.5700   18.4800   32.9600 C.3       5 GLY6        0.0000 
     51 CA         35.5000   18.9300   32.2000 C.3       5 GLY6        0.0000 
     52 CA         34.8300   19.0500   33.5300 C.3       5 GLY6        0.0000 
     53 DU         35.7100   16.5000   22.4300 H         6 CUB7        0.0000 
     54 DU         35.0500   16.6200   23.7700 H         6 CUB7        0.0000 
     55 DU         34.3800   16.7400   25.1100 H         6 CUB7        0.0000 
     56 DU         33.0400   16.9800   27.7900 H         6 CUB7        0.0000 
     57 DU         32.5800   18.3600   27.4300 H         6 CUB7        0.0000 
     58 DU         36.9700   17.0700   23.0100 H         6 CUB7        0.0000 
     59 DU         34.9700   17.4300   27.0300 H         6 CUB7        0.0000 
     60 DU         34.3100   17.5500   28.3600 H         6 CUB7        0.0000 
     61 DU         33.6400   17.6700   29.7000 H         6 CUB7        0.0000 
@<TRIPOS>BOND
@<TRIPOS>SUBSTRUCTURE
     1 SER1        1 GROUP   
     2 ALA2       11 GROUP   
     3 ASP3       24 GROUP   
     4 LYS4       25 GROUP   
     5 GLY6       26 GROUP   
     6 CUB7       53 GROUP   
@<TRIPOS>SET

