#    Name: 6pta_3_GDP
#    Modification time : Fri May 22 19:25:29 2020

@<TRIPOS>MOLECULE
6pta_3_GDP
   28    30     1     0     1
SMALL
NO_CHARGES


@<TRIPOS>ATOM
      1 PB         39.2430   18.1690   24.4100 P.3       1 GDP500      0.0000 
      2 O1B        38.9650   19.3470   23.5070 O.co2     1 GDP500      0.0000 
      3 O2B        39.4080   16.9110   23.5890 O.co2     1 GDP500      0.0000 
      4 O3B        40.5000   18.4160   25.2090 O.co2     1 GDP500      0.0000 
      5 O3A        38.0340   17.9620   25.4460 O.3       1 GDP500      0.0000 
      6 PA         36.7210   18.8890   25.3900 P.3       1 GDP500      0.0000 
      7 O1A        36.1250   18.8830   23.9990 O.co2     1 GDP500      0.0000 
      8 O2A        37.0040   20.2980   25.8570 O.co2     1 GDP500      0.0000 
      9 O5'        35.7710   18.1290   26.4390 O.3       1 GDP500      0.0000 
     10 C5'        35.0960   16.9420   26.0370 C.3       1 GDP500      0.0000 
     11 C4'        34.0270   16.6150   27.0640 C.3       1 GDP500      0.0000 
     12 O4'        34.5890   16.6730   28.3760 O.3       1 GDP500      0.0000 
     13 C3'        32.8990   17.6310   27.0030 C.3       1 GDP500      0.0000 
     14 O3'        31.7040   16.9930   26.5410 O.3       1 GDP500      0.0000 
     15 C2'        32.7240   18.1400   28.4220 C.3       1 GDP500      0.0000 
     16 O2'        31.3720   17.9560   28.8520 O.3       1 GDP500      0.0000 
     17 C1'        33.6660   17.2980   29.2710 C.3       1 GDP500      0.0000 
     18 N9         34.3860   18.1340   30.2650 N.pl3     1 GDP500      0.0000 
     19 C8         35.3100   19.0800   30.0060 C.2       1 GDP500      0.0000 
     20 N7         35.7690   19.6410   31.1540 N.2       1 GDP500      0.0000 
     21 C5         35.1370   19.0370   32.1780 C.2       1 GDP500      0.0000 
     22 C6         35.1420   19.1390   33.6570 C.2       1 GDP500      0.0000 
     23 O6         35.8790   19.9560   34.2460 O.2       1 GDP500      0.0000 
     24 N1         34.3260   18.3290   34.3450 N.am      1 GDP500      0.0000 
     25 C2         33.5160   17.4360   33.7450 C.2       1 GDP500      0.0000 
     26 N2         32.7200   16.6520   34.5150 N.pl3     1 GDP500      0.0000 
     27 N3         33.4590   17.2910   32.3980 N.2       1 GDP500      0.0000 
     28 C4         34.2270   18.0480   31.5830 C.2       1 GDP500      0.0000 
@<TRIPOS>BOND
     1    1    2 ar   
     2    1    3 ar   
     3    1    4 ar   
     4    1    5 1    
     5    5    6 1    
     6    6    7 ar   
     7    6    8 ar   
     8    6    9 1    
     9    9   10 1    
    10   10   11 1    
    11   11   12 1    
    12   11   13 1    
    13   12   17 1    
    14   13   14 1    
    15   13   15 1    
    16   15   16 1    
    17   15   17 1    
    18   17   18 1    
    19   18   19 1    
    20   18   28 1    
    21   19   20 2    
    22   20   21 1    
    23   21   22 1    
    24   21   28 2    
    25   22   23 2    
    26   22   24 am   
    27   24   25 1    
    28   25   26 1    
    29   25   27 2    
    30   27   28 1    
@<TRIPOS>SUBSTRUCTURE
     1 GDP500      1 GROUP   
@<TRIPOS>SET
ATOM$ORANGE STATIC     ATOMS   COLORGROUP SYSTEM 
20 10 10 11 11 13 13 15 15 17 17 19 19 21 21 22 22 25 \
25 28 28 

