#    Name: 6pta_2_GDP
#    Modification time : Fri May 22 19:25:23 2020

@<TRIPOS>MOLECULE
6pta_2_GDP
   28    30     1     0     1
SMALL
NO_CHARGES


@<TRIPOS>ATOM
      1 PB          6.1160   35.4350   32.1900 P.3       1 GDP500      0.0000 
      2 O1B         6.1510   34.9100   30.7690 O.co2     1 GDP500      0.0000 
      3 O2B         7.3900   35.0320   32.8950 O.co2     1 GDP500      0.0000 
      4 O3B         5.9870   36.9410   32.1980 O.co2     1 GDP500      0.0000 
      5 O3A         4.8650   34.7630   32.9410 O.3       1 GDP500      0.0000 
      6 PA          3.5780   35.6140   33.3970 P.3       1 GDP500      0.0000 
      7 O1A         2.9860   36.3900   32.2460 O.co2     1 GDP500      0.0000 
      8 O2A         3.8890   36.5210   34.5630 O.co2     1 GDP500      0.0000 
      9 O5'         2.6080   34.4260   33.8570 O.3       1 GDP500      0.0000 
     10 C5'         2.2030   33.4420   32.9110 C.3       1 GDP500      0.0000 
     11 C4'         1.1390   32.5980   33.5870 C.3       1 GDP500      0.0000 
     12 O4'         1.6850   31.9750   34.7540 O.3       1 GDP500      0.0000 
     13 C3'         0.0070   33.5010   34.0480 C.3       1 GDP500      0.0000 
     14 O3'        -1.2200   33.0800   33.4490 O.3       1 GDP500      0.0000 
     15 C2'        -0.0620   33.3340   35.5530 C.3       1 GDP500      0.0000 
     16 O2'        -1.4170   33.1930   35.9900 O.3       1 GDP500      0.0000 
     17 C1'         0.7460   32.0760   35.8270 C.3       1 GDP500      0.0000 
     18 N9          1.4360   32.1800   37.1310 N.pl3     1 GDP500      0.0000 
     19 C8          2.3400   33.1100   37.4860 C.2       1 GDP500      0.0000 
     20 N7          2.7760   32.9040   38.7550 N.2       1 GDP500      0.0000 
     21 C5          2.1450   31.8140   39.2270 C.2       1 GDP500      0.0000 
     22 C6          2.1370   31.0450   40.4920 C.2       1 GDP500      0.0000 
     23 O6          2.8620   31.3910   41.4470 O.2       1 GDP500      0.0000 
     24 N1          1.3360   29.9740   40.5740 N.am      1 GDP500      0.0000 
     25 C2          0.5510   29.5850   39.5490 C.2       1 GDP500      0.0000 
     26 N2         -0.2360   28.4930   39.6970 N.pl3     1 GDP500      0.0000 
     27 N3          0.5070   30.2440   38.3650 N.2       1 GDP500      0.0000 
     28 C4          1.2640   31.3430   38.1520 C.2       1 GDP500      0.0000 
@<TRIPOS>BOND
     1    1    2 ar   
     2    1    3 ar   
     3    1    4 ar   
     4    1    5 1    
     5    5    6 1    
     6    6    7 ar   
     7    6    8 ar   
     8    6    9 1    
     9    9   10 1    
    10   10   11 1    
    11   11   12 1    
    12   11   13 1    
    13   12   17 1    
    14   13   14 1    
    15   13   15 1    
    16   15   16 1    
    17   15   17 1    
    18   17   18 1    
    19   18   19 1    
    20   18   28 1    
    21   19   20 2    
    22   20   21 1    
    23   21   22 1    
    24   21   28 2    
    25   22   23 2    
    26   22   24 am   
    27   24   25 1    
    28   25   26 1    
    29   25   27 2    
    30   27   28 1    
@<TRIPOS>SUBSTRUCTURE
     1 GDP500      1 GROUP   
@<TRIPOS>SET
ATOM$ORANGE STATIC     ATOMS   COLORGROUP SYSTEM 
20 10 10 11 11 13 13 15 15 17 17 19 19 21 21 22 22 25 \
25 28 28 

