#    Name: 6qum_2_ADP
#    Modification time : Fri May 22 19:31:28 2020

@<TRIPOS>MOLECULE
6qum_2_ADP
   27    29     1     0     1
SMALL
NO_CHARGES


@<TRIPOS>ATOM
      1 PB         78.0270   81.6840  209.8930 P.3       1 ADP603      0.0000 
      2 O1B        78.1940   81.6430  208.3980 O.co2     1 ADP603      0.0000 
      3 O2B        78.3480   83.0190  210.5100 O.co2     1 ADP603      0.0000 
      4 O3B        78.6280   80.5140  210.6210 O.co2     1 ADP603      0.0000 
      5 PA         75.6020   80.1900  209.8440 P.3       1 ADP603      0.0000 
      6 O1A        74.1330   80.5380  209.8420 O.co2     1 ADP603      0.0000 
      7 O2A        76.0710   79.0990  210.7690 O.co2     1 ADP603      0.0000 
      8 O3A        76.4410   81.5390  210.1240 O.3       1 ADP603      0.0000 
      9 O5'        76.0000   79.7520  208.3510 O.3       1 ADP603      0.0000 
     10 C5'        75.9050   78.3770  207.9970 C.3       1 ADP603      0.0000 
     11 C4'        77.0980   77.9670  207.1550 C.3       1 ADP603      0.0000 
     12 O4'        77.3820   76.5970  207.4130 O.3       1 ADP603      0.0000 
     13 C3'        76.8510   78.0950  205.6600 C.3       1 ADP603      0.0000 
     14 O3'        77.7120   79.0970  205.1210 O.3       1 ADP603      0.0000 
     15 C2'        77.2420   76.7640  205.0620 C.3       1 ADP603      0.0000 
     16 O2'        78.1870   76.9730  204.0140 O.3       1 ADP603      0.0000 
     17 C1'        77.8890   76.0160  206.2150 C.3       1 ADP603      0.0000 
     18 N9         77.6360   74.5550  206.1730 N.pl3     1 ADP603      0.0000 
     19 C8         76.7460   73.9130  205.3990 C.2       1 ADP603      0.0000 
     20 N7         76.7990   72.5760  205.6110 N.2       1 ADP603      0.0000 
     21 C5         77.7430   72.3490  206.5400 C.ar      1 ADP603      0.0000 
     22 C6         78.3090   71.1670  207.2290 C.ar      1 ADP603      0.0000 
     23 N6         77.8630   69.9170  206.9590 N.pl3     1 ADP603      0.0000 
     24 N1         79.2840   71.3750  208.1380 N.ar      1 ADP603      0.0000 
     25 C2         79.7400   72.6040  208.4180 C.ar      1 ADP603      0.0000 
     26 N3         79.2740   73.7170  207.8330 N.ar      1 ADP603      0.0000 
     27 C4         78.2970   73.6560  206.9000 C.ar      1 ADP603      0.0000 
@<TRIPOS>BOND
     1    1    2 ar   
     2    1    3 ar   
     3    1    4 ar   
     4    1    8 1    
     5    5    6 ar   
     6    5    7 ar   
     7    5    8 1    
     8    5    9 1    
     9    9   10 1    
    10   10   11 1    
    11   11   12 1    
    12   11   13 1    
    13   12   17 1    
    14   13   14 1    
    15   13   15 1    
    16   15   16 1    
    17   15   17 1    
    18   17   18 1    
    19   18   19 1    
    20   18   27 1    
    21   19   20 2    
    22   20   21 1    
    23   21   22 ar   
    24   21   27 ar   
    25   22   23 1    
    26   22   24 ar   
    27   24   25 ar   
    28   25   26 ar   
    29   26   27 ar   
@<TRIPOS>SUBSTRUCTURE
     1 ADP603      1 GROUP   
@<TRIPOS>SET
ATOM$ORANGE STATIC     ATOMS   COLORGROUP SYSTEM 
20 10 10 11 11 13 13 15 15 17 17 19 19 21 21 22 22 25 \
25 27 27 

