#    Name: 6qum_1_ADP
#    Modification time : Fri May 22 19:31:15 2020

@<TRIPOS>MOLECULE
6qum_1_ADP
   27    29     1     0     1
SMALL
NO_CHARGES


@<TRIPOS>ATOM
      1 PB         82.8830   95.4840  179.1900 P.3       1 ADP602      0.0000 
      2 O1B        81.8580   96.5090  178.7880 O.co2     1 ADP602      0.0000 
      3 O2B        83.4730   95.6970  180.5560 O.co2     1 ADP602      0.0000 
      4 O3B        82.5010   94.0720  178.8880 O.co2     1 ADP602      0.0000 
      5 PA         84.5100   97.2890  177.9850 P.3       1 ADP602      0.0000 
      6 O1A        83.3610   97.9290  177.2850 O.co2     1 ADP602      0.0000 
      7 O2A        84.9500   97.8640  179.2940 O.co2     1 ADP602      0.0000 
      8 O3A        84.0970   95.7620  178.1880 O.3       1 ADP602      0.0000 
      9 O5'        85.7860   97.2340  177.0180 O.3       1 ADP602      0.0000 
     10 C5'        85.6130   97.0740  175.6240 C.3       1 ADP602      0.0000 
     11 C4'        86.8770   97.3590  174.8170 C.3       1 ADP602      0.0000 
     12 O4'        86.4910   97.4390  173.4410 O.3       1 ADP602      0.0000 
     13 C3'        87.5090   98.7000  175.1260 C.3       1 ADP602      0.0000 
     14 O3'        88.6960   98.5580  175.8870 O.3       1 ADP602      0.0000 
     15 C2'        87.8590   99.2870  173.7820 C.3       1 ADP602      0.0000 
     16 O2'        89.1690   98.8410  173.4120 O.3       1 ADP602      0.0000 
     17 C1'        86.8120   98.7040  172.8580 C.3       1 ADP602      0.0000 
     18 N9         85.6110   99.6000  172.8840 N.pl3     1 ADP602      0.0000 
     19 C8         84.4400   99.3700  173.5130 C.2       1 ADP602      0.0000 
     20 N7         83.5320  100.3420  173.3980 N.2       1 ADP602      0.0000 
     21 C5         84.1120  101.2560  172.6290 C.ar      1 ADP602      0.0000 
     22 C6         83.6750  102.5570  172.1140 C.ar      1 ADP602      0.0000 
     23 N6         82.4380  103.0200  172.4000 N.pl3     1 ADP602      0.0000 
     24 N1         84.5390  103.2350  171.3410 N.ar      1 ADP602      0.0000 
     25 C2         85.7640  102.7540  171.0640 C.ar      1 ADP602      0.0000 
     26 N3         86.2340  101.5750  171.5100 N.ar      1 ADP602      0.0000 
     27 C4         85.4670  100.7840  172.2900 C.ar      1 ADP602      0.0000 
@<TRIPOS>BOND
     1    1    2 ar   
     2    1    3 ar   
     3    1    4 ar   
     4    1    8 1    
     5    5    6 ar   
     6    5    7 ar   
     7    5    8 1    
     8    5    9 1    
     9    9   10 1    
    10   10   11 1    
    11   11   12 1    
    12   11   13 1    
    13   12   17 1    
    14   13   14 1    
    15   13   15 1    
    16   15   16 1    
    17   15   17 1    
    18   17   18 1    
    19   18   19 1    
    20   18   27 1    
    21   19   20 2    
    22   20   21 1    
    23   21   22 ar   
    24   21   27 ar   
    25   22   23 1    
    26   22   24 ar   
    27   24   25 ar   
    28   25   26 ar   
    29   26   27 ar   
@<TRIPOS>SUBSTRUCTURE
     1 ADP602      1 GROUP   
@<TRIPOS>SET
ATOM$ORANGE STATIC     ATOMS   COLORGROUP SYSTEM 
20 10 10 11 11 13 13 15 15 17 17 19 19 21 21 22 22 25 \
25 27 27 

