#    Name: 5ycj_2_IMD
#    Modification time : Fri May 22 19:17:36 2020

@<TRIPOS>MOLECULE
5ycj_2_IMD
    5     5     1     0     0
SMALL
NO_CHARGES


@<TRIPOS>ATOM
      1 N1        -21.0840    6.1610   -9.0520 N.pl3     1 IMD202      0.0000 
      2 C2        -21.5180    6.5610  -10.2740 C.2       1 IMD202      0.0000 
      3 N3        -22.5790    7.3650  -10.0630 N.2       1 IMD202      0.0000 
      4 C4        -22.8160    7.4760   -8.7310 C.2       1 IMD202      0.0000 
      5 C5        -21.8620    6.7020   -8.0740 C.2       1 IMD202      0.0000 
@<TRIPOS>BOND
     1    1    2 1    
     2    1    5 1    
     3    2    3 2    
     4    3    4 1    
     5    4    5 2    
@<TRIPOS>SUBSTRUCTURE
     1 IMD202      1 GROUP   
@<TRIPOS>SET

