#    Name: 5ycj_1_IMD_CAVITY_N1_4
#    Modification time : Fri May 22 19:17:34 2020

@<TRIPOS>MOLECULE
5ycj_1_IMD_CAVITY_N1_4
   49     0     4     0     0
SMALL
NO_CHARGES


@<TRIPOS>ATOM
      1 OG         -6.5500  -14.9900   24.1800 O.3       1 SER1        0.0000 
      2 OG         -7.4700  -13.8300   23.9300 O.3       1 SER1        0.0000 
      3 OG         -6.5700  -16.6800   25.4500 O.3       1 SER1        0.0000 
      4 OG         -7.4900  -15.5300   25.2100 O.3       1 SER1        0.0000 
      5 OG         -9.3900  -16.6100   27.2700 O.3       1 SER1        0.0000 
      6 OG         -7.7100  -13.5800   26.0200 O.3       1 SER1        0.0000 
      7 OG         -6.8100  -16.4300   27.5400 O.3       1 SER1        0.0000 
      8 OG         -7.7400  -15.2800   27.3000 O.3       1 SER1        0.0000 
      9 OG         -8.6800  -15.8200   28.3300 O.3       1 SER1        0.0000 
     10 OG         -6.1100  -15.6500   28.6100 O.3       1 SER1        0.0000 
     11 OG         -7.0300  -14.4900   28.3600 O.3       1 SER1        0.0000 
     12 OG         -7.9500  -13.3300   28.1200 O.3       1 SER1        0.0000 
     13 CZ         -7.9800  -18.2600   23.3300 C.ar      2 PHE5        0.0000 
     14 CZ         -8.9100  -17.1100   23.0800 C.ar      2 PHE5        0.0000 
     15 CZ         -7.2800  -17.4700   24.3900 C.ar      2 PHE5        0.0000 
     16 CZ         -8.2000  -16.3200   24.1400 C.ar      2 PHE5        0.0000 
     17 CZ         -9.1500  -16.8600   25.1700 C.ar      2 PHE5        0.0000 
     18 CZ         -5.6200  -16.1500   24.4200 C.ar      2 PHE5        0.0000 
     19 CZ         -6.6000  -18.3800   26.7200 C.ar      2 PHE5        0.0000 
     20 CZ         -7.5200  -17.2200   26.4800 C.ar      2 PHE5        0.0000 
     21 CZ         -8.4400  -16.0700   26.2400 C.ar      2 PHE5        0.0000 
     22 CZ         -5.8900  -17.5900   27.7900 C.ar      2 PHE5        0.0000 
     23 CZ         -6.8400  -18.1300   28.8200 C.ar      2 PHE5        0.0000 
     24 CZ         -7.7600  -16.9700   28.5700 C.ar      2 PHE5        0.0000 
     25 CZ         -7.7800  -18.6700   29.8500 C.ar      2 PHE5        0.0000 
     26 CA         -9.6100  -17.8900   22.0200 C.3       3 GLY6        0.0000 
     27 CA         -8.8800  -15.4100   21.8100 C.3       3 GLY6        0.0000 
     28 CA         -9.8300  -15.9500   22.8400 C.3       3 GLY6        0.0000 
     29 CA        -10.7800  -16.4900   23.8700 C.3       3 GLY6        0.0000 
     30 CA         -6.3300  -16.9300   23.3600 C.3       3 GLY6        0.0000 
     31 CA         -8.1800  -14.6200   22.8700 C.3       3 GLY6        0.0000 
     32 CA         -9.1000  -13.4600   22.6200 C.3       3 GLY6        0.0000 
     33 CA         -9.1200  -15.1600   23.9000 C.3       3 GLY6        0.0000 
     34 CA        -10.0500  -14.0000   23.6500 C.3       3 GLY6        0.0000 
     35 CA        -10.0700  -15.7000   24.9300 C.3       3 GLY6        0.0000 
     36 CA         -8.3900  -12.6800   23.6900 C.3       3 GLY6        0.0000 
     37 CA         -8.4200  -14.3700   24.9600 C.3       3 GLY6        0.0000 
     38 CA         -9.3400  -13.2100   24.7200 C.3       3 GLY6        0.0000 
     39 CA         -9.3700  -14.9100   25.9900 C.3       3 GLY6        0.0000 
     40 CA        -10.3100  -15.4500   27.0200 C.3       3 GLY6        0.0000 
     41 CA         -8.6300  -12.4300   25.7800 C.3       3 GLY6        0.0000 
     42 CA         -8.6600  -14.1200   27.0500 C.3       3 GLY6        0.0000 
     43 CA         -9.6100  -14.6600   28.0800 C.3       3 GLY6        0.0000 
     44 CA         -7.9300  -11.6400   26.8400 C.3       3 GLY6        0.0000 
     45 CA         -8.8800  -12.1800   27.8700 C.3       3 GLY6        0.0000 
     46 CA         -8.9000  -13.8700   29.1500 C.3       3 GLY6        0.0000 
     47 DU         -7.9600  -16.5700   22.0500 H         4 CUB7        0.0000 
     48 DU         -7.2500  -15.7800   23.1100 H         4 CUB7        0.0000 
     49 DU         -7.9800  -15.0300   29.3900 H         4 CUB7        0.0000 
@<TRIPOS>BOND
@<TRIPOS>SUBSTRUCTURE
     1 SER1        1 GROUP   
     2 PHE5       13 GROUP   
     3 GLY6       26 GROUP   
     4 CUB7       47 GROUP   
@<TRIPOS>SET

