#    Name: 5ycj_1_IMD
#    Modification time : Fri May 22 19:17:34 2020

@<TRIPOS>MOLECULE
5ycj_1_IMD
    5     5     1     0     0
SMALL
NO_CHARGES


@<TRIPOS>ATOM
      1 N1         -8.8660  -15.4260   26.3790 N.pl3     1 IMD202      0.0000 
      2 C2         -9.3380  -15.9610   27.5300 C.2       1 IMD202      0.0000 
      3 N3        -10.3950  -16.7270   27.1910 N.2       1 IMD202      0.0000 
      4 C4        -10.5600  -16.6870   25.8450 C.2       1 IMD202      0.0000 
      5 C5         -9.5940  -15.8520   25.3180 C.2       1 IMD202      0.0000 
@<TRIPOS>BOND
     1    1    2 1    
     2    1    5 1    
     3    2    3 2    
     4    3    4 1    
     5    4    5 2    
@<TRIPOS>SUBSTRUCTURE
     1 IMD202      1 GROUP   
@<TRIPOS>SET

