#    Name: 5ycj_2_IMD_CAVITY_N1_4
#    Modification time : Fri May 22 19:17:36 2020

@<TRIPOS>MOLECULE
5ycj_2_IMD_CAVITY_N1_4
   45     0     4     0     0
SMALL
NO_CHARGES


@<TRIPOS>ATOM
      1 OG        -19.7700    4.0300  -10.8000 O.3       1 SER1        0.0000 
      2 OG        -18.0900    7.0500  -12.0400 O.3       1 SER1        0.0000 
      3 OG        -19.0400    6.5100  -11.0100 O.3       1 SER1        0.0000 
      4 OG        -19.9900    5.9700   -9.9800 O.3       1 SER1        0.0000 
      5 OG        -20.0100    4.2800   -8.7000 O.3       1 SER1        0.0000 
      6 OG        -18.3300    7.3000   -9.9500 O.3       1 SER1        0.0000 
      7 OG        -19.2800    6.7600   -8.9200 O.3       1 SER1        0.0000 
      8 OG        -20.2300    6.2200   -7.8900 O.3       1 SER1        0.0000 
      9 OG        -20.2500    4.5300   -6.6100 O.3       1 SER1        0.0000 
     10 OG        -17.6200    8.0900   -8.8900 O.3       1 SER1        0.0000 
     11 OG        -18.5700    7.5500   -7.8500 O.3       1 SER1        0.0000 
     12 OG        -19.5200    7.0100   -6.8200 O.3       1 SER1        0.0000 
     13 CZ        -18.8200    4.5700  -11.8300 C.ar      2 PHE5        0.0000 
     14 CZ        -20.6700    6.8800  -12.3200 C.ar      2 PHE5        0.0000 
     15 CZ        -19.9400    9.3600  -12.5300 C.ar      2 PHE5        0.0000 
     16 CZ        -19.9600    7.6700  -11.2500 C.ar      2 PHE5        0.0000 
     17 CZ        -20.9100    7.1300  -10.2200 C.ar      2 PHE5        0.0000 
     18 CZ        -22.7800    7.7500   -9.4400 C.ar      2 PHE5        0.0000 
     19 CZ        -19.2500    8.4600  -10.1900 C.ar      2 PHE5        0.0000 
     20 CZ        -20.2000    7.9200   -9.1600 C.ar      2 PHE5        0.0000 
     21 CZ        -21.1500    7.3800   -8.1300 C.ar      2 PHE5        0.0000 
     22 CZ        -18.5500    9.2400   -9.1300 C.ar      2 PHE5        0.0000 
     23 CZ        -18.6000    5.8500   -6.5800 C.ar      2 PHE5        0.0000 
     24 CZ        -20.4400    8.1700   -7.0700 C.ar      2 PHE5        0.0000 
     25 CZ        -19.5400    5.3200   -5.5500 C.ar      2 PHE5        0.0000 
     26 CZ        -21.3900    7.6300   -6.0400 C.ar      2 PHE5        0.0000 
     27 CZ        -22.3100    8.7900   -6.2800 C.ar      2 PHE5        0.0000 
     28 CZ        -19.7400    8.9600   -6.0100 C.ar      2 PHE5        0.0000 
     29 CA        -20.4800    3.2400  -11.8600 C.3       3 GLY6        0.0000 
     30 CA        -21.4200    2.7000  -10.8300 C.3       3 GLY6        0.0000 
     31 CA        -20.6900    5.1800  -11.0400 C.3       3 GLY6        0.0000 
     32 CA        -20.7200    3.4900   -9.7700 C.3       3 GLY6        0.0000 
     33 CA        -20.9300    5.4300   -8.9500 C.3       3 GLY6        0.0000 
     34 CA        -21.8600    6.5900   -9.1900 C.3       3 GLY6        0.0000 
     35 CA        -20.9600    3.7400   -7.6700 C.3       3 GLY6        0.0000 
     36 CA        -21.1700    5.6800   -6.8600 C.3       3 GLY6        0.0000 
     37 CA        -22.1000    6.8400   -7.1000 C.3       3 GLY6        0.0000 
     38 CA        -23.0200    8.0000   -7.3400 C.3       3 GLY6        0.0000 
     39 CA        -21.2000    3.9900   -5.5800 C.3       3 GLY6        0.0000 
     40 CA        -20.4700    6.4700   -5.7900 C.3       3 GLY6        0.0000 
     41 CA        -22.3400    7.0900   -5.0100 C.3       3 GLY6        0.0000 
     42 CA        -18.8100    7.8000   -5.7600 C.3       3 GLY6        0.0000 
     43 CA        -19.7600    7.2600   -4.7300 C.3       3 GLY6        0.0000 
     44 CA        -20.6800    8.4200   -4.9800 C.3       3 GLY6        0.0000 
     45 DU        -19.0100    8.2100  -12.2800 H         4 CUB7        0.0000 
@<TRIPOS>BOND
@<TRIPOS>SUBSTRUCTURE
     1 SER1        1 GROUP   
     2 PHE5       13 GROUP   
     3 GLY6       29 GROUP   
     4 CUB7       45 GROUP   
@<TRIPOS>SET

