#    Name: 5yf1_1_SFG
#    Modification time : Fri May 22 19:12:25 2020

@<TRIPOS>MOLECULE
5yf1_1_SFG
   27    29     1     0     0
SMALL
NO_CHARGES


@<TRIPOS>ATOM
      1 N         -36.5560   54.0000   -4.5080 N.4       1 SFG501      0.0000 
      2 CA        -37.8820   54.0890   -3.9150 C.3       1 SFG501      0.0000 
      3 C         -37.9000   53.2620   -2.6350 C.2       1 SFG501      0.0000 
      4 O         -36.9420   52.4970   -2.3400 O.co2     1 SFG501      0.0000 
      5 OXT       -38.8830   53.3580   -1.8670 O.co2     1 SFG501      0.0000 
      6 CB        -38.9700   53.5960   -4.8740 C.3       1 SFG501      0.0000 
      7 CG        -38.5700   52.2260   -5.4040 C.3       1 SFG501      0.0000 
      8 CD        -39.6580   51.7000   -6.3360 C.3       1 SFG501      0.0000 
      9 NE        -39.7820   50.2800   -6.0790 N.4       1 SFG501      0.0000 
     10 C5'       -39.2500   51.8510   -7.7940 C.3       1 SFG501      0.0000 
     11 C4'       -39.5760   53.2620   -8.3480 C.3       1 SFG501      0.0000 
     12 O4'       -38.9910   53.4290   -9.5180 O.3       1 SFG501      0.0000 
     13 C3'       -41.0880   53.4390   -8.6150 C.3       1 SFG501      0.0000 
     14 O3'       -41.5280   54.5380   -7.9380 O.3       1 SFG501      0.0000 
     15 C2'       -41.1830   53.6360  -10.1530 C.3       1 SFG501      0.0000 
     16 O2'       -42.3430   54.5320  -10.4500 O.3       1 SFG501      0.0000 
     17 C1'       -40.0410   54.1970  -10.4720 C.3       1 SFG501      0.0000 
     18 N9        -39.5950   53.9240  -11.8090 N.pl3     1 SFG501      0.0000 
     19 C8        -39.6340   52.7580  -12.4520 C.2       1 SFG501      0.0000 
     20 N7        -39.0860   52.9230  -13.6530 N.2       1 SFG501      0.0000 
     21 C5        -38.6840   54.1900  -13.7500 C.ar      1 SFG501      0.0000 
     22 C6        -38.0630   54.8680  -14.7680 C.ar      1 SFG501      0.0000 
     23 N6        -37.6720   54.3530  -16.0630 N.pl3     1 SFG501      0.0000 
     24 N1        -37.7520   56.1520  -14.6320 N.ar      1 SFG501      0.0000 
     25 C2        -38.0540   56.7890  -13.4810 C.ar      1 SFG501      0.0000 
     26 N3        -38.6630   56.1130  -12.4730 N.ar      1 SFG501      0.0000 
     27 C4        -38.9840   54.8140  -12.6100 C.ar      1 SFG501      0.0000 
@<TRIPOS>BOND
     1    1    2 1    
     2    2    3 1    
     3    2    6 1    
     4    3    4 ar   
     5    3    5 ar   
     6    6    7 1    
     7    7    8 1    
     8    8    9 1    
     9    8   10 1    
    10   10   11 1    
    11   11   12 1    
    12   11   13 1    
    13   12   17 1    
    14   13   14 1    
    15   13   15 1    
    16   15   16 1    
    17   15   17 1    
    18   17   18 1    
    19   18   19 1    
    20   18   27 1    
    21   19   20 2    
    22   20   21 1    
    23   21   22 ar   
    24   21   27 ar   
    25   22   23 1    
    26   22   24 ar   
    27   24   25 ar   
    28   25   26 ar   
    29   26   27 ar   
@<TRIPOS>SUBSTRUCTURE
     1 SFG501      1 GROUP   
@<TRIPOS>SET

