#    Name: 5yf1_1_SFG_CAVITY_N1_4
#    Modification time : Fri May 22 19:12:26 2020

@<TRIPOS>MOLECULE
5yf1_1_SFG_CAVITY_N1_4
   76     0     6     0     0
SMALL
NO_CHARGES


@<TRIPOS>ATOM
      1 OG        -39.8100   51.7400  -12.7200 O.3       1 SER1        0.0000 
      2 OG        -46.0800   53.9800   -9.2800 O.3       1 SER1        0.0000 
      3 OG        -38.2000   53.2800  -14.0700 O.3       1 SER1        0.0000 
      4 OG        -39.0800   52.9300  -12.1700 O.3       1 SER1        0.0000 
      5 OG        -40.9800   53.0600   -5.9100 O.3       1 SER1        0.0000 
      6 OG        -42.2400   53.5100   -5.2200 O.3       1 SER1        0.0000 
      7 OG        -39.3500   51.8200   -5.3900 O.3       1 SER1        0.0000 
      8 OG        -39.8700   53.4500   -4.1500 O.3       1 SER1        0.0000 
      9 OG        -38.2400   52.2100   -3.6200 O.3       1 SER1        0.0000 
     10 OG        -36.7800   54.5800   -2.5100 O.3       1 SER1        0.0000 
     11 N         -39.2000   50.9800   -7.8400 N.am      2 ALA2        0.0000 
     12 N         -40.4500   51.4300   -7.1600 N.am      2 ALA2        0.0000 
     13 N         -38.8500   52.9700   -8.5000 N.am      2 ALA2        0.0000 
     14 N         -38.4700   52.1700   -7.2900 N.am      2 ALA2        0.0000 
     15 N         -39.7200   52.6200   -6.6000 N.am      2 ALA2        0.0000 
     16 N         -39.0000   53.8000   -6.0400 N.am      2 ALA2        0.0000 
     17 N         -37.3600   52.5600   -5.5200 N.am      2 ALA2        0.0000 
     18 N         -38.6200   53.0100   -4.8300 N.am      2 ALA2        0.0000 
     19 N         -36.6300   53.7400   -4.9700 N.am      2 ALA2        0.0000 
     20 N         -37.8900   54.1900   -4.2800 N.am      2 ALA2        0.0000 
     21 N         -37.5100   53.3900   -3.0700 N.am      2 ALA2        0.0000 
     22 O         -38.7700   53.8400   -2.3800 O.2       2 ALA2        0.0000 
     23 N         -35.9100   54.9300   -4.4100 N.am      2 ALA2        0.0000 
     24 N         -37.1600   55.3800   -3.7200 N.am      2 ALA2        0.0000 
     25 NZ        -41.9700   54.6300  -12.0000 N.4       3 LYS4        0.0000 
     26 NZ        -41.5900   53.8300  -10.7900 N.4       3 LYS4        0.0000 
     27 NZ        -42.8400   54.2800  -10.1000 N.4       3 LYS4        0.0000 
     28 NZ        -41.2100   53.0300   -9.5800 N.4       3 LYS4        0.0000 
     29 NZ        -42.4700   53.4800   -8.8900 N.4       3 LYS4        0.0000 
     30 NZ        -39.6100   54.5700  -10.9200 N.4       3 LYS4        0.0000 
     31 NZ        -40.4800   54.2200   -9.0200 N.4       3 LYS4        0.0000 
     32 NZ        -41.7400   54.6600   -8.3400 N.4       3 LYS4        0.0000 
     33 NZ        -40.1000   53.4200   -7.8100 N.4       3 LYS4        0.0000 
     34 NZ        -41.3600   53.8600   -7.1200 N.4       3 LYS4        0.0000 
     35 CZ        -42.5500   52.6000  -15.0100 C.ar      4 PHE5        0.0000 
     36 CZ        -43.0800   54.2400  -13.7700 C.ar      4 PHE5        0.0000 
     37 CZ        -40.1900   52.5400  -13.9300 C.ar      4 PHE5        0.0000 
     38 CZ        -41.4400   52.9900  -13.2500 C.ar      4 PHE5        0.0000 
     39 CZ        -38.5800   54.0800  -15.2800 C.ar      4 PHE5        0.0000 
     40 CZ        -39.4600   53.7300  -13.3800 C.ar      4 PHE5        0.0000 
     41 CZ        -37.8500   55.2700  -14.7200 C.ar      4 PHE5        0.0000 
     42 CZ        -37.4700   54.4700  -13.5100 C.ar      4 PHE5        0.0000 
     43 CZ        -38.7300   54.9200  -12.8200 C.ar      4 PHE5        0.0000 
     44 CZ        -38.3500   54.1200  -11.6100 C.ar      4 PHE5        0.0000 
     45 CA        -44.6800   52.7000  -12.4300 C.3       5 GLY6        0.0000 
     46 CA        -44.3000   51.9000  -11.2100 C.3       5 GLY6        0.0000 
     47 CA        -45.5600   52.3500  -10.5300 C.3       5 GLY6        0.0000 
     48 CA        -44.3300   54.6900  -13.0800 C.3       5 GLY6        0.0000 
     49 CA        -43.9500   53.8900  -11.8700 C.3       5 GLY6        0.0000 
     50 CA        -43.5700   53.0900  -10.6600 C.3       5 GLY6        0.0000 
     51 CA        -44.8300   53.5400   -9.9700 C.3       5 GLY6        0.0000 
     52 CA        -40.7100   54.1800  -12.6900 C.3       5 GLY6        0.0000 
     53 CA        -43.2200   55.0700  -11.3100 C.3       5 GLY6        0.0000 
     54 CA        -44.1000   54.7200   -9.4100 C.3       5 GLY6        0.0000 
     55 CA        -38.7000   52.1300  -10.9600 C.3       5 GLY6        0.0000 
     56 CA        -39.9600   52.5800  -10.2700 C.3       5 GLY6        0.0000 
     57 CA        -43.7200   53.9200   -8.2000 C.3       5 GLY6        0.0000 
     58 CA        -39.5800   51.7800   -9.0600 C.3       5 GLY6        0.0000 
     59 CA        -43.3400   53.1200   -6.9900 C.3       5 GLY6        0.0000 
     60 CA        -44.6000   53.5700   -6.3000 C.3       5 GLY6        0.0000 
     61 CA        -39.1100   55.7200  -14.0300 C.3       5 GLY6        0.0000 
     62 CA        -39.9800   55.3700  -12.1300 C.3       5 GLY6        0.0000 
     63 CA        -39.2300   53.7700   -9.7100 C.3       5 GLY6        0.0000 
     64 CA        -42.6100   54.3100   -6.4400 C.3       5 GLY6        0.0000 
     65 CA        -40.6300   55.0500   -6.5700 C.3       5 GLY6        0.0000 
     66 CA        -40.2500   54.2500   -5.3600 C.3       5 GLY6        0.0000 
     67 CA        -39.1400   54.6400   -3.5900 C.3       5 GLY6        0.0000 
     68 CA        -35.5300   54.1300   -3.2000 C.3       5 GLY6        0.0000 
     69 DU        -43.9200   51.1000  -10.0000 H         6 CUB7        0.0000 
     70 DU        -42.7000   53.4400  -12.5600 H         6 CUB7        0.0000 
     71 DU        -43.1900   52.2900   -9.4500 H         6 CUB7        0.0000 
     72 DU        -44.4500   52.7400   -8.7600 H         6 CUB7        0.0000 
     73 DU        -44.0700   51.9400   -7.5500 H         6 CUB7        0.0000 
     74 DU        -40.3300   53.3800  -11.4800 H         6 CUB7        0.0000 
     75 DU        -40.8300   52.2300   -8.3700 H         6 CUB7        0.0000 
     76 DU        -42.0900   52.6800   -7.6800 H         6 CUB7        0.0000 
@<TRIPOS>BOND
@<TRIPOS>SUBSTRUCTURE
     1 SER1        1 GROUP   
     2 ALA2       11 GROUP   
     3 LYS4       25 GROUP   
     4 PHE5       35 GROUP   
     5 GLY6       45 GROUP   
     6 CUB7       69 GROUP   
@<TRIPOS>SET

