#    Name: 6c0v_1_ATP
#    Modification time : Fri May 22 19:30:23 2020

@<TRIPOS>MOLECULE
6c0v_1_ATP
   31    33     1     0     1
SMALL
NO_CHARGES


@<TRIPOS>ATOM
      1 PG        170.5990  189.5770  126.0480 P.3       1 ATP1301     0.0000 
      2 O1G       170.8100  190.5370  124.9040 O.co2     1 ATP1301     0.0000 
      3 O2G       171.4850  188.3550  125.9970 O.co2     1 ATP1301     0.0000 
      4 O3G       169.1480  189.2580  126.3110 O.co2     1 ATP1301     0.0000 
      5 PB        170.6020  191.8480  127.7690 P.3       1 ATP1301     0.0000 
      6 O1B       171.1640  192.8240  126.7650 O.co2     1 ATP1301     0.0000 
      7 O2B       169.1170  191.8330  128.0390 O.co2     1 ATP1301     0.0000 
      8 O3B       171.1010  190.3670  127.3670 O.3       1 ATP1301     0.0000 
      9 PA        170.8960  191.4870  130.5590 P.3       1 ATP1301     0.0000 
     10 O1A       170.3560  190.1020  130.2960 O.co2     1 ATP1301     0.0000 
     11 O2A       170.0470  192.4880  131.3020 O.co2     1 ATP1301     0.0000 
     12 O3A       171.3580  192.1410  129.1610 O.3       1 ATP1301     0.0000 
     13 O5'       172.2910  191.3290  131.3450 O.3       1 ATP1301     0.0000 
     14 C5'       173.2390  192.3940  131.4250 C.3       1 ATP1301     0.0000 
     15 C4'       174.4200  191.9730  132.2910 C.3       1 ATP1301     0.0000 
     16 O4'       173.9770  191.7800  133.6360 O.3       1 ATP1301     0.0000 
     17 C3'       175.0540  190.6630  131.8380 C.3       1 ATP1301     0.0000 
     18 O3'       176.4780  190.8050  131.7760 O.3       1 ATP1301     0.0000 
     19 C2'       174.6290  189.6360  132.8750 C.3       1 ATP1301     0.0000 
     20 O2'       175.6580  188.6850  133.1760 O.3       1 ATP1301     0.0000 
     21 C1'       174.2850  190.4640  134.1040 C.3       1 ATP1301     0.0000 
     22 N9        173.1290  189.9300  134.8690 N.pl3     1 ATP1301     0.0000 
     23 C8        171.8650  189.8210  134.4190 C.2       1 ATP1301     0.0000 
     24 N7        171.0550  189.3060  135.3750 N.2       1 ATP1301     0.0000 
     25 C5        171.8010  189.0840  136.4660 C.ar      1 ATP1301     0.0000 
     26 C6        171.5610  188.5560  137.8300 C.ar      1 ATP1301     0.0000 
     27 N6        170.3280  188.1550  138.2130 N.pl3     1 ATP1301     0.0000 
     28 N1        172.6130  188.4900  138.6760 N.ar      1 ATP1301     0.0000 
     29 C2        173.8490  188.8880  138.3100 C.ar      1 ATP1301     0.0000 
     30 N3        174.1310  189.3770  137.0810 N.ar      1 ATP1301     0.0000 
     31 C4        173.1690  189.5020  136.1320 C.ar      1 ATP1301     0.0000 
@<TRIPOS>BOND
     1    1    2 ar   
     2    1    3 ar   
     3    1    4 ar   
     4    1    8 1    
     5    5    6 ar   
     6    5    7 ar   
     7    5    8 1    
     8    5   12 1    
     9    9   10 ar   
    10    9   11 ar   
    11    9   12 1    
    12    9   13 1    
    13   13   14 1    
    14   14   15 1    
    15   15   16 1    
    16   15   17 1    
    17   16   21 1    
    18   17   18 1    
    19   17   19 1    
    20   19   20 1    
    21   19   21 1    
    22   21   22 1    
    23   22   23 1    
    24   22   31 1    
    25   23   24 2    
    26   24   25 1    
    27   25   26 ar   
    28   25   31 ar   
    29   26   27 1    
    30   26   28 ar   
    31   28   29 ar   
    32   29   30 ar   
    33   30   31 ar   
@<TRIPOS>SUBSTRUCTURE
     1 ATP1301     1 GROUP   
@<TRIPOS>SET
ATOM$ORANGE STATIC     ATOMS   COLORGROUP SYSTEM 
20 14 14 15 15 17 17 19 19 21 21 23 23 25 25 26 26 29 \
29 31 31 

