#    Name: 6c0v_1_ATP_CAVITY_N1_4
#    Modification time : Fri May 22 19:30:25 2020

@<TRIPOS>MOLECULE
6c0v_1_ATP_CAVITY_N1_4
  101     0     6     0     0
SMALL
NO_CHARGES


@<TRIPOS>ATOM
      1 OG        169.3900  189.6000  133.1300 O.3       1 SER1        0.0000 
      2 OG        169.9300  190.8400  132.5000 O.3       1 SER1        0.0000 
      3 OG        170.4700  192.0900  131.8700 O.3       1 SER1        0.0000 
      4 OG        171.8500  191.5100  131.9100 O.3       1 SER1        0.0000 
      5 OG        169.6000  190.1900  134.4900 O.3       1 SER1        0.0000 
      6 OG        170.9800  189.6100  134.5300 O.3       1 SER1        0.0000 
      7 OG        171.5200  190.8600  133.9000 O.3       1 SER1        0.0000 
      8 OG        169.2700  189.5500  136.4800 O.3       1 SER1        0.0000 
      9 O         171.9700  191.5600  128.5600 O.2       2 ALA2        0.0000 
     10 N         170.0100  187.1700  132.4500 N.am      2 ALA2        0.0000 
     11 O         174.4100  189.7400  130.6300 O.2       2 ALA2        0.0000 
     12 O         172.1900  192.1500  129.9100 O.2       2 ALA2        0.0000 
     13 O         167.4600  188.9300  133.7300 O.2       2 ALA2        0.0000 
     14 N         170.2200  187.7700  133.8100 N.am      2 ALA2        0.0000 
     15 N         170.7700  189.0100  133.1700 N.am      2 ALA2        0.0000 
     16 N         172.1500  188.4300  133.2100 N.am      2 ALA2        0.0000 
     17 N         172.6900  189.6800  132.5800 N.am      2 ALA2        0.0000 
     18 N         174.0800  189.1000  132.6200 N.am      2 ALA2        0.0000 
     19 N         175.4600  188.5100  132.6600 N.am      2 ALA2        0.0000 
     20 O         174.6200  190.3400  131.9900 O.2       2 ALA2        0.0000 
     21 O         176.0000  189.7600  132.0300 O.2       2 ALA2        0.0000 
     22 N         173.7800  192.1700  131.3100 N.am      2 ALA2        0.0000 
     23 N         175.1600  191.5900  131.3500 N.am      2 ALA2        0.0000 
     24 O         176.5400  191.0100  131.3900 O.2       2 ALA2        0.0000 
     25 N         177.0900  192.2500  130.7600 N.am      2 ALA2        0.0000 
     26 N         179.0100  192.9200  130.1700 N.am      2 ALA2        0.0000 
     27 O         169.0500  188.9500  135.1300 O.2       2 ALA2        0.0000 
     28 N         170.4400  188.3700  135.1700 N.am      2 ALA2        0.0000 
     29 N         172.3600  189.0300  134.5700 N.am      2 ALA2        0.0000 
     30 N         172.9100  190.2800  133.9400 N.am      2 ALA2        0.0000 
     31 N         174.2900  189.6900  133.9800 N.am      2 ALA2        0.0000 
     32 N         175.9200  193.4300  132.0800 N.am      2 ALA2        0.0000 
     33 N         177.3000  192.8500  132.1200 N.am      2 ALA2        0.0000 
     34 N         177.8400  194.1000  131.4900 N.am      2 ALA2        0.0000 
     35 N         172.0300  188.3800  136.5700 N.am      2 ALA2        0.0000 
     36 N         171.7000  187.7300  138.5600 N.am      2 ALA2        0.0000 
     37 N         173.6200  188.4000  137.9700 N.am      2 ALA2        0.0000 
     38 OD1       168.9600  188.4000  130.4200 O.co2     3 ASP3        0.0000 
     39 OD1       169.5100  189.6400  129.7800 O.co2     3 ASP3        0.0000 
     40 OD1       170.0500  190.8900  129.1500 O.co2     3 ASP3        0.0000 
     41 OD1       168.5100  187.7000  135.7600 O.co2     3 ASP3        0.0000 
     42 OD1       175.6700  189.1100  134.0200 O.co2     3 ASP3        0.0000 
     43 OD1       176.2100  190.3600  133.3900 O.co2     3 ASP3        0.0000 
     44 OD1       177.5900  189.7800  133.4300 O.co2     3 ASP3        0.0000 
     45 OD1       168.7200  188.3000  137.1200 O.co2     3 ASP3        0.0000 
     46 OD1       170.1100  187.7200  137.1600 O.co2     3 ASP3        0.0000 
     47 OD1       173.9600  189.0500  135.9700 O.co2     3 ASP3        0.0000 
     48 OD1       174.5000  190.2900  135.3400 O.co2     3 ASP3        0.0000 
     49 OD1       176.4200  190.9600  134.7500 O.co2     3 ASP3        0.0000 
     50 OD1       177.8100  190.3700  134.7900 O.co2     3 ASP3        0.0000 
     51 OD1       174.1700  189.6400  137.3300 O.co2     3 ASP3        0.0000 
     52 OD1       175.7600  189.6600  138.7300 O.co2     3 ASP3        0.0000 
     53 OD1       176.3100  190.9100  138.1000 O.co2     3 ASP3        0.0000 
     54 CZ        177.3800  189.1800  132.0700 C.ar      4 PHE5        0.0000 
     55 CZ        178.4700  191.6700  130.8000 C.ar      4 PHE5        0.0000 
     56 CZ        178.9800  189.1900  133.4700 C.ar      4 PHE5        0.0000 
     57 CZ        178.1400  191.0200  132.7900 C.ar      4 PHE5        0.0000 
     58 CZ        179.5200  190.4400  132.8400 C.ar      4 PHE5        0.0000 
     59 CZ        178.6800  192.2700  132.1600 C.ar      4 PHE5        0.0000 
     60 CZ        180.0600  191.6900  132.2000 C.ar      4 PHE5        0.0000 
     61 CZ        170.6500  188.9600  136.5300 C.ar      4 PHE5        0.0000 
     62 CZ        172.5700  189.6300  135.9300 C.ar      4 PHE5        0.0000 
     63 CZ        173.1200  190.8700  135.3000 C.ar      4 PHE5        0.0000 
     64 CZ        170.3200  188.3200  138.5200 C.ar      4 PHE5        0.0000 
     65 CZ        172.2400  188.9800  137.9200 C.ar      4 PHE5        0.0000 
     66 CZ        174.7100  190.8900  136.7000 C.ar      4 PHE5        0.0000 
     67 CZ        174.9200  191.4900  138.0600 C.ar      4 PHE5        0.0000 
     68 CA        171.4300  190.3100  129.1900 C.3       5 GLY6        0.0000 
     69 CA        169.1700  189.0000  131.7700 C.3       5 GLY6        0.0000 
     70 CA        170.5600  188.4100  131.8100 C.3       5 GLY6        0.0000 
     71 CA        169.7200  190.2400  131.1400 C.3       5 GLY6        0.0000 
     72 CA        171.1000  189.6600  131.1800 C.3       5 GLY6        0.0000 
     73 CA        170.2600  191.4900  130.5100 C.3       5 GLY6        0.0000 
     74 CA        171.6400  190.9100  130.5500 C.3       5 GLY6        0.0000 
     75 CA        173.0200  190.3300  130.5900 C.3       5 GLY6        0.0000 
     76 CA        170.8000  192.7400  129.8700 C.3       5 GLY6        0.0000 
     77 CA        173.5700  191.5700  129.9500 C.3       5 GLY6        0.0000 
     78 CA        174.9500  190.9900  130.0000 C.3       5 GLY6        0.0000 
     79 CA        168.0000  190.1800  133.0900 C.3       5 GLY6        0.0000 
     80 CA        171.0200  193.3300  131.2300 C.3       5 GLY6        0.0000 
     81 CA        172.4000  192.7500  131.2700 C.3       5 GLY6        0.0000 
     82 CA        173.4500  191.5200  133.3100 C.3       5 GLY6        0.0000 
     83 CA        173.9900  192.7700  132.6700 C.3       5 GLY6        0.0000 
     84 CA        175.3700  192.1900  132.7100 C.3       5 GLY6        0.0000 
     85 CA        175.0400  191.5400  134.7100 C.3       5 GLY6        0.0000 
     86 CA        176.9700  192.2000  134.1100 C.3       5 GLY6        0.0000 
     87 CA        178.3500  191.6200  134.1500 C.3       5 GLY6        0.0000 
     88 CA        177.5100  193.4500  133.4800 C.3       5 GLY6        0.0000 
     89 CA        178.8900  192.8700  133.5200 C.3       5 GLY6        0.0000 
     90 CA        176.6400  191.5500  136.1100 C.3       5 GLY6        0.0000 
     91 CA        177.1800  192.8000  135.4700 C.3       5 GLY6        0.0000 
     92 CA        173.8400  189.0000  139.3200 C.3       5 GLY6        0.0000 
     93 CA        174.3800  190.2400  138.6900 C.3       5 GLY6        0.0000 
     94 CA        176.8500  192.1500  137.4600 C.3       5 GLY6        0.0000 
     95 DU        168.6300  187.7500  132.4100 H         6 CUB7        0.0000 
     96 DU        168.8400  188.3500  133.7700 H         6 CUB7        0.0000 
     97 DU        171.3100  190.2600  132.5400 H         6 CUB7        0.0000 
     98 DU        173.2400  190.9200  131.9500 H         6 CUB7        0.0000 
     99 DU        174.8300  190.9400  133.3500 H         6 CUB7        0.0000 
    100 DU        176.7600  191.6000  132.7500 H         6 CUB7        0.0000 
    101 DU        179.2300  193.5100  131.5300 H         6 CUB7        0.0000 
@<TRIPOS>BOND
@<TRIPOS>SUBSTRUCTURE
     1 SER1        1 GROUP   
     2 ALA2        9 GROUP   
     3 ASP3       38 GROUP   
     4 PHE5       54 GROUP   
     5 GLY6       68 GROUP   
     6 CUB7       95 GROUP   
@<TRIPOS>SET

