#    Name: 6c0v_2_ATP
#    Modification time : Fri May 22 19:30:40 2020

@<TRIPOS>MOLECULE
6c0v_2_ATP
   31    33     1     0     1
SMALL
NO_CHARGES


@<TRIPOS>ATOM
      1 PG        158.9950  174.2320  116.7870 P.3       1 ATP1302     0.0000 
      2 O1G       159.6320  174.5550  115.4470 O.co2     1 ATP1302     0.0000 
      3 O2G       159.9690  174.1170  117.9510 O.co2     1 ATP1302     0.0000 
      4 O3G       157.7700  175.0710  117.0970 O.co2     1 ATP1302     0.0000 
      5 PB        159.2590  171.4770  116.1780 P.3       1 ATP1302     0.0000 
      6 O1B       159.4970  171.5630  114.6950 O.co2     1 ATP1302     0.0000 
      7 O2B       160.4370  171.3130  117.1010 O.co2     1 ATP1302     0.0000 
      8 O3B       158.3820  172.7490  116.6320 O.3       1 ATP1302     0.0000 
      9 PA        158.3990  169.3080  117.7010 P.3       1 ATP1302     0.0000 
     10 O1A       159.5650  168.3870  117.4400 O.co2     1 ATP1302     0.0000 
     11 O2A       158.3970  170.1940  118.9230 O.co2     1 ATP1302     0.0000 
     12 O3A       158.2480  170.2520  116.4130 O.3       1 ATP1302     0.0000 
     13 O5'       157.0640  168.4060  117.7230 O.3       1 ATP1302     0.0000 
     14 C5'       155.8760  168.7010  116.9860 C.3       1 ATP1302     0.0000 
     15 C4'       154.6590  168.2950  117.8100 C.3       1 ATP1302     0.0000 
     16 O4'       154.9760  167.1520  118.6150 O.3       1 ATP1302     0.0000 
     17 C3'       154.1890  169.3980  118.7540 C.3       1 ATP1302     0.0000 
     18 O3'       152.8310  169.7470  118.4640 O.3       1 ATP1302     0.0000 
     19 C2'       154.3520  168.8320  120.1540 C.3       1 ATP1302     0.0000 
     20 O2'       153.2330  169.1050  121.0020 O.3       1 ATP1302     0.0000 
     21 C1'       154.5150  167.3350  119.9530 C.3       1 ATP1302     0.0000 
     22 N9        155.4580  166.7660  120.9500 N.pl3     1 ATP1302     0.0000 
     23 C8        156.7910  166.9480  120.9970 C.2       1 ATP1302     0.0000 
     24 N7        157.3300  166.2830  122.0520 N.2       1 ATP1302     0.0000 
     25 C5        156.3320  165.6540  122.6940 C.ar      1 ATP1302     0.0000 
     26 C6        156.1940  164.7780  123.8850 C.ar      1 ATP1302     0.0000 
     27 N6        157.2720  164.4210  124.6180 N.pl3     1 ATP1302     0.0000 
     28 N1        154.9540  164.3390  124.2130 N.ar      1 ATP1302     0.0000 
     29 C2        153.8620  164.6810  123.4930 C.ar      1 ATP1302     0.0000 
     30 N3        153.9250  165.4730  122.4050 N.ar      1 ATP1302     0.0000 
     31 C4        155.1010  165.9800  121.9620 C.ar      1 ATP1302     0.0000 
@<TRIPOS>BOND
     1    1    2 ar   
     2    1    3 ar   
     3    1    4 ar   
     4    1    8 1    
     5    5    6 ar   
     6    5    7 ar   
     7    5    8 1    
     8    5   12 1    
     9    9   10 ar   
    10    9   11 ar   
    11    9   12 1    
    12    9   13 1    
    13   13   14 1    
    14   14   15 1    
    15   15   16 1    
    16   15   17 1    
    17   16   21 1    
    18   17   18 1    
    19   17   19 1    
    20   19   20 1    
    21   19   21 1    
    22   21   22 1    
    23   22   23 1    
    24   22   31 1    
    25   23   24 2    
    26   24   25 1    
    27   25   26 ar   
    28   25   31 ar   
    29   26   27 1    
    30   26   28 ar   
    31   28   29 ar   
    32   29   30 ar   
    33   30   31 ar   
@<TRIPOS>SUBSTRUCTURE
     1 ATP1302     1 GROUP   
@<TRIPOS>SET
ATOM$ORANGE STATIC     ATOMS   COLORGROUP SYSTEM 
20 14 14 15 15 17 17 19 19 21 21 23 23 25 25 26 26 29 \
29 31 31 

