#    Name: 6qqn_2_GTP_CAVITY_N1_6
#    Modification time : Fri May 22 19:25:51 2020

@<TRIPOS>MOLECULE
6qqn_2_GTP_CAVITY_N1_6
   73     0     7     0     0
SMALL
NO_CHARGES


@<TRIPOS>ATOM
      1 OG         19.6000   73.6200   47.4600 O.3       1 SER1        0.0000 
      2 OG         19.0700   72.4000   48.1400 O.3       1 SER1        0.0000 
      3 OG         17.6700   72.9300   48.0000 O.3       1 SER1        0.0000 
      4 OG         19.9200   70.6400   48.9500 O.3       1 SER1        0.0000 
      5 OG         19.7400   74.3000   48.7900 O.3       1 SER1        0.0000 
      6 OG         20.5900   72.5400   49.6000 O.3       1 SER1        0.0000 
      7 OG         19.2000   73.0800   49.4700 O.3       1 SER1        0.0000 
      8 OG         20.0600   71.3200   50.2800 O.3       1 SER1        0.0000 
      9 OG         18.6600   71.8500   50.1500 O.3       1 SER1        0.0000 
     10 OG         24.5900   74.6000   49.8400 O.3       1 SER1        0.0000 
     11 OG         24.0500   73.3700   50.5200 O.3       1 SER1        0.0000 
     12 OG         22.6600   73.9100   50.3900 O.3       1 SER1        0.0000 
     13 OG         19.8700   74.9800   50.1200 O.3       1 SER1        0.0000 
     14 OG         20.7300   73.2200   50.9300 O.3       1 SER1        0.0000 
     15 OG         20.0000   75.6600   51.4500 O.3       1 SER1        0.0000 
     16 OG         19.4700   74.4400   52.1300 O.3       1 SER1        0.0000 
     17 N          20.7300   71.7200   44.9300 N.am      2 ALA2        0.0000 
     18 O          21.5900   69.9600   45.7500 O.2       2 ALA2        0.0000 
     19 N          20.1900   70.5000   45.6100 N.am      2 ALA2        0.0000 
     20 N          20.8600   72.4000   46.2600 N.am      2 ALA2        0.0000 
     21 N          19.4700   72.9400   46.1300 N.am      2 ALA2        0.0000 
     22 N          21.7200   70.6400   47.0800 N.am      2 ALA2        0.0000 
     23 N          20.3300   71.1800   46.9400 N.am      2 ALA2        0.0000 
     24 N          18.9300   71.7100   46.8100 N.am      2 ALA2        0.0000 
     25 O          21.1800   69.4200   47.7600 O.2       2 ALA2        0.0000 
     26 N          23.7900   72.0100   47.8600 N.am      2 ALA2        0.0000 
     27 N          22.3900   72.5500   47.7300 N.am      2 ALA2        0.0000 
     28 N          21.8600   71.3200   48.4100 N.am      2 ALA2        0.0000 
     29 N          22.7100   69.5600   49.2300 N.am      2 ALA2        0.0000 
     30 N          17.1400   71.7100   48.6800 N.am      2 ALA2        0.0000 
     31 N          15.7400   72.2500   48.5500 N.am      2 ALA2        0.0000 
     32 O          21.6700   74.9900   48.2400 O.2       2 ALA2        0.0000 
     33 O          23.2000   75.1300   49.7100 O.2       2 ALA2        0.0000 
     34 O          21.8000   75.6700   49.5700 O.2       2 ALA2        0.0000 
     35 O          20.4100   76.2100   49.4400 O.2       2 ALA2        0.0000 
     36 O          18.9300   73.2200   52.8100 O.2       2 ALA2        0.0000 
     37 N          19.4100   78.7900   53.2900 N.am      2 ALA2        0.0000 
     38 N          18.0200   79.3200   53.1500 N.am      2 ALA2        0.0000 
     39 O          18.8700   77.5600   53.9700 O.2       2 ALA2        0.0000 
     40 OD1        22.2600   71.8700   46.4000 O.co2     3 ASP3        0.0000 
     41 NZ         21.9900   72.0000   49.7400 N.4       4 LYS4        0.0000 
     42 NZ         21.4500   70.7800   50.4200 N.4       4 LYS4        0.0000 
     43 NZ         22.1200   72.6900   51.0700 N.4       4 LYS4        0.0000 
     44 NZ         20.1900   72.0000   51.6100 N.4       4 LYS4        0.0000 
     45 NZ         20.3200   72.6800   52.9400 N.4       4 LYS4        0.0000 
     46 CZ         19.1500   77.4200   50.6300 C.ar      5 PHE5        0.0000 
     47 CZ         19.2800   78.1100   51.9600 C.ar      5 PHE5        0.0000 
     48 CZ         18.7400   76.8800   52.6400 C.ar      5 PHE5        0.0000 
     49 CZ         17.4800   78.1000   53.8400 C.ar      5 PHE5        0.0000 
     50 CA         19.6600   69.2700   46.3000 C.3       6 GLY6        0.0000 
     51 CA         19.7900   69.9500   47.6300 C.3       6 GLY6        0.0000 
     52 CA         18.4000   70.4900   47.4900 C.3       6 GLY6        0.0000 
     53 CA         17.0000   71.0300   47.3500 C.3       6 GLY6        0.0000 
     54 CA         21.3200   70.1000   49.0900 C.3       6 GLY6        0.0000 
     55 CA         18.5300   71.1700   48.8200 C.3       6 GLY6        0.0000 
     56 CA         24.4600   73.9200   48.5100 C.3       6 GLY6        0.0000 
     57 CA         23.0600   74.4500   48.3800 C.3       6 GLY6        0.0000 
     58 CA         23.3800   71.4700   49.8700 C.3       6 GLY6        0.0000 
     59 CA         23.3300   75.8200   51.0400 C.3       6 GLY6        0.0000 
     60 CA         20.5400   76.8900   50.7700 C.3       6 GLY6        0.0000 
     61 CA         22.7900   74.5900   51.7200 C.3       6 GLY6        0.0000 
     62 CA         21.4000   75.1300   51.5800 C.3       6 GLY6        0.0000 
     63 CA         22.2500   73.3700   52.4000 C.3       6 GLY6        0.0000 
     64 CA         21.5300   75.8100   52.9100 C.3       6 GLY6        0.0000 
     65 CA         20.1400   76.3500   52.7800 C.3       6 GLY6        0.0000 
     66 CA         20.9900   74.5900   53.5900 C.3       6 GLY6        0.0000 
     67 CA         20.2700   77.0300   54.1100 C.3       6 GLY6        0.0000 
     68 DU         21.0000   73.0800   47.5900 H         7 CUB7        0.0000 
     69 DU         20.4600   71.8600   48.2700 H         7 CUB7        0.0000 
     70 DU         22.5300   73.2300   49.0600 H         7 CUB7        0.0000 
     71 DU         21.1300   73.7700   48.9200 H         7 CUB7        0.0000 
     72 DU         21.2600   74.4500   50.2500 H         7 CUB7        0.0000 
     73 DU         20.8600   73.9000   52.2600 H         7 CUB7        0.0000 
@<TRIPOS>BOND
@<TRIPOS>SUBSTRUCTURE
     1 SER1        1 GROUP   
     2 ALA2       17 GROUP   
     3 ASP3       40 GROUP   
     4 LYS4       41 GROUP   
     5 PHE5       46 GROUP   
     6 GLY6       50 GROUP   
     7 CUB7       68 GROUP   
@<TRIPOS>SET

