#    Name: 6qqn_6_ACP
#    Modification time : Fri May 22 19:25:57 2020

@<TRIPOS>MOLECULE
6qqn_6_ACP
   31    33     1     0     1
SMALL
NO_CHARGES


@<TRIPOS>ATOM
      1 PG          8.1210   48.3260   94.2330 P.3       1 ACP701      0.0000 
      2 O1G         7.6880   49.1940   95.3500 O.co2     1 ACP701      0.0000 
      3 O2G         6.9780   47.2270   93.9510 O.co2     1 ACP701      0.0000 
      4 O3G         8.3440   49.2090   92.9070 O.co2     1 ACP701      0.0000 
      5 PB         10.6590   48.5140   95.8260 P.3       1 ACP701      0.0000 
      6 O1B        10.4430   49.9440   95.5250 O.co2     1 ACP701      0.0000 
      7 O2B        12.2210   48.1730   95.6380 O.co2     1 ACP701      0.0000 
      8 C3B         9.6800   47.4880   94.6760 C.3       1 ACP701      0.0000 
      9 PA          9.8220   49.4530   98.2040 P.3       1 ACP701      0.0000 
     10 O1A         9.0380   50.4280   97.4140 O.co2     1 ACP701      0.0000 
     11 O2A        11.1550   50.1560   98.7710 O.co2     1 ACP701      0.0000 
     12 O3A        10.2010   48.1460   97.3320 O.3       1 ACP701      0.0000 
     13 O5'         8.9160   48.9940   99.4520 O.3       1 ACP701      0.0000 
     14 C5'         9.0840   47.5870   99.6300 C.3       1 ACP701      0.0000 
     15 C4'         8.3800   47.2030  100.9300 C.3       1 ACP701      0.0000 
     16 O4'         9.0340   47.8880  102.0200 O.3       1 ACP701      0.0000 
     17 C3'         6.9240   47.7080  100.8800 C.3       1 ACP701      0.0000 
     18 O3'         6.0260   46.6020  100.7660 O.3       1 ACP701      0.0000 
     19 C2'         6.6970   48.4650  102.2080 C.3       1 ACP701      0.0000 
     20 O2'         5.6800   47.8160  102.9760 O.3       1 ACP701      0.0000 
     21 C1'         8.0480   48.3930  102.9480 C.3       1 ACP701      0.0000 
     22 N9          8.4850   49.7170  103.3940 N.pl3     1 ACP701      0.0000 
     23 C8          9.2720   50.5710  102.6780 C.2       1 ACP701      0.0000 
     24 N7          9.4880   51.6580  103.3600 N.2       1 ACP701      0.0000 
     25 C5          8.8590   51.5680  104.5560 C.ar      1 ACP701      0.0000 
     26 C6          8.7430   52.4140  105.6700 C.ar      1 ACP701      0.0000 
     27 N6          9.3640   53.6520  105.6790 N.pl3     1 ACP701      0.0000 
     28 N1          8.0270   51.9970  106.7080 N.ar      1 ACP701      0.0000 
     29 C2          7.4340   50.8160  106.7020 C.ar      1 ACP701      0.0000 
     30 N3          7.5130   49.9890  105.6790 N.ar      1 ACP701      0.0000 
     31 C4          8.2090   50.3200  104.5950 C.ar      1 ACP701      0.0000 
@<TRIPOS>BOND
     1    1    2 ar   
     2    1    3 ar   
     3    1    4 ar   
     4    1    8 1    
     5    5    6 ar   
     6    5    7 ar   
     7    5    8 1    
     8    5   12 1    
     9    9   10 ar   
    10    9   11 ar   
    11    9   12 1    
    12    9   13 1    
    13   13   14 1    
    14   14   15 1    
    15   15   16 1    
    16   15   17 1    
    17   16   21 1    
    18   17   18 1    
    19   17   19 1    
    20   19   20 1    
    21   19   21 1    
    22   21   22 1    
    23   22   23 1    
    24   22   31 1    
    25   23   24 2    
    26   24   25 1    
    27   25   26 ar   
    28   25   31 ar   
    29   26   27 1    
    30   26   28 ar   
    31   28   29 ar   
    32   29   30 ar   
    33   30   31 ar   
@<TRIPOS>SUBSTRUCTURE
     1 ACP701      1 GROUP   
@<TRIPOS>SET
ATOM$ORANGE STATIC     ATOMS   COLORGROUP SYSTEM 
22 8 8 14 14 15 15 17 17 19 19 21 21 23 23 25 25 26 \
26 29 29 31 31 

