#    Name: 6qqn_2_GTP
#    Modification time : Fri May 22 19:25:48 2020

@<TRIPOS>MOLECULE
6qqn_2_GTP
   32    34     1     0     1
SMALL
NO_CHARGES


@<TRIPOS>ATOM
      1 PG         27.2420   72.6700   46.0600 P.3       1 GTP501      0.0000 
      2 O1G        28.4520   73.0550   45.2440 O.co2     1 GTP501      0.0000 
      3 O2G        27.2040   71.1720   46.2460 O.co2     1 GTP501      0.0000 
      4 O3G        25.9880   73.1500   45.3610 O.co2     1 GTP501      0.0000 
      5 O3B        27.4230   73.3310   47.5220 O.3       1 GTP501      0.0000 
      6 PB         26.5010   74.5200   48.0920 P.3       1 GTP501      0.0000 
      7 O1B        26.2960   75.5850   47.0450 O.co2     1 GTP501      0.0000 
      8 O2B        27.1540   75.0760   49.3270 O.co2     1 GTP501      0.0000 
      9 O3A        25.1100   73.7700   48.4150 O.3       1 GTP501      0.0000 
     10 PA         23.9370   74.3460   49.3650 P.3       1 GTP501      0.0000 
     11 O1A        22.7180   74.6160   48.5170 O.co2     1 GTP501      0.0000 
     12 O2A        24.3470   75.5830   50.1230 O.co2     1 GTP501      0.0000 
     13 O5'        23.6720   73.1100   50.3560 O.3       1 GTP501      0.0000 
     14 C5'        22.4080   72.5030   50.4860 C.3       1 GTP501      0.0000 
     15 C4'        21.8550   72.7430   51.8850 C.3       1 GTP501      0.0000 
     16 O4'        21.8050   74.1340   52.1290 O.3       1 GTP501      0.0000 
     17 C3'        20.4360   72.2200   51.9920 C.3       1 GTP501      0.0000 
     18 O3'        20.2880   71.6460   53.2710 O.3       1 GTP501      0.0000 
     19 C2'        19.5780   73.4590   51.8480 C.3       1 GTP501      0.0000 
     20 O2'        18.3970   73.3510   52.6010 O.3       1 GTP501      0.0000 
     21 C1'        20.4810   74.5570   52.3800 C.3       1 GTP501      0.0000 
     22 N9         20.2870   75.8300   51.6740 N.pl3     1 GTP501      0.0000 
     23 C8         20.6420   76.1280   50.3850 C.2       1 GTP501      0.0000 
     24 N7         20.3110   77.4180   50.1380 N.2       1 GTP501      0.0000 
     25 C5         19.7650   77.9500   51.2570 C.2       1 GTP501      0.0000 
     26 C6         19.2640   79.2130   51.5610 C.2       1 GTP501      0.0000 
     27 O6         19.2650   80.1110   50.7180 O.2       1 GTP501      0.0000 
     28 N1         18.7640   79.4540   52.8230 N.am      1 GTP501      0.0000 
     29 C2         18.7640   78.4520   53.7700 C.2       1 GTP501      0.0000 
     30 N2         18.2820   78.6840   54.9850 N.pl3     1 GTP501      0.0000 
     31 N3         19.2600   77.2050   53.4660 N.2       1 GTP501      0.0000 
     32 C4         19.7520   76.9600   52.2310 C.2       1 GTP501      0.0000 
@<TRIPOS>BOND
     1    1    2 ar   
     2    1    3 ar   
     3    1    4 ar   
     4    1    5 1    
     5    5    6 1    
     6    6    7 ar   
     7    6    8 ar   
     8    6    9 1    
     9    9   10 1    
    10   10   11 ar   
    11   10   12 ar   
    12   10   13 1    
    13   13   14 1    
    14   14   15 1    
    15   15   16 1    
    16   15   17 1    
    17   16   21 1    
    18   17   18 1    
    19   17   19 1    
    20   19   20 1    
    21   19   21 1    
    22   21   22 1    
    23   22   23 1    
    24   22   32 1    
    25   23   24 2    
    26   24   25 1    
    27   25   26 1    
    28   25   32 2    
    29   26   27 2    
    30   26   28 am   
    31   28   29 1    
    32   29   30 1    
    33   29   31 2    
    34   31   32 1    
@<TRIPOS>SUBSTRUCTURE
     1 GTP501      1 GROUP   
@<TRIPOS>SET
ATOM$ORANGE STATIC     ATOMS   COLORGROUP SYSTEM 
20 14 14 15 15 17 17 19 19 21 21 23 23 25 25 26 26 29 \
29 32 32 

