#    Name: 6nr6_2_ADP_CAVITY_N1_6
#    Modification time : Fri May 22 19:26:16 2020

@<TRIPOS>MOLECULE
6nr6_2_ADP_CAVITY_N1_6
   79     0     7     0     0
SMALL
NO_CHARGES


@<TRIPOS>ATOM
      1 OG         -3.5100  -10.5800  -95.4200 O.3       1 SER1        0.0000 
      2 OG         -5.0400  -12.7800  -93.4000 O.3       1 SER1        0.0000 
      3 OG         -6.4400  -12.4600  -92.9900 O.3       1 SER1        0.0000 
      4 OG         -7.9100  -13.3900  -91.7800 O.3       1 SER1        0.0000 
      5 OG         -4.4600  -10.7800  -93.0100 O.3       1 SER1        0.0000 
      6 OG         -5.9800  -12.9800  -90.9900 O.3       1 SER1        0.0000 
      7 OG         -5.8600  -10.4500  -92.6000 O.3       1 SER1        0.0000 
      8 OG         -5.8000   -9.1900  -93.4000 O.3       1 SER1        0.0000 
      9 OG         -7.3900  -12.6600  -90.5800 O.3       1 SER1        0.0000 
     10 OG         -5.5800  -14.7800  -88.1900 O.3       1 SER1        0.0000 
     11 OG         -5.5200  -13.5100  -88.9900 O.3       1 SER1        0.0000 
     12 OG         -6.9900  -14.4500  -87.7800 O.3       1 SER1        0.0000 
     13 OG         -6.9300  -13.1900  -88.5800 O.3       1 SER1        0.0000 
     14 O          -1.6500  -11.4300  -93.8300 O.2       2 ALA2        0.0000 
     15 O          -1.5900  -10.1700  -94.6300 O.2       2 ALA2        0.0000 
     16 O          -1.1300  -10.7000  -92.6300 O.2       2 ALA2        0.0000 
     17 OD1        -2.9300   -8.5800  -95.0200 O.co2     3 ASP3        0.0000 
     18 OD1        -4.4000   -9.5200  -93.8100 O.co2     3 ASP3        0.0000 
     19 OD1        -4.3400   -8.2500  -94.6200 O.co2     3 ASP3        0.0000 
     20 OD1        -5.7400   -7.9200  -94.2100 O.co2     3 ASP3        0.0000 
     21 OD1        -3.8800   -8.7800  -92.6100 O.co2     3 ASP3        0.0000 
     22 OD1        -5.2200   -7.1900  -93.0100 O.co2     3 ASP3        0.0000 
     23 OD1        -7.0500  -15.7200  -86.9700 O.co2     3 ASP3        0.0000 
     24 OD1        -8.3900  -14.1300  -87.3700 O.co2     3 ASP3        0.0000 
     25 OD1        -3.7200  -15.6300  -86.5900 O.co2     3 ASP3        0.0000 
     26 OD1        -3.6600  -14.3700  -87.4000 O.co2     3 ASP3        0.0000 
     27 OD1        -3.6000  -13.1000  -88.2000 O.co2     3 ASP3        0.0000 
     28 OD1        -3.5400  -11.8400  -89.0000 O.co2     3 ASP3        0.0000 
     29 OD1        -5.1200  -15.3100  -86.1800 O.co2     3 ASP3        0.0000 
     30 OD1        -6.4700  -13.7200  -86.5800 O.co2     3 ASP3        0.0000 
     31 OD1        -3.0800  -12.3700  -87.0000 O.co2     3 ASP3        0.0000 
     32 OD1        -3.0200  -11.1000  -87.8100 O.co2     3 ASP3        0.0000 
     33 OD1        -4.5400  -13.3100  -85.7900 O.co2     3 ASP3        0.0000 
     34 OD1        -5.9500  -12.9800  -85.3800 O.co2     3 ASP3        0.0000 
     35 OD1        -3.9600  -11.3000  -85.3900 O.co2     3 ASP3        0.0000 
     36 NZ         -5.3400   -9.7200  -91.4000 N.4       4 LYS4        0.0000 
     37 NZ         -5.2800   -8.4500  -92.2000 N.4       4 LYS4        0.0000 
     38 NZ         -4.8200   -8.9800  -90.2000 N.4       4 LYS4        0.0000 
     39 NZ         -4.3000   -8.2400  -89.0000 N.4       4 LYS4        0.0000 
     40 CZ         -3.4800  -10.5700  -89.8100 C.ar      5 PHE5        0.0000 
     41 CZ         -3.4200   -9.3100  -90.6100 C.ar      5 PHE5        0.0000 
     42 CZ         -2.9600   -9.8400  -88.6100 C.ar      5 PHE5        0.0000 
     43 CZ         -4.3600   -9.5100  -88.2000 C.ar      5 PHE5        0.0000 
     44 CZ         -3.8400   -8.7700  -87.0000 C.ar      5 PHE5        0.0000 
     45 CA         -2.1700  -12.1700  -95.0300 C.3       6 GLY6        0.0000 
     46 CA         -3.6300  -13.1100  -93.8100 C.3       6 GLY6        0.0000 
     47 CA         -3.5700  -11.8400  -94.6200 C.3       6 GLY6        0.0000 
     48 CA         -5.1000  -14.0500  -92.6000 C.3       6 GLY6        0.0000 
     49 CA         -6.5000  -13.7200  -92.1900 C.3       6 GLY6        0.0000 
     50 CA         -1.7100  -12.7000  -93.0200 C.3       6 GLY6        0.0000 
     51 CA         -3.1700  -13.6400  -91.8100 C.3       6 GLY6        0.0000 
     52 CA         -3.1100  -12.3700  -92.6100 C.3       6 GLY6        0.0000 
     53 CA         -3.0500  -11.1100  -93.4200 C.3       6 GLY6        0.0000 
     54 CA         -2.9900   -9.8400  -94.2200 C.3       6 GLY6        0.0000 
     55 CA         -4.5800  -13.3100  -91.4000 C.3       6 GLY6        0.0000 
     56 CA         -1.1900  -11.9600  -91.8300 C.3       6 GLY6        0.0000 
     57 CA         -2.5900  -11.6400  -91.4200 C.3       6 GLY6        0.0000 
     58 CA         -2.5300  -10.3700  -92.2200 C.3       6 GLY6        0.0000 
     59 CA         -4.2400  -16.3700  -87.7900 C.3       6 GLY6        0.0000 
     60 CA         -4.1800  -15.1100  -88.6000 C.3       6 GLY6        0.0000 
     61 CA         -4.1200  -13.8400  -89.4000 C.3       6 GLY6        0.0000 
     62 CA         -4.0600  -12.5700  -90.2000 C.3       6 GLY6        0.0000 
     63 CA         -5.6400  -16.0400  -87.3800 C.3       6 GLY6        0.0000 
     64 CA         -2.0700  -10.9000  -90.2200 C.3       6 GLY6        0.0000 
     65 CA         -2.0100   -9.6300  -91.0200 C.3       6 GLY6        0.0000 
     66 DU         -4.5200  -12.0500  -92.2000 H         7 CUB7        0.0000 
     67 DU         -5.9200  -11.7200  -91.8000 H         7 CUB7        0.0000 
     68 DU         -4.0000  -11.3100  -91.0100 H         7 CUB7        0.0000 
     69 DU         -3.9400  -10.0400  -91.8100 H         7 CUB7        0.0000 
     70 DU         -5.4600  -12.2500  -89.7900 H         7 CUB7        0.0000 
     71 DU         -5.4000  -10.9800  -90.6000 H         7 CUB7        0.0000 
     72 DU         -5.0600  -14.0400  -86.9900 H         7 CUB7        0.0000 
     73 DU         -5.0000  -12.7800  -87.7900 H         7 CUB7        0.0000 
     74 DU         -4.9400  -11.5100  -88.5900 H         7 CUB7        0.0000 
     75 DU         -4.8800  -10.2500  -89.4000 H         7 CUB7        0.0000 
     76 DU         -6.4100  -12.4500  -87.3800 H         7 CUB7        0.0000 
     77 DU         -4.4800  -12.0400  -86.5900 H         7 CUB7        0.0000 
     78 DU         -4.4200  -10.7800  -87.4000 H         7 CUB7        0.0000 
     79 DU         -3.9000  -10.0400  -86.2000 H         7 CUB7        0.0000 
@<TRIPOS>BOND
@<TRIPOS>SUBSTRUCTURE
     1 SER1        1 GROUP   
     2 ALA2       14 GROUP   
     3 ASP3       17 GROUP   
     4 LYS4       36 GROUP   
     5 PHE5       40 GROUP   
     6 GLY6       45 GROUP   
     7 CUB7       66 GROUP   
@<TRIPOS>SET

