#    Name: 6nr6_2_ADP
#    Modification time : Fri May 22 19:26:15 2020

@<TRIPOS>MOLECULE
6nr6_2_ADP
   27    29     1     0     1
SMALL
NO_CHARGES


@<TRIPOS>ATOM
      1 PB         -3.7100  -16.0920  -86.3530 P.3       1 ADP303      0.0000 
      2 O1B        -2.8340  -16.2190  -87.5750 O.co2     1 ADP303      0.0000 
      3 O2B        -4.1850  -17.4130  -85.7990 O.co2     1 ADP303      0.0000 
      4 O3B        -3.1630  -15.1570  -85.3030 O.co2     1 ADP303      0.0000 
      5 PA         -5.7660  -14.1450  -86.2010 P.3       1 ADP303      0.0000 
      6 O1A        -7.2480  -14.1950  -86.4800 O.co2     1 ADP303      0.0000 
      7 O2A        -5.2570  -14.0500  -84.7820 O.co2     1 ADP303      0.0000 
      8 O3A        -5.0650  -15.4140  -86.9060 O.3       1 ADP303      0.0000 
      9 O5'        -5.1330  -12.9500  -87.0760 O.3       1 ADP303      0.0000 
     10 C5'        -4.3250  -11.9340  -86.4830 C.3       1 ADP303      0.0000 
     11 C4'        -4.0540  -10.8220  -87.4940 C.3       1 ADP303      0.0000 
     12 O4'        -3.8290  -11.3630  -88.8020 O.3       1 ADP303      0.0000 
     13 C3'        -5.2280   -9.8600  -87.6030 C.3       1 ADP303      0.0000 
     14 O3'        -4.9790   -8.6550  -86.8740 O.3       1 ADP303      0.0000 
     15 C2'        -5.3590   -9.5600  -89.0810 C.3       1 ADP303      0.0000 
     16 O2'        -4.8010   -8.2730  -89.3630 O.3       1 ADP303      0.0000 
     17 C1'        -4.5680  -10.6450  -89.7950 C.3       1 ADP303      0.0000 
     18 N9         -5.5500  -11.5690  -90.4140 N.pl3     1 ADP303      0.0000 
     19 C8         -5.7000  -12.8720  -90.1050 C.2       1 ADP303      0.0000 
     20 N7         -6.6880  -13.4400  -90.8410 N.2       1 ADP303      0.0000 
     21 C5         -7.1940  -12.4840  -91.6450 C.ar      1 ADP303      0.0000 
     22 C6         -8.2580  -12.4050  -92.6750 C.ar      1 ADP303      0.0000 
     23 N6         -8.9970  -13.4940  -92.9980 N.pl3     1 ADP303      0.0000 
     24 N1         -8.4670  -11.2130  -93.2800 N.ar      1 ADP303      0.0000 
     25 C2         -7.7400  -10.1240  -92.9680 C.ar      1 ADP303      0.0000 
     26 N3         -6.7610  -10.1230  -92.0450 N.ar      1 ADP303      0.0000 
     27 C4         -6.4410  -11.2520  -91.3610 C.ar      1 ADP303      0.0000 
@<TRIPOS>BOND
     1    1    2 ar   
     2    1    3 ar   
     3    1    4 ar   
     4    1    8 1    
     5    5    6 ar   
     6    5    7 ar   
     7    5    8 1    
     8    5    9 1    
     9    9   10 1    
    10   10   11 1    
    11   11   12 1    
    12   11   13 1    
    13   12   17 1    
    14   13   14 1    
    15   13   15 1    
    16   15   16 1    
    17   15   17 1    
    18   17   18 1    
    19   18   19 1    
    20   18   27 1    
    21   19   20 2    
    22   20   21 1    
    23   21   22 ar   
    24   21   27 ar   
    25   22   23 1    
    26   22   24 ar   
    27   24   25 ar   
    28   25   26 ar   
    29   26   27 ar   
@<TRIPOS>SUBSTRUCTURE
     1 ADP303      1 GROUP   
@<TRIPOS>SET
ATOM$ORANGE STATIC     ATOMS   COLORGROUP SYSTEM 
20 10 10 11 11 13 13 15 15 17 17 19 19 21 21 22 22 25 \
25 27 27 

