#    Name: 6skz_1_AGS
#    Modification time : Fri May 22 19:25:51 2020

@<TRIPOS>MOLECULE
6skz_1_AGS
   31    33     1     0     0
SMALL
NO_CHARGES


@<TRIPOS>ATOM
      1 PG        161.7710  152.5270  260.5750 P.3       1 AGS3001     0.0000 
      2 S1G       162.7410  150.8400  260.6510 S.2       1 AGS3001     0.0000 
      3 O2G       162.2530  153.3690  259.3650 O.3       1 AGS3001     0.0000 
      4 O3G       162.0270  153.3390  261.8780 O.3       1 AGS3001     0.0000 
      5 PB        159.5210  152.7070  259.1220 P.3       1 AGS3001     0.0000 
      6 O1B       160.3240  153.7010  258.3960 O.co2     1 AGS3001     0.0000 
      7 O2B       159.1990  151.4050  258.3960 O.co2     1 AGS3001     0.0000 
      8 O3B       160.2490  152.2640  260.4340 O.3       1 AGS3001     0.0000 
      9 PA        156.8340  152.5610  259.0590 P.3       1 AGS3001     0.0000 
     10 O1A       156.8190  151.2380  259.6870 O.co2     1 AGS3001     0.0000 
     11 O2A       155.6730  153.5010  259.3790 O.co2     1 AGS3001     0.0000 
     12 O3A       158.1340  153.3450  259.4510 O.3       1 AGS3001     0.0000 
     13 O5'       156.8980  152.3060  257.5230 O.3       1 AGS3001     0.0000 
     14 C5'       155.6770  152.0610  256.8150 C.3       1 AGS3001     0.0000 
     15 C4'       155.9950  151.2960  255.5610 C.3       1 AGS3001     0.0000 
     16 O4'       155.2930  151.8770  254.4510 O.3       1 AGS3001     0.0000 
     17 C3'       157.4550  151.3160  255.1440 C.3       1 AGS3001     0.0000 
     18 O3'       157.7730  150.1570  254.3860 O.3       1 AGS3001     0.0000 
     19 C2'       157.5520  152.6000  254.3180 C.3       1 AGS3001     0.0000 
     20 O2'       158.4560  152.4690  253.2320 O.3       1 AGS3001     0.0000 
     21 C1'       156.1420  152.7670  253.7580 C.3       1 AGS3001     0.0000 
     22 N9        155.6250  154.1070  253.9350 N.pl3     1 AGS3001     0.0000 
     23 C8        155.7750  154.9080  255.0300 C.2       1 AGS3001     0.0000 
     24 N7        155.1930  156.0740  254.9200 N.2       1 AGS3001     0.0000 
     25 C5        154.6140  156.0330  253.6650 C.ar      1 AGS3001     0.0000 
     26 C6        153.8450  156.9620  252.9500 C.ar      1 AGS3001     0.0000 
     27 N6        153.5260  158.1690  253.4120 N.pl3     1 AGS3001     0.0000 
     28 N1        153.4310  156.6150  251.7210 N.ar      1 AGS3001     0.0000 
     29 C2        153.7550  155.4120  251.2510 C.ar      1 AGS3001     0.0000 
     30 N3        154.4720  154.4510  251.8320 N.ar      1 AGS3001     0.0000 
     31 C4        154.8680  154.8260  253.0490 C.ar      1 AGS3001     0.0000 
@<TRIPOS>BOND
     1    1    2 2    
     2    1    3 1    
     3    1    4 1    
     4    1    8 1    
     5    5    6 ar   
     6    5    7 ar   
     7    5    8 1    
     8    5   12 1    
     9    9   10 ar   
    10    9   11 ar   
    11    9   12 1    
    12    9   13 1    
    13   13   14 1    
    14   14   15 1    
    15   15   16 1    
    16   15   17 1    
    17   16   21 1    
    18   17   18 1    
    19   17   19 1    
    20   19   20 1    
    21   19   21 1    
    22   21   22 1    
    23   22   23 1    
    24   22   31 1    
    25   23   24 2    
    26   24   25 1    
    27   25   26 ar   
    28   25   31 ar   
    29   26   27 1    
    30   26   28 ar   
    31   28   29 ar   
    32   29   30 ar   
    33   30   31 ar   
@<TRIPOS>SUBSTRUCTURE
     1 AGS3001     1 GROUP   
@<TRIPOS>SET

