#    Name: 6kot_4_UMP
#    Modification time : Fri May 22 19:33:50 2020

@<TRIPOS>MOLECULE
6kot_4_UMP
   20    21     1     0     1
SMALL
NO_CHARGES


@<TRIPOS>ATOM
      1 N1         13.2960  -13.9710    8.7420 N.am      1 UMP703      0.0000 
      2 C2         12.4610  -12.8510    8.7740 C.2       1 UMP703      0.0000 
      3 N3         11.5580  -12.8120    7.7350 N.am      1 UMP703      0.0000 
      4 C4         11.4160  -13.7260    6.7020 C.2       1 UMP703      0.0000 
      5 C5         12.3230  -14.8370    6.7400 C.2       1 UMP703      0.0000 
      6 C6         13.2210  -14.9080    7.7330 C.2       1 UMP703      0.0000 
      7 O2         12.4850  -11.9630    9.6460 O.2       1 UMP703      0.0000 
      8 O4         10.5520  -13.5470    5.8460 O.2       1 UMP703      0.0000 
      9 C1'        14.3560  -14.1310    9.7460 C.3       1 UMP703      0.0000 
     10 C2'        13.9110  -14.3760   11.1750 C.3       1 UMP703      0.0000 
     11 C3'        15.0810  -15.1940   11.7100 C.3       1 UMP703      0.0000 
     12 C4'        15.3740  -16.1030   10.5200 C.3       1 UMP703      0.0000 
     13 O3'        16.2170  -14.3920   12.0220 O.3       1 UMP703      0.0000 
     14 O4'        15.0880  -15.2930    9.3600 O.3       1 UMP703      0.0000 
     15 C5'        14.5590  -17.3730   10.4710 C.3       1 UMP703      0.0000 
     16 O5'        15.3160  -18.4410   11.0880 O.3       1 UMP703      0.0000 
     17 P          14.5700  -19.6180   11.8910 P.3       1 UMP703      0.0000 
     18 OP1        13.9490  -20.5170   10.8340 O.co2     1 UMP703      0.0000 
     19 OP2        13.6060  -18.8770   12.7790 O.co2     1 UMP703      0.0000 
     20 OP3        15.6460  -20.3360   12.6900 O.co2     1 UMP703      0.0000 
@<TRIPOS>BOND
     1    1    2 1    
     2    1    6 1    
     3    1    9 1    
     4    2    3 1    
     5    2    7 2    
     6    3    4 1    
     7    4    5 1    
     8    4    8 2    
     9    5    6 2    
    10    9   10 1    
    11    9   14 1    
    12   10   11 1    
    13   11   12 1    
    14   11   13 1    
    15   12   14 1    
    16   12   15 1    
    17   15   16 1    
    18   16   17 1    
    19   17   18 ar   
    20   17   19 ar   
    21   17   20 ar   
@<TRIPOS>SUBSTRUCTURE
     1 UMP703      1 GROUP   
@<TRIPOS>SET
ATOM$ORANGE STATIC     ATOMS   COLORGROUP SYSTEM 
18 2 2 4 4 5 5 6 6 9 9 10 10 11 11 12 12 15 \
15 

