#    Name: 6kot_2_UMP_CAVITY_N1_4
#    Modification time : Fri May 22 19:33:43 2020

@<TRIPOS>MOLECULE
6kot_2_UMP_CAVITY_N1_4
   66     0     7     0     0
SMALL
NO_CHARGES


@<TRIPOS>ATOM
      1 OG        -20.5500  -19.8700   17.1700 O.3       1 SER1        0.0000 
      2 OG        -20.2500  -18.8100   18.1900 O.3       1 SER1        0.0000 
      3 OG        -18.7900  -18.9000   17.8500 O.3       1 SER1        0.0000 
      4 OG        -15.8800  -19.0800   17.1600 O.3       1 SER1        0.0000 
      5 N         -16.4800  -21.2000   15.1300 N.am      2 ALA2        0.0000 
      6 N         -16.3000  -22.2500   16.1800 N.am      2 ALA2        0.0000 
      7 N         -16.1200  -23.3100   17.2300 N.am      2 ALA2        0.0000 
      8 N         -16.1800  -20.1400   16.1500 N.am      2 ALA2        0.0000 
      9 N         -16.0000  -21.1900   17.2000 N.am      2 ALA2        0.0000 
     10 N         -15.8200  -22.2500   18.2500 N.am      2 ALA2        0.0000 
     11 N         -14.1800  -23.3900   18.9500 N.am      2 ALA2        0.0000 
     12 N         -15.7000  -20.1300   18.2100 N.am      2 ALA2        0.0000 
     13 N         -15.5100  -21.1900   19.2600 N.am      2 ALA2        0.0000 
     14 N         -14.0600  -21.2800   18.9200 N.am      2 ALA2        0.0000 
     15 O         -15.3900  -19.0700   19.2300 O.2       2 ALA2        0.0000 
     16 N         -14.8500  -22.2400   22.3800 N.am      2 ALA2        0.0000 
     17 N         -14.6700  -23.3000   23.4300 N.am      2 ALA2        0.0000 
     18 O         -13.7500  -20.2200   19.9400 O.2       2 ALA2        0.0000 
     19 O         -13.5700  -21.2700   20.9900 O.2       2 ALA2        0.0000 
     20 OD1       -20.6700  -21.9900   17.2000 O.co2     3 ASP3        0.0000 
     21 OD1       -19.2200  -22.0800   16.8600 O.co2     3 ASP3        0.0000 
     22 OD1       -17.7600  -22.1700   16.5200 O.co2     3 ASP3        0.0000 
     23 OD1       -19.2800  -18.9000   15.7800 O.co2     3 ASP3        0.0000 
     24 OD1       -19.1000  -19.9600   16.8300 O.co2     3 ASP3        0.0000 
     25 OD1       -17.8200  -18.9900   15.4400 O.co2     3 ASP3        0.0000 
     26 OD1       -17.6400  -20.0500   16.4900 O.co2     3 ASP3        0.0000 
     27 OD1       -17.5200  -17.9300   16.4600 O.co2     3 ASP3        0.0000 
     28 NZ        -18.1300  -19.9500   20.9600 N.4       4 LYS4        0.0000 
     29 CZ        -13.6900  -23.3900   21.0200 C.ar      5 PHE5        0.0000 
     30 CA        -18.0600  -23.2300   15.5100 C.3       6 GLY6        0.0000 
     31 CA        -16.6000  -23.3100   15.1600 C.3       6 GLY6        0.0000 
     32 CA        -17.5800  -23.2200   17.5700 C.3       6 GLY6        0.0000 
     33 CA        -16.7300  -25.3300   21.7300 C.3       6 GLY6        0.0000 
     34 CA        -18.6100  -19.9600   18.9000 C.3       6 GLY6        0.0000 
     35 CA        -16.4300  -24.2700   22.7500 C.3       6 GLY6        0.0000 
     36 CA        -13.8700  -22.3300   19.9700 C.3       6 GLY6        0.0000 
     37 CA        -18.4900  -17.8400   18.8600 C.3       6 GLY6        0.0000 
     38 CA        -18.3100  -18.8900   19.9100 C.3       6 GLY6        0.0000 
     39 CA        -17.9500  -21.0100   22.0100 C.3       6 GLY6        0.0000 
     40 CA        -17.0300  -17.9300   18.5200 C.3       6 GLY6        0.0000 
     41 CA        -16.8500  -18.9800   19.5700 C.3       6 GLY6        0.0000 
     42 CA        -16.6700  -20.0400   20.6200 C.3       6 GLY6        0.0000 
     43 CA        -16.4900  -21.1000   21.6700 C.3       6 GLY6        0.0000 
     44 CA        -16.3100  -22.1500   22.7200 C.3       6 GLY6        0.0000 
     45 CA        -15.0300  -21.1800   21.3300 C.3       6 GLY6        0.0000 
     46 DU        -19.0300  -23.1300   17.9100 H         7 CUB7        0.0000 
     47 DU        -17.4000  -24.2800   18.6200 H         7 CUB7        0.0000 
     48 DU        -15.7600  -25.4200   19.3300 H         7 CUB7        0.0000 
     49 DU        -20.3700  -20.9300   18.2200 H         7 CUB7        0.0000 
     50 DU        -18.9100  -21.0200   17.8800 H         7 CUB7        0.0000 
     51 DU        -17.4600  -21.1000   17.5400 H         7 CUB7        0.0000 
     52 DU        -17.2700  -22.1600   18.5900 H         7 CUB7        0.0000 
     53 DU        -16.9100  -24.2800   20.6900 H         7 CUB7        0.0000 
     54 DU        -15.6400  -23.3100   19.2900 H         7 CUB7        0.0000 
     55 DU        -14.0000  -24.4500   20.0000 H         7 CUB7        0.0000 
     56 DU        -18.4300  -21.0100   19.9400 H         7 CUB7        0.0000 
     57 DU        -18.2500  -22.0700   20.9900 H         7 CUB7        0.0000 
     58 DU        -17.3400  -18.9900   17.5100 H         7 CUB7        0.0000 
     59 DU        -17.1500  -20.0400   18.5500 H         7 CUB7        0.0000 
     60 DU        -16.9700  -21.1000   19.6000 H         7 CUB7        0.0000 
     61 DU        -16.7900  -22.1600   20.6500 H         7 CUB7        0.0000 
     62 DU        -16.6100  -23.2100   21.7000 H         7 CUB7        0.0000 
     63 DU        -15.3300  -22.2500   20.3100 H         7 CUB7        0.0000 
     64 DU        -15.1500  -23.3000   21.3600 H         7 CUB7        0.0000 
     65 DU        -14.9700  -24.3600   22.4100 H         7 CUB7        0.0000 
     66 DU        -15.2100  -20.1300   20.2800 H         7 CUB7        0.0000 
@<TRIPOS>BOND
@<TRIPOS>SUBSTRUCTURE
     1 SER1        1 GROUP   
     2 ALA2        5 GROUP   
     3 ASP3       20 GROUP   
     4 LYS4       28 GROUP   
     5 PHE5       29 GROUP   
     6 GLY6       30 GROUP   
     7 CUB7       46 GROUP   
@<TRIPOS>SET

