#    Name: 6kot_2_UMP
#    Modification time : Fri May 22 19:33:42 2020

@<TRIPOS>MOLECULE
6kot_2_UMP
   20    21     1     0     1
SMALL
NO_CHARGES


@<TRIPOS>ATOM
      1 N1        -15.4470  -20.5280   19.3850 N.am      1 UMP703      0.0000 
      2 C2        -14.4790  -20.0000   20.2380 C.2       1 UMP703      0.0000 
      3 N3        -13.6120  -20.9430   20.7400 N.am      1 UMP703      0.0000 
      4 C4        -13.6250  -22.3090   20.5210 C.2       1 UMP703      0.0000 
      5 C5        -14.6530  -22.7690   19.6400 C.2       1 UMP703      0.0000 
      6 C6        -15.5150  -21.8810   19.1290 C.2       1 UMP703      0.0000 
      7 O2        -14.3700  -18.8080   20.5430 O.2       1 UMP703      0.0000 
      8 O4        -12.7790  -23.0210   21.0570 O.2       1 UMP703      0.0000 
      9 C1'       -16.4790  -19.6600   18.7660 C.3       1 UMP703      0.0000 
     10 C2'       -15.9950  -18.4850   17.9200 C.3       1 UMP703      0.0000 
     11 C3'       -17.1320  -18.3220   16.9120 C.3       1 UMP703      0.0000 
     12 C4'       -17.5790  -19.7680   16.6810 C.3       1 UMP703      0.0000 
     13 O3'       -18.2310  -17.5610   17.4080 O.3       1 UMP703      0.0000 
     14 O4'       -17.2010  -20.5030   17.8700 O.3       1 UMP703      0.0000 
     15 C5'       -16.9880  -20.4220   15.4520 C.3       1 UMP703      0.0000 
     16 O5'       -16.9250  -19.4070   14.4280 O.3       1 UMP703      0.0000 
     17 P         -16.6760  -19.7500   12.8810 P.3       1 UMP703      0.0000 
     18 OP1       -17.9560  -19.3400   12.1740 O.co2     1 UMP703      0.0000 
     19 OP2       -15.5850  -18.7680   12.6350 O.co2     1 UMP703      0.0000 
     20 OP3       -16.2850  -21.2060   12.6010 O.co2     1 UMP703      0.0000 
@<TRIPOS>BOND
     1    1    2 1    
     2    1    6 1    
     3    1    9 1    
     4    2    3 1    
     5    2    7 2    
     6    3    4 1    
     7    4    5 1    
     8    4    8 2    
     9    5    6 2    
    10    9   10 1    
    11    9   14 1    
    12   10   11 1    
    13   11   12 1    
    14   11   13 1    
    15   12   14 1    
    16   12   15 1    
    17   15   16 1    
    18   16   17 1    
    19   17   18 ar   
    20   17   19 ar   
    21   17   20 ar   
@<TRIPOS>SUBSTRUCTURE
     1 UMP703      1 GROUP   
@<TRIPOS>SET
ATOM$ORANGE STATIC     ATOMS   COLORGROUP SYSTEM 
18 2 2 4 4 5 5 6 6 9 9 10 10 11 11 12 12 15 \
15 

