#    Name: 6kot_4_UMP_CAVITY_N1_4
#    Modification time : Fri May 22 19:33:51 2020

@<TRIPOS>MOLECULE
6kot_4_UMP_CAVITY_N1_4
   77     0     7     0     0
SMALL
NO_CHARGES


@<TRIPOS>ATOM
      1 OG         13.7000  -17.6600   11.3200 O.3       1 SER1        0.0000 
      2 OG         13.8900  -18.7200   12.3700 O.3       1 SER1        0.0000 
      3 OG         13.8300  -15.5400   11.2900 O.3       1 SER1        0.0000 
      4 OG         15.2800  -15.6300   10.9500 O.3       1 SER1        0.0000 
      5 OG         16.7400  -15.7200   10.6100 O.3       1 SER1        0.0000 
      6 N          12.5600  -16.6100    6.1400 N.am      2 ALA2        0.0000 
      7 N          12.8600  -15.5500    7.1600 N.am      2 ALA2        0.0000 
      8 N          13.4000  -18.7200   10.3000 N.am      2 ALA2        0.0000 
      9 N          14.3200  -15.6400    6.8200 N.am      2 ALA2        0.0000 
     10 N          14.5000  -16.7000    7.8700 N.am      2 ALA2        0.0000 
     11 N          14.6800  -17.7500    8.9100 N.am      2 ALA2        0.0000 
     12 O          11.5200  -13.3500    7.4700 O.2       2 ALA2        0.0000 
     13 N          11.7000  -14.4000    8.5200 N.am      2 ALA2        0.0000 
     14 N          12.6100  -11.3200    5.0300 N.am      2 ALA2        0.0000 
     15 N          12.8000  -12.3800    6.0800 N.am      2 ALA2        0.0000 
     16 N          13.1600  -14.4900    8.1700 N.am      2 ALA2        0.0000 
     17 N          14.8000  -15.6400    8.8800 N.am      2 ALA2        0.0000 
     18 N          14.9800  -16.6900    9.9300 N.am      2 ALA2        0.0000 
     19 O          11.8200  -12.2900    8.4800 O.2       2 ALA2        0.0000 
     20 N          12.0000  -13.3400    9.5300 N.am      2 ALA2        0.0000 
     21 N          13.6400  -14.4900   10.2400 N.am      2 ALA2        0.0000 
     22 O          12.1200  -11.2300    9.5000 O.2       2 ALA2        0.0000 
     23 O          12.3100  -12.2800   10.5500 O.2       2 ALA2        0.0000 
     24 O          13.9500  -13.4300   11.2600 O.2       2 ALA2        0.0000 
     25 OD1        14.7400  -20.9300   10.0000 O.co2     3 ASP3        0.0000 
     26 OD1        17.4700  -20.0500    8.2600 O.co2     3 ASP3        0.0000 
     27 OD1        13.5800  -19.7800   11.3500 O.co2     3 ASP3        0.0000 
     28 OD1        14.8600  -18.8100    9.9600 O.co2     3 ASP3        0.0000 
     29 OD1        15.0400  -19.8700   11.0100 O.co2     3 ASP3        0.0000 
     30 OD1        16.3200  -18.9000    9.6200 O.co2     3 ASP3        0.0000 
     31 OD1        17.7800  -18.9900    9.2800 O.co2     3 ASP3        0.0000 
     32 OD1        15.1600  -17.7500   10.9800 O.co2     3 ASP3        0.0000 
     33 OD1        15.3400  -18.8100   12.0300 O.co2     3 ASP3        0.0000 
     34 OD1        16.6200  -17.8400   10.6400 O.co2     3 ASP3        0.0000 
     35 OD1        18.0800  -17.9300   10.3000 O.co2     3 ASP3        0.0000 
     36 NZ         16.2000  -12.5500    7.4600 N.4       4 LYS4        0.0000 
     37 NZ         16.3800  -13.6100    8.5100 N.4       4 LYS4        0.0000 
     38 CZ         15.5900  -14.5700   11.9600 C.ar      5 PHE5        0.0000 
     39 CA         14.0100  -16.7000    5.8000 C.3       6 GLY6        0.0000 
     40 CA         14.1900  -17.7600    6.8500 C.3       6 GLY6        0.0000 
     41 CA         14.3800  -18.8200    7.9000 C.3       6 GLY6        0.0000 
     42 CA         14.5600  -19.8700    8.9500 C.3       6 GLY6        0.0000 
     43 CA         15.4700  -16.7900    5.4600 C.3       6 GLY6        0.0000 
     44 CA         15.6500  -17.8500    6.5100 C.3       6 GLY6        0.0000 
     45 CA         15.8300  -18.9000    7.5600 C.3       6 GLY6        0.0000 
     46 CA         16.0200  -19.9600    8.6100 C.3       6 GLY6        0.0000 
     47 CA         11.2200  -14.4100    6.4500 C.3       6 GLY6        0.0000 
     48 CA         12.9200  -10.2600    6.0400 C.3       6 GLY6        0.0000 
     49 CA         13.1000  -11.3200    7.0900 C.3       6 GLY6        0.0000 
     50 CA         13.2800  -12.3700    8.1400 C.3       6 GLY6        0.0000 
     51 CA         13.4600  -13.4300    9.1900 C.3       6 GLY6        0.0000 
     52 CA         14.5600  -11.4100    6.7500 C.3       6 GLY6        0.0000 
     53 CA         14.7400  -12.4600    7.8000 C.3       6 GLY6        0.0000 
     54 CA         14.9200  -13.5200    8.8500 C.3       6 GLY6        0.0000 
     55 CA         15.1000  -14.5800    9.9000 C.3       6 GLY6        0.0000 
     56 CA         13.5800  -11.3100    9.1600 C.3       6 GLY6        0.0000 
     57 CA         13.7600  -12.3700   10.2100 C.3       6 GLY6        0.0000 
     58 CA         15.0400  -11.4000    8.8200 C.3       6 GLY6        0.0000 
     59 CA         15.4000  -13.5200   10.9100 C.3       6 GLY6        0.0000 
     60 CA         16.8600  -13.6000   10.5700 C.3       6 GLY6        0.0000 
     61 DU         12.3700  -15.5600    5.0900 H         7 CUB7        0.0000 
     62 DU         12.4900  -13.4400    5.0600 H         7 CUB7        0.0000 
     63 DU         12.6800  -14.5000    6.1100 H         7 CUB7        0.0000 
     64 DU         13.9500  -13.5300    4.7200 H         7 CUB7        0.0000 
     65 DU         14.1300  -14.5800    5.7700 H         7 CUB7        0.0000 
     66 DU         15.7700  -15.7300    6.4700 H         7 CUB7        0.0000 
     67 DU         15.9500  -16.7900    7.5200 H         7 CUB7        0.0000 
     68 DU         17.2300  -15.8200    6.1300 H         7 CUB7        0.0000 
     69 DU         17.4100  -16.8700    7.1800 H         7 CUB7        0.0000 
     70 DU         17.5900  -17.9300    8.2300 H         7 CUB7        0.0000 
     71 DU         12.9800  -13.4400    7.1300 H         7 CUB7        0.0000 
     72 DU         14.2500  -12.4700    5.7300 H         7 CUB7        0.0000 
     73 DU         14.4400  -13.5200    6.7800 H         7 CUB7        0.0000 
     74 DU         14.6200  -14.5800    7.8300 H         7 CUB7        0.0000 
     75 DU         16.4400  -16.7800    9.5900 H         7 CUB7        0.0000 
     76 DU         17.9000  -16.8700    9.2500 H         7 CUB7        0.0000 
     77 DU         16.5600  -14.6600    9.5600 H         7 CUB7        0.0000 
@<TRIPOS>BOND
@<TRIPOS>SUBSTRUCTURE
     1 SER1        1 GROUP   
     2 ALA2        6 GROUP   
     3 ASP3       25 GROUP   
     4 LYS4       36 GROUP   
     5 PHE5       38 GROUP   
     6 GLY6       39 GROUP   
     7 CUB7       61 GROUP   
@<TRIPOS>SET

