#    Name: 5zu0_2_SAH
#    Modification time : Fri May 22 19:24:33 2020

@<TRIPOS>MOLECULE
5zu0_2_SAH
   26    28     1     0     0
SMALL
NO_CHARGES


@<TRIPOS>ATOM
      1 N          37.3940   35.8590  175.3140 N.4       1 SAH501      0.0000 
      2 CA         38.7090   35.6140  175.9080 C.3       1 SAH501      0.0000 
      3 CB         39.8060   36.3960  175.1820 C.3       1 SAH501      0.0000 
      4 CG         39.5360   37.8690  174.9650 C.3       1 SAH501      0.0000 
      5 SD         40.9900   38.5630  174.2480 S.3       1 SAH501      0.0000 
      6 C          38.7430   35.9470  177.3740 C.2       1 SAH501      0.0000 
      7 O          38.0610   36.8590  177.8500 O.co2     1 SAH501      0.0000 
      8 OXT        39.4660   35.3070  178.1420 O.co2     1 SAH501      0.0000 
      9 C5'        40.4560   39.0780  172.6350 C.3       1 SAH501      0.0000 
     10 C4'        40.4990   37.9100  171.6540 C.3       1 SAH501      0.0000 
     11 O4'        39.7940   38.2590  170.4540 O.3       1 SAH501      0.0000 
     12 C3'        41.9060   37.4940  171.2110 C.3       1 SAH501      0.0000 
     13 O3'        42.0840   36.0910  171.4270 O.3       1 SAH501      0.0000 
     14 C2'        41.9840   37.8250  169.7310 C.3       1 SAH501      0.0000 
     15 O2'        42.7540   36.8780  168.9840 O.3       1 SAH501      0.0000 
     16 C1'        40.5280   37.7990  169.3100 C.3       1 SAH501      0.0000 
     17 N9         40.2030   38.6510  168.1400 N.pl3     1 SAH501      0.0000 
     18 C8         40.2530   40.0050  168.0970 C.2       1 SAH501      0.0000 
     19 N7         39.8530   40.4560  166.8780 N.2       1 SAH501      0.0000 
     20 C5         39.5250   39.3820  166.1300 C.ar      1 SAH501      0.0000 
     21 C6         39.0340   39.1410  164.7460 C.ar      1 SAH501      0.0000 
     22 N6         38.8010   40.1860  163.9160 N.pl3     1 SAH501      0.0000 
     23 N1         38.8310   37.8480  164.3470 N.ar      1 SAH501      0.0000 
     24 C2         39.0530   36.7940  165.1710 C.ar      1 SAH501      0.0000 
     25 N3         39.5040   36.9430  166.4430 N.ar      1 SAH501      0.0000 
     26 C4         39.7580   38.1850  166.9660 C.ar      1 SAH501      0.0000 
@<TRIPOS>BOND
     1    1    2 1    
     2    2    3 1    
     3    2    6 1    
     4    3    4 1    
     5    4    5 1    
     6    5    9 1    
     7    6    7 ar   
     8    6    8 ar   
     9    9   10 1    
    10   10   11 1    
    11   10   12 1    
    12   11   16 1    
    13   12   13 1    
    14   12   14 1    
    15   14   15 1    
    16   14   16 1    
    17   16   17 1    
    18   17   18 1    
    19   17   26 1    
    20   18   19 2    
    21   19   20 1    
    22   20   21 ar   
    23   20   26 ar   
    24   21   22 1    
    25   21   23 ar   
    26   23   24 ar   
    27   24   25 ar   
    28   25   26 ar   
@<TRIPOS>SUBSTRUCTURE
     1 SAH501      1 GROUP   
@<TRIPOS>SET

