#    Name: 5zu0_3_SAH
#    Modification time : Fri May 22 19:24:40 2020

@<TRIPOS>MOLECULE
5zu0_3_SAH
   26    28     1     0     0
SMALL
NO_CHARGES


@<TRIPOS>ATOM
      1 N          19.9390   20.4910  112.9940 N.4       1 SAH501      0.0000 
      2 CA         19.7750   20.0150  114.3740 C.3       1 SAH501      0.0000 
      3 CB         20.8540   20.5860  115.3020 C.3       1 SAH501      0.0000 
      4 CG         21.0510   22.1230  115.1890 C.3       1 SAH501      0.0000 
      5 SD         22.1700   22.6000  116.4500 S.3       1 SAH501      0.0000 
      6 C          18.4190   20.3690  114.9170 C.2       1 SAH501      0.0000 
      7 O          17.8250   21.4040  114.5820 O.co2     1 SAH501      0.0000 
      8 OXT        17.8760   19.6220  115.7450 O.co2     1 SAH501      0.0000 
      9 C5'        23.5650   23.1790  115.5300 C.3       1 SAH501      0.0000 
     10 C4'        24.4290   22.0210  115.0130 C.3       1 SAH501      0.0000 
     11 O4'        25.3500   22.4760  114.0340 O.3       1 SAH501      0.0000 
     12 C3'        25.2480   21.3430  116.1030 C.3       1 SAH501      0.0000 
     13 O3'        24.9990   19.9230  116.0990 O.3       1 SAH501      0.0000 
     14 C2'        26.7000   21.6630  115.7780 C.3       1 SAH501      0.0000 
     15 O2'        27.5710   20.5820  116.0910 O.3       1 SAH501      0.0000 
     16 C1'        26.6390   21.8930  114.2850 C.3       1 SAH501      0.0000 
     17 N9         27.6950   22.7850  113.7420 N.pl3     1 SAH501      0.0000 
     18 C8         27.8340   24.1040  113.9920 C.2       1 SAH501      0.0000 
     19 N7         28.8880   24.6140  113.3040 N.2       1 SAH501      0.0000 
     20 C5         29.4360   23.6070  112.5930 C.ar      1 SAH501      0.0000 
     21 C6         30.5710   23.4470  111.6440 C.ar      1 SAH501      0.0000 
     22 N6         31.3460   24.5120  111.3330 N.pl3     1 SAH501      0.0000 
     23 N1         30.7940   22.2130  111.1080 N.ar      1 SAH501      0.0000 
     24 C2         30.0210   21.1380  111.4150 C.ar      1 SAH501      0.0000 
     25 N3         28.9760   21.2060  112.2700 N.ar      1 SAH501      0.0000 
     26 C4         28.6430   22.3900  112.8810 C.ar      1 SAH501      0.0000 
@<TRIPOS>BOND
     1    1    2 1    
     2    2    3 1    
     3    2    6 1    
     4    3    4 1    
     5    4    5 1    
     6    5    9 1    
     7    6    7 ar   
     8    6    8 ar   
     9    9   10 1    
    10   10   11 1    
    11   10   12 1    
    12   11   16 1    
    13   12   13 1    
    14   12   14 1    
    15   14   15 1    
    16   14   16 1    
    17   16   17 1    
    18   17   18 1    
    19   17   26 1    
    20   18   19 2    
    21   19   20 1    
    22   20   21 ar   
    23   20   26 ar   
    24   21   22 1    
    25   21   23 ar   
    26   23   24 ar   
    27   24   25 ar   
    28   25   26 ar   
@<TRIPOS>SUBSTRUCTURE
     1 SAH501      1 GROUP   
@<TRIPOS>SET

