#    Name: 5zu0_1_SAH
#    Modification time : Fri May 22 19:24:27 2020

@<TRIPOS>MOLECULE
5zu0_1_SAH
   26    28     1     0     0
SMALL
NO_CHARGES


@<TRIPOS>ATOM
      1 N          12.1940   55.6420  133.8660 N.4       1 SAH501      0.0000 
      2 CA         13.4460   55.2620  133.2210 C.3       1 SAH501      0.0000 
      3 CB         13.5300   55.8400  131.8130 C.3       1 SAH501      0.0000 
      4 CG         13.2580   57.3110  131.6790 C.3       1 SAH501      0.0000 
      5 SD         13.5560   57.7570  129.9890 S.3       1 SAH501      0.0000 
      6 C          14.6590   55.6550  134.0220 C.2       1 SAH501      0.0000 
      7 O          15.6710   54.9630  134.0110 O.co2     1 SAH501      0.0000 
      8 OXT        14.6680   56.6600  134.7100 O.co2     1 SAH501      0.0000 
      9 C5'        11.9700   58.2370  129.3680 C.3       1 SAH501      0.0000 
     10 C4'        11.1510   57.0200  128.9530 C.3       1 SAH501      0.0000 
     11 O4'         9.7760   57.3890  128.7560 O.3       1 SAH501      0.0000 
     12 C3'        11.6100   56.4020  127.6270 C.3       1 SAH501      0.0000 
     13 O3'        11.8540   55.0010  127.8120 O.3       1 SAH501      0.0000 
     14 C2'        10.4660   56.6110  126.6520 C.3       1 SAH501      0.0000 
     15 O2'        10.2920   55.5220  125.7380 O.3       1 SAH501      0.0000 
     16 C1'         9.2690   56.7600  127.5750 C.3       1 SAH501      0.0000 
     17 N9          8.1560   57.5670  127.0230 N.pl3     1 SAH501      0.0000 
     18 C8          8.1870   58.8940  126.7600 C.2       1 SAH501      0.0000 
     19 N7          6.9880   59.3180  126.2790 N.2       1 SAH501      0.0000 
     20 C5          6.1640   58.2490  126.2440 C.ar      1 SAH501      0.0000 
     21 C6          4.7530   57.9850  125.8480 C.ar      1 SAH501      0.0000 
     22 N6          3.9800   58.9990  125.3830 N.pl3     1 SAH501      0.0000 
     23 N1          4.2750   56.7070  125.9640 N.ar      1 SAH501      0.0000 
     24 C2          5.0390   55.6930  126.4310 C.ar      1 SAH501      0.0000 
     25 N3          6.3310   55.8610  126.8060 N.ar      1 SAH501      0.0000 
     26 C4          6.9360   57.0890  126.7410 C.ar      1 SAH501      0.0000 
@<TRIPOS>BOND
     1    1    2 1    
     2    2    3 1    
     3    2    6 1    
     4    3    4 1    
     5    4    5 1    
     6    5    9 1    
     7    6    7 ar   
     8    6    8 ar   
     9    9   10 1    
    10   10   11 1    
    11   10   12 1    
    12   11   16 1    
    13   12   13 1    
    14   12   14 1    
    15   14   15 1    
    16   14   16 1    
    17   16   17 1    
    18   17   18 1    
    19   17   26 1    
    20   18   19 2    
    21   19   20 1    
    22   20   21 ar   
    23   20   26 ar   
    24   21   22 1    
    25   21   23 ar   
    26   23   24 ar   
    27   24   25 ar   
    28   25   26 ar   
@<TRIPOS>SUBSTRUCTURE
     1 SAH501      1 GROUP   
@<TRIPOS>SET

