#    Name: 5o5c_2_PLP_CAVITY_N1_4
#    Modification time : Fri May 22 19:16:16 2020

@<TRIPOS>MOLECULE
5o5c_2_PLP_CAVITY_N1_4
   18     0     4     0     0
SMALL
NO_CHARGES


@<TRIPOS>ATOM
      1 OG        119.6100  160.3200   17.4800 O.3       1 SER1        0.0000 
      2 OG        120.6600  161.3500   17.8000 O.3       1 SER1        0.0000 
      3 OG        121.7300  160.3400   17.5100 O.3       1 SER1        0.0000 
      4 OG        121.7000  159.4800   20.3800 O.3       1 SER1        0.0000 
      5 OG        121.7200  162.8100   16.6800 O.3       1 SER1        0.0000 
      6 OG        123.8100  161.9700   19.5800 O.3       1 SER1        0.0000 
      7 OD1       119.5800  162.3600   18.0900 O.co2     2 ASP3        0.0000 
      8 OD1       119.5700  161.9300   19.5200 O.co2     2 ASP3        0.0000 
      9 OD1       120.6400  160.9200   19.2300 O.co2     2 ASP3        0.0000 
     10 OD1       121.7000  162.3800   18.1200 O.co2     2 ASP3        0.0000 
     11 OD1       122.7600  160.9400   19.2600 O.co2     2 ASP3        0.0000 
     12 CZ        122.7600  158.0500   21.5300 C.ar      3 PHE5        0.0000 
     13 CZ        123.8400  159.9300   18.9800 C.ar      3 PHE5        0.0000 
     14 CZ        123.8200  159.5000   20.4100 C.ar      3 PHE5        0.0000 
     15 CA        119.5900  159.8900   18.9200 C.3       4 GLY6        0.0000 
     16 CA        120.6300  163.3800   18.4100 C.3       4 GLY6        0.0000 
     17 CA        122.7800  161.3700   17.8300 C.3       4 GLY6        0.0000 
     18 CA        123.8000  159.0700   21.8500 C.3       4 GLY6        0.0000 
@<TRIPOS>BOND
@<TRIPOS>SUBSTRUCTURE
     1 SER1        1 GROUP   
     2 ASP3        7 GROUP   
     3 PHE5       12 GROUP   
     4 GLY6       15 GROUP   
@<TRIPOS>SET

