#    Name: 5o5c_2_PLP_CAVITY_N1_6
#    Modification time : Fri May 22 19:16:16 2020

@<TRIPOS>MOLECULE
5o5c_2_PLP_CAVITY_N1_6
   46     0     7     0     0
SMALL
NO_CHARGES


@<TRIPOS>ATOM
      1 OG        119.6500  158.7200   15.4300 O.3       1 SER1        0.0000 
      2 OG        120.7300  157.7200   15.1400 O.3       1 SER1        0.0000 
      3 OG        118.5500  161.7600   16.3300 O.3       1 SER1        0.0000 
      4 OG        119.6100  160.3200   17.4800 O.3       1 SER1        0.0000 
      5 OG        120.7000  159.7500   15.7500 O.3       1 SER1        0.0000 
      6 OG        120.6600  161.3500   17.8000 O.3       1 SER1        0.0000 
      7 OG        121.7300  160.3400   17.5100 O.3       1 SER1        0.0000 
      8 OG        121.7000  159.4800   20.3800 O.3       1 SER1        0.0000 
      9 OG        121.7200  162.8100   16.6800 O.3       1 SER1        0.0000 
     10 OG        123.8100  161.9700   19.5800 O.3       1 SER1        0.0000 
     11 N         120.6600  164.2400   15.5300 N.am      2 ALA2        0.0000 
     12 N         120.6500  163.8100   16.9700 N.am      2 ALA2        0.0000 
     13 N         120.6200  165.8500   17.5800 N.am      2 ALA2        0.0000 
     14 N         120.6000  165.4200   19.0100 N.am      2 ALA2        0.0000 
     15 N         121.6900  164.8400   17.2900 N.am      2 ALA2        0.0000 
     16 OD1       119.5800  162.3600   18.0900 O.co2     3 ASP3        0.0000 
     17 OD1       119.5700  161.9300   19.5200 O.co2     3 ASP3        0.0000 
     18 OD1       120.6400  160.9200   19.2300 O.co2     3 ASP3        0.0000 
     19 OD1       121.7000  162.3800   18.1200 O.co2     3 ASP3        0.0000 
     20 OD1       122.7600  160.9400   19.2600 O.co2     3 ASP3        0.0000 
     21 NZ        120.6900  162.2100   14.9200 N.4       4 LYS4        0.0000 
     22 NZ        121.7400  163.2400   15.2400 N.4       4 LYS4        0.0000 
     23 CZ        122.7600  158.0500   21.5300 C.ar      5 PHE5        0.0000 
     24 CZ        123.8400  159.9300   18.9800 C.ar      5 PHE5        0.0000 
     25 CZ        123.8200  159.5000   20.4100 C.ar      5 PHE5        0.0000 
     26 CA        117.5200  158.2700   16.8400 C.3       6 GLY6        0.0000 
     27 CA        118.5600  159.3000   17.1600 C.3       6 GLY6        0.0000 
     28 CA        117.4600  162.3400   18.0600 C.3       6 GLY6        0.0000 
     29 CA        118.5400  161.3300   17.7700 C.3       6 GLY6        0.0000 
     30 CA        119.5900  159.8900   18.9200 C.3       6 GLY6        0.0000 
     31 CA        120.7200  160.1800   14.3200 C.3       6 GLY6        0.0000 
     32 CA        121.7700  158.7400   15.4600 C.3       6 GLY6        0.0000 
     33 CA        118.5200  163.7900   16.9400 C.3       6 GLY6        0.0000 
     34 CA        118.5100  163.3600   18.3800 C.3       6 GLY6        0.0000 
     35 CA        121.7600  161.2000   14.6300 C.3       6 GLY6        0.0000 
     36 CA        121.7500  160.7700   16.0700 C.3       6 GLY6        0.0000 
     37 CA        119.5700  164.8200   17.2600 C.3       6 GLY6        0.0000 
     38 CA        119.5600  164.3900   18.6900 C.3       6 GLY6        0.0000 
     39 CA        120.6300  163.3800   18.4100 C.3       6 GLY6        0.0000 
     40 CA        122.7800  161.3700   17.8300 C.3       6 GLY6        0.0000 
     41 CA        123.8000  159.0700   21.8500 C.3       6 GLY6        0.0000 
     42 CA        121.6800  164.4100   18.7200 C.3       6 GLY6        0.0000 
     43 DU        118.5800  159.7300   15.7200 H         7 CUB7        0.0000 
     44 DU        119.6300  160.7500   16.0400 H         7 CUB7        0.0000 
     45 DU        119.6000  162.7900   16.6500 H         7 CUB7        0.0000 
     46 DU        120.6700  161.7800   16.3600 H         7 CUB7        0.0000 
@<TRIPOS>BOND
@<TRIPOS>SUBSTRUCTURE
     1 SER1        1 GROUP   
     2 ALA2       11 GROUP   
     3 ASP3       16 GROUP   
     4 LYS4       21 GROUP   
     5 PHE5       23 GROUP   
     6 GLY6       26 GROUP   
     7 CUB7       43 GROUP   
@<TRIPOS>SET

