#    Name: 5o5c_2_PLP
#    Modification time : Fri May 22 19:16:15 2020

@<TRIPOS>MOLECULE
5o5c_2_PLP
   15    15     1     0     0
SMALL
NO_CHARGES


@<TRIPOS>ATOM
      1 N1        122.2210  157.5330   23.1520 N.ar      1 PLP601      0.0000 
      2 C2        121.0140  158.1240   23.0870 C.ar      1 PLP601      0.0000 
      3 C2A       119.8920  157.7470   24.0200 C.3       1 PLP601      0.0000 
      4 C3        120.8270  159.1900   22.0940 C.ar      1 PLP601      0.0000 
      5 O3        119.6250  159.8160   22.0160 O.3       1 PLP601      0.0000 
      6 C4        121.9860  159.5240   21.2170 C.ar      1 PLP601      0.0000 
      7 C4A       121.9020  160.5390   20.1400 C.2       1 PLP601      0.0000 
      8 C5        123.2410  158.8020   21.3940 C.ar      1 PLP601      0.0000 
      9 C6        123.2850  157.8240   22.3800 C.ar      1 PLP601      0.0000 
     10 C5A       124.4290  159.1620   20.5320 C.3       1 PLP601      0.0000 
     11 O4P       124.8500  160.4800   20.9360 O.3       1 PLP601      0.0000 
     12 P         125.7810  161.4670   20.0520 P.3       1 PLP601      0.0000 
     13 O1P       124.9120  162.0250   18.9280 O.co2     1 PLP601      0.0000 
     14 O2P       126.8860  160.5840   19.5600 O.co2     1 PLP601      0.0000 
     15 O3P       126.2390  162.5370   21.0310 O.co2     1 PLP601      0.0000 
@<TRIPOS>BOND
     1    1    2 ar   
     2    1    9 ar   
     3    2    3 1    
     4    2    4 ar   
     5    4    5 1    
     6    4    6 ar   
     7    6    7 1    
     8    6    8 ar   
     9    8    9 ar   
    10    8   10 1    
    11   10   11 1    
    12   11   12 1    
    13   12   13 ar   
    14   12   14 ar   
    15   12   15 ar   
@<TRIPOS>SUBSTRUCTURE
     1 PLP601      1 GROUP   
@<TRIPOS>SET

