#    Name: 5o5c_2_PLP_CAVITY_N1_8
#    Modification time : Fri May 22 19:16:16 2020

@<TRIPOS>MOLECULE
5o5c_2_PLP_CAVITY_N1_8
   71     0     7     0     0
SMALL
NO_CHARGES


@<TRIPOS>ATOM
      1 OG        116.4500  162.1700   14.8600 O.3       1 SER1        0.0000 
      2 OG        117.5200  161.1700   14.5700 O.3       1 SER1        0.0000 
      3 OG        119.6500  158.7200   15.4300 O.3       1 SER1        0.0000 
      4 OG        120.7300  157.7200   15.1400 O.3       1 SER1        0.0000 
      5 OG        117.4800  162.7700   16.6200 O.3       1 SER1        0.0000 
      6 OG        118.5700  162.1900   14.8900 O.3       1 SER1        0.0000 
      7 OG        118.5500  161.7600   16.3300 O.3       1 SER1        0.0000 
      8 OG        119.6100  160.3200   17.4800 O.3       1 SER1        0.0000 
      9 OG        120.7000  159.7500   15.7500 O.3       1 SER1        0.0000 
     10 OG        119.6200  163.2200   15.2100 O.3       1 SER1        0.0000 
     11 OG        120.6600  161.3500   17.8000 O.3       1 SER1        0.0000 
     12 OG        121.7300  160.3400   17.5100 O.3       1 SER1        0.0000 
     13 OG        121.7000  159.4800   20.3800 O.3       1 SER1        0.0000 
     14 OG        121.7200  162.8100   16.6800 O.3       1 SER1        0.0000 
     15 OG        123.8100  161.9700   19.5800 O.3       1 SER1        0.0000 
     16 O         119.6300  163.6500   13.7800 O.2       2 ALA2        0.0000 
     17 N         120.6600  164.2400   15.5300 N.am      2 ALA2        0.0000 
     18 N         120.6500  163.8100   16.9700 N.am      2 ALA2        0.0000 
     19 N         120.6200  165.8500   17.5800 N.am      2 ALA2        0.0000 
     20 N         120.6000  165.4200   19.0100 N.am      2 ALA2        0.0000 
     21 N         121.6900  164.8400   17.2900 N.am      2 ALA2        0.0000 
     22 OD1       115.3800  160.7200   15.9800 O.co2     3 ASP3        0.0000 
     23 OD1       116.4300  161.7400   16.3000 O.co2     3 ASP3        0.0000 
     24 OD1       119.5800  162.3600   18.0900 O.co2     3 ASP3        0.0000 
     25 OD1       119.5700  161.9300   19.5200 O.co2     3 ASP3        0.0000 
     26 OD1       120.6400  160.9200   19.2300 O.co2     3 ASP3        0.0000 
     27 OD1       121.7000  162.3800   18.1200 O.co2     3 ASP3        0.0000 
     28 OD1       122.7600  160.9400   19.2600 O.co2     3 ASP3        0.0000 
     29 NZ        115.4100  158.6800   15.3700 N.4       4 LYS4        0.0000 
     30 NZ        120.7100  162.6400   13.4900 N.4       4 LYS4        0.0000 
     31 NZ        120.6900  162.2100   14.9200 N.4       4 LYS4        0.0000 
     32 NZ        121.7800  161.6300   13.2000 N.4       4 LYS4        0.0000 
     33 NZ        121.7400  163.2400   15.2400 N.4       4 LYS4        0.0000 
     34 CZ        118.5800  162.6200   13.4600 C.ar      5 PHE5        0.0000 
     35 CZ        122.7600  158.0500   21.5300 C.ar      5 PHE5        0.0000 
     36 CZ        123.8400  159.9300   18.9800 C.ar      5 PHE5        0.0000 
     37 CZ        123.8200  159.5000   20.4100 C.ar      5 PHE5        0.0000 
     38 CA        116.4600  159.7100   15.6900 C.3       6 GLY6        0.0000 
     39 CA        117.5200  158.2700   16.8400 C.3       6 GLY6        0.0000 
     40 CA        117.5100  160.7400   16.0100 C.3       6 GLY6        0.0000 
     41 CA        118.5600  159.3000   17.1600 C.3       6 GLY6        0.0000 
     42 CA        117.4600  162.3400   18.0600 C.3       6 GLY6        0.0000 
     43 CA        118.5400  161.3300   17.7700 C.3       6 GLY6        0.0000 
     44 CA        119.5900  159.8900   18.9200 C.3       6 GLY6        0.0000 
     45 CA        120.7200  160.1800   14.3200 C.3       6 GLY6        0.0000 
     46 CA        121.8100  159.6000   12.5900 C.3       6 GLY6        0.0000 
     47 CA        121.7900  159.1700   14.0300 C.3       6 GLY6        0.0000 
     48 CA        121.7700  158.7400   15.4600 C.3       6 GLY6        0.0000 
     49 CA        122.8800  158.6000   12.3000 C.3       6 GLY6        0.0000 
     50 CA        118.5200  163.7900   16.9400 C.3       6 GLY6        0.0000 
     51 CA        118.5100  163.3600   18.3800 C.3       6 GLY6        0.0000 
     52 CA        121.7600  161.2000   14.6300 C.3       6 GLY6        0.0000 
     53 CA        121.7500  160.7700   16.0700 C.3       6 GLY6        0.0000 
     54 CA        122.8500  160.6300   12.9100 C.3       6 GLY6        0.0000 
     55 CA        119.5700  164.8200   17.2600 C.3       6 GLY6        0.0000 
     56 CA        119.5600  164.3900   18.6900 C.3       6 GLY6        0.0000 
     57 CA        120.6300  163.3800   18.4100 C.3       6 GLY6        0.0000 
     58 CA        122.7800  161.3700   17.8300 C.3       6 GLY6        0.0000 
     59 CA        123.8000  159.0700   21.8500 C.3       6 GLY6        0.0000 
     60 CA        121.6800  164.4100   18.7200 C.3       6 GLY6        0.0000 
     61 DU        117.5300  158.7000   15.4000 H         7 CUB7        0.0000 
     62 DU        118.6100  160.5900   12.8500 H         7 CUB7        0.0000 
     63 DU        118.6000  160.1600   14.2900 H         7 CUB7        0.0000 
     64 DU        118.5800  159.7300   15.7200 H         7 CUB7        0.0000 
     65 DU        119.6700  159.1500   14.0000 H         7 CUB7        0.0000 
     66 DU        119.6600  161.6100   13.1700 H         7 CUB7        0.0000 
     67 DU        119.6400  161.1800   14.6000 H         7 CUB7        0.0000 
     68 DU        119.6300  160.7500   16.0400 H         7 CUB7        0.0000 
     69 DU        120.7300  160.6100   12.8800 H         7 CUB7        0.0000 
     70 DU        119.6000  162.7900   16.6500 H         7 CUB7        0.0000 
     71 DU        120.6700  161.7800   16.3600 H         7 CUB7        0.0000 
@<TRIPOS>BOND
@<TRIPOS>SUBSTRUCTURE
     1 SER1        1 GROUP   
     2 ALA2       16 GROUP   
     3 ASP3       22 GROUP   
     4 LYS4       29 GROUP   
     5 PHE5       34 GROUP   
     6 GLY6       38 GROUP   
     7 CUB7       61 GROUP   
@<TRIPOS>SET

