#    Name: 6oxq_1_F53
#    Modification time : Fri May 22 19:25:21 2020

@<TRIPOS>MOLECULE
6oxq_1_F53
   83    86     1     0     0
SMALL
NO_CHARGES


@<TRIPOS>ATOM
      1 C1         65.1720   51.2710   12.8400 C.3       1 F53101      0.0000 
      2 O1         65.7250   51.2780   11.5570 O.3       1 F53101      0.0000 
      3 C2         66.1050   52.1340   13.6930 C.ar      1 F53101      0.0000 
      4 C3         67.2760   51.4630   14.4270 C.ar      1 F53101      0.0000 
      5 C4         68.2230   52.3220   15.2710 C.ar      1 F53101      0.0000 
      6 C5         67.9750   53.8290   15.3470 C.ar      1 F53101      0.0000 
      7 C6         66.8220   54.5120   14.6080 C.ar      1 F53101      0.0000 
      8 C7         65.8730   53.6500   13.7670 C.ar      1 F53101      0.0000 
      9 O8         73.5780   62.7030   19.7150 O.3       1 F53101      0.0000 
     10 S8         69.1180   54.8400   16.3430 S.o2      1 F53101      0.0000 
     11 O9         68.4070   55.9150   17.0240 O.2       1 F53101      0.0000 
     12 O10        69.7320   54.0090   17.3880 O.2       1 F53101      0.0000 
     13 N11        70.3090   55.4600   15.2330 N.pl3     1 F53101      0.0000 
     14 C12        70.9620   54.4050   14.3910 C.3       1 F53101      0.0000 
     15 C13        72.5310   54.4970   14.5210 C.3       1 F53101      0.0000 
     16 C14        73.1950   53.4450   13.5970 C.3       1 F53101      0.0000 
     17 C15        72.9210   54.3060   16.0070 C.3       1 F53101      0.0000 
     18 C16        69.9480   56.7480   14.5820 C.3       1 F53101      0.0000 
     19 C17        70.8900   57.8450   15.1210 C.3       1 F53101      0.0000 
     20 C18        74.4340   54.4020   16.1820 C.3       1 F53101      0.0000 
     21 O18        70.7900   58.9800   14.3440 O.3       1 F53101      0.0000 
     22 C19        70.5330   58.1830   16.5830 C.3       1 F53101      0.0000 
     23 C20        72.8550   51.9960   14.0120 C.3       1 F53101      0.0000 
     24 N20        71.5330   59.0990   17.0660 N.am      1 F53101      0.0000 
     25 C21        72.5180   58.7070   18.0840 C.2       1 F53101      0.0000 
     26 O22        72.5090   57.6450   18.6250 O.2       1 F53101      0.0000 
     27 O23        73.4820   59.7070   18.3790 O.3       1 F53101      0.0000 
     28 C24        74.2520   59.5560   19.5790 C.3       1 F53101      0.0000 
     29 C25        75.7020   60.0910   19.2000 C.3       1 F53101      0.0000 
     30 O26        75.4100   61.6560   19.1240 O.3       1 F53101      0.0000 
     31 C27        74.5290   61.9030   20.1210 C.3       1 F53101      0.0000 
     32 C29        72.1980   61.8530   19.7320 C.3       1 F53101      0.0000 
     33 C30        72.5100   60.6200   20.6270 C.3       1 F53101      0.0000 
     34 C31        73.8500   60.4170   20.5520 C.3       1 F53101      0.0000 
     35 C32        69.1960   58.9140   16.6860 C.3       1 F53101      0.0000 
     36 C33        68.6390   58.2880   19.2180 C.ar      1 F53101      0.0000 
     37 C34        68.4340   58.6930   20.6850 C.ar      1 F53101      0.0000 
     38 C35        68.5900   60.1600   21.1010 C.ar      1 F53101      0.0000 
     39 C36        68.9480   61.2200   20.0560 C.ar      1 F53101      0.0000 
     40 C37        69.1500   60.8180   18.5960 C.ar      1 F53101      0.0000 
     41 C38        68.9920   59.3430   18.1750 C.ar      1 F53101      0.0000 
     42 H1         65.1420   50.3650   13.1870 H         1 F53101      0.0000 
     43 H1A        64.2820   51.6540   12.8240 H         1 F53101      0.0000 
     44 HO1        66.4440   50.8250   11.5560 H         1 F53101      0.0000 
     45 H3         67.4030   50.5440   14.3670 H         1 F53101      0.0000 
     46 H4         68.9350   51.9350   15.7270 H         1 F53101      0.0000 
     47 H6         66.6960   55.4320   14.6710 H         1 F53101      0.0000 
     48 H7         65.1630   54.0400   13.3100 H         1 F53101      0.0000 
     49 H12        70.6660   53.5300   14.6870 H         1 F53101      0.0000 
     50 H12A       70.7080   54.5320   13.4630 H         1 F53101      0.0000 
     51 H13        72.8140   55.3800   14.2380 H         1 F53101      0.0000 
     52 H14        72.8910   53.5900   12.6870 H         1 F53101      0.0000 
     53 H14A       74.1570   53.5630   13.6290 H         1 F53101      0.0000 
     54 H15        72.4940   54.9950   16.5400 H         1 F53101      0.0000 
     55 H15A       72.6180   53.4350   16.3090 H         1 F53101      0.0000 
     56 H16        69.0290   56.9740   14.7920 H         1 F53101      0.0000 
     57 H16A       70.0540   56.6690   13.6210 H         1 F53101      0.0000 
     58 H17        71.8040   57.5200   15.0880 H         1 F53101      0.0000 
     59 H18        74.7610   55.2040   15.7440 H         1 F53101      0.0000 
     60 H18A       74.8560   53.6230   15.7860 H         1 F53101      0.0000 
     61 H18B       74.6480   54.4400   17.1270 H         1 F53101      0.0000 
     62 HO18       71.0860   58.8160   13.5640 H         1 F53101      0.0000 
     63 H19        70.5220   57.3780   17.1240 H         1 F53101      0.0000 
     64 H20        73.3670   51.7570   14.8010 H         1 F53101      0.0000 
     65 H20A       71.9080   51.9290   14.2080 H         1 F53101      0.0000 
     66 H20B       73.0790   51.3910   13.2870 H         1 F53101      0.0000 
     67 HN20       71.5540   59.8980   16.7490 H         1 F53101      0.0000 
     68 H24        74.2750   58.6380   19.8920 H         1 F53101      0.0000 
     69 H25        75.9780   59.7450   18.3370 H         1 F53101      0.0000 
     70 H25A       76.3460   59.8860   19.8960 H         1 F53101      0.0000 
     71 H27        74.9880   62.2920   20.8820 H         1 F53101      0.0000 
     72 H29        71.9660   61.5680   18.8350 H         1 F53101      0.0000 
     73 H29A       71.4830   62.3800   20.1220 H         1 F53101      0.0000 
     74 H30        72.0370   59.8410   20.2950 H         1 F53101      0.0000 
     75 H30A       72.2550   60.8050   21.5450 H         1 F53101      0.0000 
     76 H31        74.1920   60.1310   21.4130 H         1 F53101      0.0000 
     77 H32        69.2080   59.7000   16.1170 H         1 F53101      0.0000 
     78 H32A       68.4770   58.3230   16.4130 H         1 F53101      0.0000 
     79 H33        68.5430   57.3990   18.9640 H         1 F53101      0.0000 
     80 H34        68.2180   58.0490   21.3200 H         1 F53101      0.0000 
     81 H35        68.4680   60.4070   21.9890 H         1 F53101      0.0000 
     82 H36        69.0420   62.1090   20.3100 H         1 F53101      0.0000 
     83 H37        69.3670   61.4620   17.9610 H         1 F53101      0.0000 
@<TRIPOS>BOND
     1    1    2 1    
     2    1    3 1    
     3    1   42 1    
     4    1   43 1    
     5    2   44 1    
     6    3    4 ar   
     7    3    8 ar   
     8    4    5 ar   
     9    5    6 ar   
    10    4   45 1    
    11    6    7 ar   
    12    5   46 1    
    13    6   10 1    
    14    7    8 ar   
    15    9   31 1    
    16    7   47 1    
    17    8   48 1    
    18    9   32 1    
    19   10   11 2    
    20   10   12 2    
    21   10   13 1    
    22   13   14 1    
    23   13   18 1    
    24   14   15 1    
    25   14   49 1    
    26   14   50 1    
    27   15   16 1    
    28   15   17 1    
    29   15   51 1    
    30   16   23 1    
    31   16   52 1    
    32   16   53 1    
    33   17   20 1    
    34   17   54 1    
    35   17   55 1    
    36   18   19 1    
    37   18   56 1    
    38   18   57 1    
    39   19   21 1    
    40   19   22 1    
    41   19   58 1    
    42   21   62 1    
    43   20   59 1    
    44   20   60 1    
    45   20   61 1    
    46   22   24 1    
    47   22   35 1    
    48   22   63 1    
    49   23   66 1    
    50   23   64 1    
    51   23   65 1    
    52   24   25 am   
    53   25   26 2    
    54   24   67 1    
    55   25   27 1    
    56   27   28 1    
    57   28   29 1    
    58   28   34 1    
    59   28   68 1    
    60   29   30 1    
    61   29   69 1    
    62   29   70 1    
    63   30   31 1    
    64   31   34 1    
    65   31   71 1    
    66   32   33 1    
    67   32   72 1    
    68   32   73 1    
    69   33   34 1    
    70   33   74 1    
    71   33   75 1    
    72   34   76 1    
    73   35   41 1    
    74   35   77 1    
    75   35   78 1    
    76   36   37 ar   
    77   36   41 ar   
    78   37   38 ar   
    79   36   79 1    
    80   38   39 ar   
    81   37   80 1    
    82   39   40 ar   
    83   38   81 1    
    84   40   41 ar   
    85   39   82 1    
    86   40   83 1    
@<TRIPOS>SUBSTRUCTURE
     1 F53101      1 GROUP   
@<TRIPOS>SET

