#    Name: 6arb_2_COA
#    Modification time : Fri May 22 19:26:28 2020

@<TRIPOS>MOLECULE
6arb_2_COA
   48    50     1     0     1
SMALL
NO_CHARGES


@<TRIPOS>ATOM
      1 N1A        28.6590   -6.3420  -28.5030 N.ar      1 COA303      0.0000 
      2 C2A        29.8890   -6.4660  -29.0380 C.ar      1 COA303      0.0000 
      3 N3A        30.0810   -6.8920  -30.2900 N.ar      1 COA303      0.0000 
      4 C4A        29.0330   -7.2250  -31.0710 C.ar      1 COA303      0.0000 
      5 C5A        27.7350   -7.1170  -30.5590 C.ar      1 COA303      0.0000 
      6 C6A        27.5800   -6.6570  -29.2370 C.ar      1 COA303      0.0000 
      7 N6A        26.2210   -6.5180  -28.6200 N.pl3     1 COA303      0.0000 
      8 N7A        26.8890   -7.5040  -31.5460 N.2       1 COA303      0.0000 
      9 C8A        27.6240   -7.8430  -32.6270 C.2       1 COA303      0.0000 
     10 N9A        28.9300   -7.6770  -32.3460 N.pl3     1 COA303      0.0000 
     11 C1B        30.0450   -7.9230  -33.2360 C.3       1 COA303      0.0000 
     12 C2B        30.1950   -9.3320  -33.5980 C.3       1 COA303      0.0000 
     13 O2B        31.0160  -10.0010  -32.6910 O.3       1 COA303      0.0000 
     14 C3B        30.8210   -9.2620  -34.8910 C.3       1 COA303      0.0000 
     15 O3B        32.1410   -8.9030  -34.6970 O.3       1 COA303      0.0000 
     16 P3B        33.2890   -9.5650  -35.5010 P.3       1 COA303      0.0000 
     17 O7A        32.8530   -9.7190  -36.9380 O.co2     1 COA303      0.0000 
     18 O8A        33.6140  -10.9070  -34.9040 O.co2     1 COA303      0.0000 
     19 O9A        34.5140   -8.6780  -35.4210 O.co2     1 COA303      0.0000 
     20 C4B        30.1510   -8.1390  -35.5360 C.3       1 COA303      0.0000 
     21 O4B        29.8550   -7.2440  -34.4430 O.3       1 COA303      0.0000 
     22 C5B        28.9410   -8.5340  -36.2520 C.3       1 COA303      0.0000 
     23 O5B        28.1580   -9.5130  -35.6930 O.3       1 COA303      0.0000 
     24 P1A        26.7820   -9.9680  -36.2610 P.3       1 COA303      0.0000 
     25 O1A        26.9870  -11.1470  -37.1600 O.co2     1 COA303      0.0000 
     26 O2A        26.1300   -8.8670  -37.0440 O.co2     1 COA303      0.0000 
     27 O3A        25.8610  -10.3160  -35.0500 O.3       1 COA303      0.0000 
     28 P2A        25.7370  -11.7480  -34.3940 P.3       1 COA303      0.0000 
     29 O4A        24.9260  -12.6760  -35.2700 O.co2     1 COA303      0.0000 
     30 O5A        27.0860  -12.3270  -34.0880 O.co2     1 COA303      0.0000 
     31 O6A        24.9570  -11.6110  -33.0550 O.3       1 COA303      0.0000 
     32 CBP        23.4040  -10.4130  -31.5760 C.3       1 COA303      0.0000 
     33 CCP        23.9200  -10.7010  -32.9860 C.3       1 COA303      0.0000 
     34 CDP        23.4850  -11.6900  -30.7410 C.3       1 COA303      0.0000 
     35 CEP        21.9860   -9.9060  -31.6360 C.3       1 COA303      0.0000 
     36 CAP        24.2820   -9.2980  -30.9680 C.3       1 COA303      0.0000 
     37 OAP        24.0630   -8.1530  -31.7150 O.3       1 COA303      0.0000 
     38 C9P        23.9280   -8.9800  -29.5190 C.2       1 COA303      0.0000 
     39 O9P        24.3330   -9.6740  -28.5910 O.2       1 COA303      0.0000 
     40 N8P        23.0820   -7.8520  -29.2650 N.am      1 COA303      0.0000 
     41 C7P        22.6950   -7.4960  -27.8880 C.3       1 COA303      0.0000 
     42 C6P        21.6700   -8.3800  -27.2250 C.3       1 COA303      0.0000 
     43 C5P        21.3130   -8.0050  -25.8110 C.2       1 COA303      0.0000 
     44 O5P        22.2050   -7.7950  -24.9930 O.2       1 COA303      0.0000 
     45 N4P        19.9230   -7.8880  -25.4480 N.am      1 COA303      0.0000 
     46 C3P        19.5840   -7.5230  -24.1140 C.3       1 COA303      0.0000 
     47 C2P        18.7960   -6.2380  -24.0250 C.3       1 COA303      0.0000 
     48 S1P        17.8690   -5.8230  -25.4960 S.3       1 COA303      0.0000 
@<TRIPOS>BOND
     1    1    2 ar   
     2    1    6 ar   
     3    2    3 ar   
     4    3    4 ar   
     5    4    5 ar   
     6    4   10 1    
     7    5    6 ar   
     8    5    8 1    
     9    6    7 1    
    10    8    9 2    
    11    9   10 1    
    12   10   11 1    
    13   11   12 1    
    14   11   21 1    
    15   12   13 1    
    16   12   14 1    
    17   14   15 1    
    18   14   20 1    
    19   15   16 1    
    20   16   17 ar   
    21   16   18 ar   
    22   16   19 ar   
    23   20   21 1    
    24   20   22 1    
    25   22   23 1    
    26   23   24 1    
    27   24   25 ar   
    28   24   26 ar   
    29   24   27 1    
    30   27   28 1    
    31   28   29 ar   
    32   28   30 ar   
    33   28   31 1    
    34   31   33 1    
    35   32   33 1    
    36   32   34 1    
    37   32   35 1    
    38   32   36 1    
    39   36   37 1    
    40   36   38 1    
    41   38   39 2    
    42   38   40 am   
    43   40   41 1    
    44   41   42 1    
    45   42   43 1    
    46   43   44 2    
    47   43   45 am   
    48   45   46 1    
    49   46   47 1    
    50   47   48 1    
@<TRIPOS>SUBSTRUCTURE
     1 COA303      1 GROUP   
@<TRIPOS>SET
ATOM$ORANGE STATIC     ATOMS   COLORGROUP SYSTEM 
42 2 2 4 4 5 5 6 6 9 9 11 11 12 12 14 14 20 \
20 22 22 32 32 33 33 34 34 35 35 36 36 38 38 41 41 42 \
42 43 43 46 46 47 47 

