#    Name: 6arb_1_COA
#    Modification time : Fri May 22 19:26:21 2020

@<TRIPOS>MOLECULE
6arb_1_COA
   48    50     1     0     1
SMALL
NO_CHARGES


@<TRIPOS>ATOM
      1 N1A       -28.4310   -6.4060  -28.5470 N.ar      1 COA303      0.0000 
      2 C2A       -29.1520   -7.4300  -29.0430 C.ar      1 COA303      0.0000 
      3 N3A       -29.6280   -7.4120  -30.2960 N.ar      1 COA303      0.0000 
      4 C4A       -29.4070   -6.3550  -31.1080 C.ar      1 COA303      0.0000 
      5 C5A       -28.6670   -5.2700  -30.6340 C.ar      1 COA303      0.0000 
      6 C6A       -28.1810   -5.3330  -29.3210 C.ar      1 COA303      0.0000 
      7 N6A       -27.3830   -4.1910  -28.7940 N.pl3     1 COA303      0.0000 
      8 N7A       -28.5900   -4.3570  -31.6320 N.2       1 COA303      0.0000 
      9 C8A       -29.2640   -4.8500  -32.6950 C.2       1 COA303      0.0000 
     10 N9A       -29.7660   -6.0540  -32.3790 N.pl3     1 COA303      0.0000 
     11 C1B       -30.5280   -6.9140  -33.2520 C.3       1 COA303      0.0000 
     12 C2B       -31.8480   -6.4140  -33.5950 C.3       1 COA303      0.0000 
     13 O2B       -32.7610   -6.8880  -32.6690 O.3       1 COA303      0.0000 
     14 C3B       -32.0950   -7.0520  -34.8550 C.3       1 COA303      0.0000 
     15 O3B       -32.4200   -8.3650  -34.5830 O.3       1 COA303      0.0000 
     16 P3B       -33.2600   -9.1730  -35.6040 P.3       1 COA303      0.0000 
     17 O7A       -33.5650   -8.2910  -36.7920 O.co2     1 COA303      0.0000 
     18 O8A       -34.5360   -9.5950  -34.9290 O.co2     1 COA303      0.0000 
     19 O9A       -32.4730  -10.3920  -36.0460 O.co2     1 COA303      0.0000 
     20 C4B       -30.8030   -7.0200  -35.5240 C.3       1 COA303      0.0000 
     21 O4B       -29.8430   -7.0490  -34.4510 O.3       1 COA303      0.0000 
     22 C5B       -30.6420   -5.8110  -36.3120 C.3       1 COA303      0.0000 
     23 O5B       -31.1200   -4.6500  -35.7680 O.3       1 COA303      0.0000 
     24 P1A       -30.7390   -3.2360  -36.2760 P.3       1 COA303      0.0000 
     25 O1A       -31.8300   -2.7550  -37.1840 O.co2     1 COA303      0.0000 
     26 O2A       -29.4420   -3.2880  -37.0340 O.co2     1 COA303      0.0000 
     27 O3A       -30.6020   -2.3190  -35.0210 O.3       1 COA303      0.0000 
     28 P2A       -31.7320   -1.3430  -34.5110 P.3       1 COA303      0.0000 
     29 O4A       -32.1010   -0.3610  -35.6010 O.co2     1 COA303      0.0000 
     30 O5A       -32.9460   -2.1070  -34.0720 O.co2     1 COA303      0.0000 
     31 O6A       -31.2080   -0.5290  -33.2930 O.3       1 COA303      0.0000 
     32 CBP       -29.4360    0.1870  -31.7520 C.3       1 COA303      0.0000 
     33 CCP       -29.8630   -0.2440  -33.1620 C.3       1 COA303      0.0000 
     34 CDP       -30.5930    0.8890  -31.0470 C.3       1 COA303      0.0000 
     35 CEP       -28.2440    1.1080  -31.7960 C.3       1 COA303      0.0000 
     36 CAP       -29.0480   -1.1070  -31.0020 C.3       1 COA303      0.0000 
     37 OAP       -27.9810   -1.6690  -31.6740 O.3       1 COA303      0.0000 
     38 C9P       -28.5850   -0.9020  -29.5720 C.2       1 COA303      0.0000 
     39 O9P       -29.3800   -0.8910  -28.6440 O.2       1 COA303      0.0000 
     40 N8P       -27.1870   -0.7070  -29.3560 N.am      1 COA303      0.0000 
     41 C7P       -26.6490   -0.5090  -28.0010 C.3       1 COA303      0.0000 
     42 C6P       -26.6980    0.8800  -27.4300 C.3       1 COA303      0.0000 
     43 C5P       -26.1730    0.9730  -26.0300 C.2       1 COA303      0.0000 
     44 O5P       -26.2990    0.0060  -25.2830 O.2       1 COA303      0.0000 
     45 N4P       -25.5350    2.1920  -25.5970 N.am      1 COA303      0.0000 
     46 C3P       -25.0310    2.2660  -24.2680 C.3       1 COA303      0.0000 
     47 C2P       -23.5660    1.9120  -24.1360 C.3       1 COA303      0.0000 
     48 S1P       -22.5100    2.4840  -25.4600 S.3       1 COA303      0.0000 
@<TRIPOS>BOND
     1    1    2 ar   
     2    1    6 ar   
     3    2    3 ar   
     4    3    4 ar   
     5    4    5 ar   
     6    4   10 1    
     7    5    6 ar   
     8    5    8 1    
     9    6    7 1    
    10    8    9 2    
    11    9   10 1    
    12   10   11 1    
    13   11   12 1    
    14   11   21 1    
    15   12   13 1    
    16   12   14 1    
    17   14   15 1    
    18   14   20 1    
    19   15   16 1    
    20   16   17 ar   
    21   16   18 ar   
    22   16   19 ar   
    23   20   21 1    
    24   20   22 1    
    25   22   23 1    
    26   23   24 1    
    27   24   25 ar   
    28   24   26 ar   
    29   24   27 1    
    30   27   28 1    
    31   28   29 ar   
    32   28   30 ar   
    33   28   31 1    
    34   31   33 1    
    35   32   33 1    
    36   32   34 1    
    37   32   35 1    
    38   32   36 1    
    39   36   37 1    
    40   36   38 1    
    41   38   39 2    
    42   38   40 am   
    43   40   41 1    
    44   41   42 1    
    45   42   43 1    
    46   43   44 2    
    47   43   45 am   
    48   45   46 1    
    49   46   47 1    
    50   47   48 1    
@<TRIPOS>SUBSTRUCTURE
     1 COA303      1 GROUP   
@<TRIPOS>SET
ATOM$ORANGE STATIC     ATOMS   COLORGROUP SYSTEM 
42 2 2 4 4 5 5 6 6 9 9 11 11 12 12 14 14 20 \
20 22 22 32 32 33 33 34 34 35 35 36 36 38 38 41 41 42 \
42 43 43 46 46 47 47 

