#    Name: 6arb_3_COA
#    Modification time : Fri May 22 19:26:35 2020

@<TRIPOS>MOLECULE
6arb_3_COA
   48    50     1     0     1
SMALL
NO_CHARGES


@<TRIPOS>ATOM
      1 N1A        -0.0730   42.8740  -28.6260 N.ar      1 COA303      0.0000 
      2 C2A        -0.5610   44.0110  -29.1490 C.ar      1 COA303      0.0000 
      3 N3A        -0.2550   44.4130  -30.3850 N.ar      1 COA303      0.0000 
      4 C4A         0.5690   43.6740  -31.1560 C.ar      1 COA303      0.0000 
      5 C5A         1.0990   42.4800  -30.6600 C.ar      1 COA303      0.0000 
      6 C6A         0.7480   42.1000  -29.3570 C.ar      1 COA303      0.0000 
      7 N6A         1.2800   40.8300  -28.7740 N.pl3     1 COA303      0.0000 
      8 N7A         1.8710   41.9470  -31.6350 N.2       1 COA303      0.0000 
      9 C8A         1.8300   42.7740  -32.7000 C.2       1 COA303      0.0000 
     10 N9A         1.0450   43.8240  -32.4120 N.pl3     1 COA303      0.0000 
     11 C1B         0.7240   44.9290  -33.2840 C.3       1 COA303      0.0000 
     12 C2B         1.8310   45.8400  -33.5540 C.3       1 COA303      0.0000 
     13 O2B         1.8430   46.8480  -32.5980 O.3       1 COA303      0.0000 
     14 C3B         1.4850   46.3950  -34.8360 C.3       1 COA303      0.0000 
     15 O3B         0.5140   47.3500  -34.6050 O.3       1 COA303      0.0000 
     16 P3B         0.3630   48.6370  -35.4560 P.3       1 COA303      0.0000 
     17 O7A         1.2880   49.7140  -34.9420 O.co2     1 COA303      0.0000 
     18 O8A        -1.0600   49.1140  -35.3350 O.co2     1 COA303      0.0000 
     19 O9A         0.6540   48.3140  -36.9100 O.co2     1 COA303      0.0000 
     20 C4B         0.8790   45.2720  -35.5430 C.3       1 COA303      0.0000 
     21 O4B         0.3190   44.4360  -34.5170 O.3       1 COA303      0.0000 
     22 C5B         1.8480   44.5000  -36.2970 C.3       1 COA303      0.0000 
     23 O5B         2.9620   44.0430  -35.6440 O.3       1 COA303      0.0000 
     24 P1A         4.0490   43.2130  -36.3800 P.3       1 COA303      0.0000 
     25 O1A         4.8830   44.1200  -37.2330 O.co2     1 COA303      0.0000 
     26 O2A         3.3810   42.1540  -37.2190 O.co2     1 COA303      0.0000 
     27 O3A         4.9590   42.4940  -35.3380 O.3       1 COA303      0.0000 
     28 P2A         6.1090   43.1830  -34.5050 P.3       1 COA303      0.0000 
     29 O4A         7.4200   43.0770  -35.2460 O.co2     1 COA303      0.0000 
     30 O5A         5.7730   44.6150  -34.2290 O.co2     1 COA303      0.0000 
     31 O6A         6.2520   42.4160  -33.1580 O.3       1 COA303      0.0000 
     32 CBP         6.1880   40.3780  -31.7650 C.3       1 COA303      0.0000 
     33 CCP         6.1750   41.0260  -33.1600 C.3       1 COA303      0.0000 
     34 CDP         7.2330   41.0410  -30.8690 C.3       1 COA303      0.0000 
     35 CEP         6.4640   38.8990  -31.8480 C.3       1 COA303      0.0000 
     36 CAP         4.7820   40.5930  -31.1480 C.3       1 COA303      0.0000 
     37 OAP         3.8880   39.7770  -31.8170 O.3       1 COA303      0.0000 
     38 C9P         4.6620   40.2240  -29.6780 C.2       1 COA303      0.0000 
     39 O9P         5.1080   40.9350  -28.7800 O.2       1 COA303      0.0000 
     40 N8P         4.0020   38.9950  -29.3600 N.am      1 COA303      0.0000 
     41 C7P         3.8770   38.6010  -27.9490 C.3       1 COA303      0.0000 
     42 C6P         5.1250   38.0500  -27.3100 C.3       1 COA303      0.0000 
     43 C5P         4.9640   37.4850  -25.9120 C.2       1 COA303      0.0000 
     44 O5P         4.2980   38.0980  -25.0830 O.2       1 COA303      0.0000 
     45 N4P         5.5970   36.2370  -25.5580 N.am      1 COA303      0.0000 
     46 C3P         5.4200   35.7340  -24.2400 C.3       1 COA303      0.0000 
     47 C2P         4.3650   34.6580  -24.1000 C.3       1 COA303      0.0000 
     48 S1P         4.4200   33.3250  -25.2920 S.3       1 COA303      0.0000 
@<TRIPOS>BOND
     1    1    2 ar   
     2    1    6 ar   
     3    2    3 ar   
     4    3    4 ar   
     5    4    5 ar   
     6    4   10 1    
     7    5    6 ar   
     8    5    8 1    
     9    6    7 1    
    10    8    9 2    
    11    9   10 1    
    12   10   11 1    
    13   11   12 1    
    14   11   21 1    
    15   12   13 1    
    16   12   14 1    
    17   14   15 1    
    18   14   20 1    
    19   15   16 1    
    20   16   17 ar   
    21   16   18 ar   
    22   16   19 ar   
    23   20   21 1    
    24   20   22 1    
    25   22   23 1    
    26   23   24 1    
    27   24   25 ar   
    28   24   26 ar   
    29   24   27 1    
    30   27   28 1    
    31   28   29 ar   
    32   28   30 ar   
    33   28   31 1    
    34   31   33 1    
    35   32   33 1    
    36   32   34 1    
    37   32   35 1    
    38   32   36 1    
    39   36   37 1    
    40   36   38 1    
    41   38   39 2    
    42   38   40 am   
    43   40   41 1    
    44   41   42 1    
    45   42   43 1    
    46   43   44 2    
    47   43   45 am   
    48   45   46 1    
    49   46   47 1    
    50   47   48 1    
@<TRIPOS>SUBSTRUCTURE
     1 COA303      1 GROUP   
@<TRIPOS>SET
ATOM$ORANGE STATIC     ATOMS   COLORGROUP SYSTEM 
42 2 2 4 4 5 5 6 6 9 9 11 11 12 12 14 14 20 \
20 22 22 32 32 33 33 34 34 35 35 36 36 38 38 41 41 42 \
42 43 43 46 46 47 47 

