#    Name: 6c5a_4_UPG
#    Modification time : Fri May 22 19:37:20 2020

@<TRIPOS>MOLECULE
6c5a_4_UPG
   36    38     1     0     0
SMALL
NO_CHARGES


@<TRIPOS>ATOM
      1 N1         86.1930   36.1440  438.7680 N.am      1 UPG501      0.0000 
      2 C2         86.7460   36.0220  437.4920 C.2       1 UPG501      0.0000 
      3 N3         87.3600   34.8350  437.1540 N.am      1 UPG501      0.0000 
      4 C4         87.4210   33.8460  438.0440 C.2       1 UPG501      0.0000 
      5 C5         86.8620   33.9750  439.3500 C.2       1 UPG501      0.0000 
      6 C6         86.2460   35.1550  439.6840 C.2       1 UPG501      0.0000 
      7 O2         86.6870   36.9440  436.6750 O.2       1 UPG501      0.0000 
      8 O4         87.9900   32.8370  437.6570 O.2       1 UPG501      0.0000 
      9 C1C        85.5390   37.4240  439.1050 C.3       1 UPG501      0.0000 
     10 C2C        84.0530   37.3330  439.4010 C.3       1 UPG501      0.0000 
     11 O2C        83.2700   37.3600  438.1790 O.3       1 UPG501      0.0000 
     12 C3C        83.8350   38.5630  440.3190 C.3       1 UPG501      0.0000 
     13 C4C        85.1550   38.6160  441.0800 C.3       1 UPG501      0.0000 
     14 O4C        86.1360   37.9030  440.2630 O.3       1 UPG501      0.0000 
     15 O3C        83.6110   39.7880  439.5900 O.3       1 UPG501      0.0000 
     16 C5C        85.1680   38.0520  442.4800 C.3       1 UPG501      0.0000 
     17 O5C        84.3280   36.8860  442.4940 O.3       1 UPG501      0.0000 
     18 PA         84.2540   35.9800  443.8090 P.3       1 UPG501      0.0000 
     19 O1A        83.5400   34.7140  443.5790 O.co2     1 UPG501      0.0000 
     20 O2A        85.5890   35.8350  444.4350 O.co2     1 UPG501      0.0000 
     21 O3A        83.1980   36.8550  444.7210 O.3       1 UPG501      0.0000 
     22 PB         83.2920   37.5750  446.1270 P.3       1 UPG501      0.0000 
     23 O1B        84.0300   38.8330  446.0450 O.co2     1 UPG501      0.0000 
     24 O2B        81.8610   37.6310  446.5550 O.co2     1 UPG501      0.0000 
     25 O3B        84.1940   36.6010  447.0780 O.3       1 UPG501      0.0000 
     26 C1'        85.5030   36.9950  447.3540 C.3       1 UPG501      0.0000 
     27 C2'        86.3620   35.7960  447.8400 C.3       1 UPG501      0.0000 
     28 C3'        85.9360   35.3340  449.2250 C.3       1 UPG501      0.0000 
     29 C4'        85.8630   36.5130  450.1940 C.3       1 UPG501      0.0000 
     30 C5'        84.9630   37.6060  449.5920 C.3       1 UPG501      0.0000 
     31 C6'        84.8700   38.8690  450.4250 C.3       1 UPG501      0.0000 
     32 O2'        86.2800   34.7220  446.8760 O.3       1 UPG501      0.0000 
     33 O3'        86.9090   34.4050  449.7460 O.3       1 UPG501      0.0000 
     34 O4'        85.3180   36.1170  451.4580 O.3       1 UPG501      0.0000 
     35 O5'        85.5160   38.0470  448.3400 O.3       1 UPG501      0.0000 
     36 O6'        86.1470   39.1990  451.0250 O.3       1 UPG501      0.0000 
@<TRIPOS>BOND
     1    1    2 1    
     2    1    6 1    
     3    1    9 1    
     4    2    3 1    
     5    2    7 2    
     6    3    4 1    
     7    4    5 1    
     8    4    8 2    
     9    5    6 2    
    10    9   10 1    
    11    9   14 1    
    12   10   11 1    
    13   10   12 1    
    14   12   13 1    
    15   12   15 1    
    16   13   14 1    
    17   13   16 1    
    18   16   17 1    
    19   17   18 1    
    20   18   19 ar   
    21   18   20 ar   
    22   18   21 1    
    23   21   22 1    
    24   22   23 ar   
    25   22   24 ar   
    26   22   25 1    
    27   25   26 1    
    28   26   27 1    
    29   26   35 1    
    30   27   28 1    
    31   27   32 1    
    32   28   29 1    
    33   28   33 1    
    34   29   30 1    
    35   29   34 1    
    36   30   31 1    
    37   30   35 1    
    38   31   36 1    
@<TRIPOS>SUBSTRUCTURE
     1 UPG501      1 GROUP   
@<TRIPOS>SET

