#    Name: 6c5a_2_UPG_CAVITY_N1_8
#    Modification time : Fri May 22 19:37:12 2020

@<TRIPOS>MOLECULE
6c5a_2_UPG_CAVITY_N1_8
   82     0     6     0     0
SMALL
NO_CHARGES


@<TRIPOS>ATOM
      1 N          99.7100   72.5400  404.7900 N.am      1 ALA2        0.0000 
      2 N          97.9100   72.8800  405.8500 N.am      1 ALA2        0.0000 
      3 N         101.5600   72.4500  405.8300 N.am      1 ALA2        0.0000 
      4 N         100.4400   73.4400  405.7300 N.am      1 ALA2        0.0000 
      5 N          99.3200   74.4400  405.6400 N.am      1 ALA2        0.0000 
      6 N         100.8700   71.7900  406.9900 N.am      1 ALA2        0.0000 
      7 N          98.6300   73.7900  406.7900 N.am      1 ALA2        0.0000 
      8 O          98.9400   76.3500  406.4800 O.2       1 ALA2        0.0000 
      9 N         100.8200   76.5100  409.6300 N.am      1 ALA2        0.0000 
     10 N         102.6600   76.4200  410.6800 N.am      1 ALA2        0.0000 
     11 N         102.9600   78.9800  410.3700 N.am      1 ALA2        0.0000 
     12 N         103.6900   79.8900  411.3100 N.am      1 ALA2        0.0000 
     13 N         109.8400   79.7700  409.0800 N.am      1 ALA2        0.0000 
     14 N         108.7200   80.7700  408.9800 N.am      1 ALA2        0.0000 
     15 N         109.1500   79.1100  410.2400 N.am      1 ALA2        0.0000 
     16 N         108.0300   80.1100  410.1400 N.am      1 ALA2        0.0000 
     17 OD1        99.0200   71.8800  405.9500 O.co2     2 ASP3        0.0000 
     18 OD1       102.2000   77.8200  407.3200 O.co2     2 ASP3        0.0000 
     19 OD1       108.9500   82.8300  404.4600 O.co2     2 ASP3        0.0000 
     20 OD1       108.2600   82.1700  405.6200 O.co2     2 ASP3        0.0000 
     21 OD1       105.0700   81.2000  409.0000 O.co2     2 ASP3        0.0000 
     22 OD1       104.3800   80.5400  410.1500 O.co2     2 ASP3        0.0000 
     23 OD1       107.8700   84.0800  406.4600 O.co2     2 ASP3        0.0000 
     24 OD1       107.6000   81.7700  408.8800 O.co2     2 ASP3        0.0000 
     25 OD1       106.4900   82.7600  408.7800 O.co2     2 ASP3        0.0000 
     26 OD1       106.9200   81.1100  410.0400 O.co2     2 ASP3        0.0000 
     27 OD1       105.8000   82.1100  409.9400 O.co2     2 ASP3        0.0000 
     28 OD1       106.2300   80.4500  411.2000 O.co2     2 ASP3        0.0000 
     29 NZ        107.1800   83.4200  407.6200 N.4       3 LYS4        0.0000 
     30 CZ         99.7500   72.7900  406.8900 C.ar      4 PHE5        0.0000 
     31 CZ        101.1700   74.3500  406.6800 C.ar      4 PHE5        0.0000 
     32 CZ        100.4800   73.7000  407.8400 C.ar      4 PHE5        0.0000 
     33 CZ        102.5900   75.9200  406.4700 C.ar      4 PHE5        0.0000 
     34 CZ        101.9000   75.2600  407.6300 C.ar      4 PHE5        0.0000 
     35 CZ        100.7800   76.2600  407.5300 C.ar      4 PHE5        0.0000 
     36 CZ         99.6600   77.2600  407.4300 C.ar      4 PHE5        0.0000 
     37 CZ        101.2100   74.6000  408.7900 C.ar      4 PHE5        0.0000 
     38 CZ        100.0900   75.6000  408.6900 C.ar      4 PHE5        0.0000 
     39 CZ        104.0000   77.4800  406.2600 C.ar      4 PHE5        0.0000 
     40 CZ        103.3100   76.8200  407.4100 C.ar      4 PHE5        0.0000 
     41 CZ        102.6200   76.1700  408.5700 C.ar      4 PHE5        0.0000 
     42 CZ        101.5100   77.1700  408.4700 C.ar      4 PHE5        0.0000 
     43 CZ        101.9300   75.5100  409.7300 C.ar      4 PHE5        0.0000 
     44 CZ        105.1600   76.7300  408.4600 C.ar      4 PHE5        0.0000 
     45 CZ        104.0400   77.7300  408.3600 C.ar      4 PHE5        0.0000 
     46 CZ        104.4700   76.0800  409.6200 C.ar      4 PHE5        0.0000 
     47 CZ        103.3500   77.0800  409.5200 C.ar      4 PHE5        0.0000 
     48 CZ        102.2400   78.0700  409.4200 C.ar      4 PHE5        0.0000 
     49 CZ        107.9500   79.6100  405.9300 C.ar      4 PHE5        0.0000 
     50 CZ        107.2600   78.9500  407.0900 C.ar      4 PHE5        0.0000 
     51 CZ        106.5700   78.3000  408.2500 C.ar      4 PHE5        0.0000 
     52 CA        100.0500   75.3500  406.5800 C.3       5 GLY6        0.0000 
     53 CA        101.4700   76.9100  406.3700 C.3       5 GLY6        0.0000 
     54 CA        102.9300   78.7300  408.2600 C.3       5 GLY6        0.0000 
     55 CA        105.8900   77.6400  409.4100 C.3       5 GLY6        0.0000 
     56 CA        104.7700   78.6400  409.3100 C.3       5 GLY6        0.0000 
     57 CA        103.6500   79.6400  409.2100 C.3       5 GLY6        0.0000 
     58 CA        104.0800   77.9800  410.4700 C.3       5 GLY6        0.0000 
     59 CA        109.3700   81.1700  405.7200 C.3       5 GLY6        0.0000 
     60 CA        109.8000   79.5200  406.9700 C.3       5 GLY6        0.0000 
     61 CA        108.6800   80.5200  406.8700 C.3       5 GLY6        0.0000 
     62 CA        109.1100   78.8600  408.1300 C.3       5 GLY6        0.0000 
     63 CA        108.4200   78.2100  409.2900 C.3       5 GLY6        0.0000 
     64 CA        107.3000   79.2000  409.1900 C.3       5 GLY6        0.0000 
     65 CA        106.6100   78.5500  410.3500 C.3       5 GLY6        0.0000 
     66 CA        105.9200   77.8900  411.5100 C.3       5 GLY6        0.0000 
     67 CA        104.8100   78.8900  411.4100 C.3       5 GLY6        0.0000 
     68 CA        108.9800   83.0800  406.5600 C.3       5 GLY6        0.0000 
     69 CA        109.4100   81.4200  407.8200 C.3       5 GLY6        0.0000 
     70 CA        108.2900   82.4200  407.7200 C.3       5 GLY6        0.0000 
     71 CA        108.4600   78.4600  411.4000 C.3       5 GLY6        0.0000 
     72 CA        107.3400   79.4600  411.3000 C.3       5 GLY6        0.0000 
     73 CA        106.6500   78.8000  412.4600 C.3       5 GLY6        0.0000 
     74 CA        105.5400   79.8000  412.3600 C.3       5 GLY6        0.0000 
     75 DU         99.3600   74.6900  407.7400 H         6 CUB7        0.0000 
     76 DU        107.5300   81.2600  404.6700 H         6 CUB7        0.0000 
     77 DU        107.5700   81.5100  406.7800 H         6 CUB7        0.0000 
     78 DU        106.4500   82.5100  406.6800 H         6 CUB7        0.0000 
     79 DU        107.9900   79.8600  408.0300 H         6 CUB7        0.0000 
     80 DU        106.8800   80.8600  407.9400 H         6 CUB7        0.0000 
     81 DU        106.1900   80.2000  409.0900 H         6 CUB7        0.0000 
     82 DU        105.5000   79.5500  410.2500 H         6 CUB7        0.0000 
@<TRIPOS>BOND
@<TRIPOS>SUBSTRUCTURE
     1 ALA2        1 GROUP   
     2 ASP3       17 GROUP   
     3 LYS4       29 GROUP   
     4 PHE5       30 GROUP   
     5 GLY6       52 GROUP   
     6 CUB7       75 GROUP   
@<TRIPOS>SET

