#    Name: 6c5a_6_UPG
#    Modification time : Fri May 22 19:37:37 2020

@<TRIPOS>MOLECULE
6c5a_6_UPG
   36    38     1     0     0
SMALL
NO_CHARGES


@<TRIPOS>ATOM
      1 N1        112.5430   77.6350  465.0300 N.am      1 UPG502      0.0000 
      2 C2        112.6910   76.3020  465.4410 C.2       1 UPG502      0.0000 
      3 N3        113.8350   75.9570  466.1270 N.am      1 UPG502      0.0000 
      4 C4        114.7700   76.8790  466.3790 C.2       1 UPG502      0.0000 
      5 C5        114.6180   78.2250  465.9460 C.2       1 UPG502      0.0000 
      6 C6        113.4800   78.5700  465.2640 C.2       1 UPG502      0.0000 
      7 O2        111.8260   75.4440  465.2310 O.2       1 UPG502      0.0000 
      8 O4        115.7530   76.5010  467.0010 O.2       1 UPG502      0.0000 
      9 C1C       111.3360   78.0370  464.2770 C.3       1 UPG502      0.0000 
     10 C2C       110.4460   79.0850  464.9240 C.3       1 UPG502      0.0000 
     11 O2C       109.4850   78.5180  465.8520 O.3       1 UPG502      0.0000 
     12 C3C       109.7530   79.6910  463.6810 C.3       1 UPG502      0.0000 
     13 C4C       110.8690   79.6700  462.6430 C.3       1 UPG502      0.0000 
     14 O4C       111.7920   78.6280  463.0990 O.3       1 UPG502      0.0000 
     15 O3C       108.6390   78.8910  463.2680 O.3       1 UPG502      0.0000 
     16 C5C       111.6150   80.9670  462.4040 C.3       1 UPG502      0.0000 
     17 O5C       111.8390   81.5830  463.6840 O.3       1 UPG502      0.0000 
     18 PA        112.8040   82.8360  463.8530 P.3       1 UPG502      0.0000 
     19 O1A       113.1090   83.0970  465.2610 O.co2     1 UPG502      0.0000 
     20 O2A       113.9930   82.8150  462.9780 O.co2     1 UPG502      0.0000 
     21 O3A       111.6940   83.9850  463.5000 O.3       1 UPG502      0.0000 
     22 PB        111.4260   84.8380  462.2110 P.3       1 UPG502      0.0000 
     23 O1B       111.0260   84.0450  461.0590 O.co2     1 UPG502      0.0000 
     24 O2B       110.4620   85.8840  462.6400 O.co2     1 UPG502      0.0000 
     25 O3B       112.9040   85.4390  461.9140 O.3       1 UPG502      0.0000 
     26 C1'       113.6570   84.9580  460.8370 C.3       1 UPG502      0.0000 
     27 C2'       115.1470   85.2690  461.1120 C.3       1 UPG502      0.0000 
     28 C3'       115.3580   86.7640  461.0300 C.3       1 UPG502      0.0000 
     29 C4'       114.9380   87.2670  459.6660 C.3       1 UPG502      0.0000 
     30 C5'       113.4430   86.9790  459.5450 C.3       1 UPG502      0.0000 
     31 C6'       112.8250   87.4830  458.2530 C.3       1 UPG502      0.0000 
     32 O2'       115.5180   84.8020  462.4290 O.3       1 UPG502      0.0000 
     33 O3'       116.7470   87.0910  461.1940 O.3       1 UPG502      0.0000 
     34 O4'       115.1610   88.6710  459.5860 O.3       1 UPG502      0.0000 
     35 O5'       113.2360   85.5470  459.5790 O.3       1 UPG502      0.0000 
     36 O6'       113.7440   87.4470  457.1340 O.3       1 UPG502      0.0000 
@<TRIPOS>BOND
     1    1    2 1    
     2    1    6 1    
     3    1    9 1    
     4    2    3 1    
     5    2    7 2    
     6    3    4 1    
     7    4    5 1    
     8    4    8 2    
     9    5    6 2    
    10    9   10 1    
    11    9   14 1    
    12   10   11 1    
    13   10   12 1    
    14   12   13 1    
    15   12   15 1    
    16   13   14 1    
    17   13   16 1    
    18   16   17 1    
    19   17   18 1    
    20   18   19 ar   
    21   18   20 ar   
    22   18   21 1    
    23   21   22 1    
    24   22   23 ar   
    25   22   24 ar   
    26   22   25 1    
    27   25   26 1    
    28   26   27 1    
    29   26   35 1    
    30   27   28 1    
    31   27   32 1    
    32   28   29 1    
    33   28   33 1    
    34   29   30 1    
    35   29   34 1    
    36   30   31 1    
    37   30   35 1    
    38   31   36 1    
@<TRIPOS>SUBSTRUCTURE
     1 UPG502      1 GROUP   
@<TRIPOS>SET

