#    Name: 6c5a_8_NAI
#    Modification time : Fri May 22 19:37:42 2020

@<TRIPOS>MOLECULE
6c5a_8_NAI
   44    48     1     0     1
SMALL
NO_CHARGES


@<TRIPOS>ATOM
      1 PA         77.7860   46.2570  454.6720 P.3       1 NAI500      0.0000 
      2 O1A        77.9620   47.6820  454.3160 O.co2     1 NAI500      0.0000 
      3 O2A        76.7210   45.4850  453.9140 O.co2     1 NAI500      0.0000 
      4 O5B        77.4480   46.0740  456.2250 O.3       1 NAI500      0.0000 
      5 C5B        77.7380   47.0860  457.2060 C.3       1 NAI500      0.0000 
      6 C4B        76.5680   47.1350  458.1550 C.3       1 NAI500      0.0000 
      7 O4B        77.0800   47.6420  459.4080 O.3       1 NAI500      0.0000 
      8 C3B        75.4270   48.1160  457.7570 C.3       1 NAI500      0.0000 
      9 O3B        74.1320   47.5120  457.9400 O.3       1 NAI500      0.0000 
     10 C2B        75.6890   49.3500  458.6720 C.3       1 NAI500      0.0000 
     11 O2B        74.4650   50.0450  459.0330 O.3       1 NAI500      0.0000 
     12 C1B        76.2700   48.6950  459.9170 C.3       1 NAI500      0.0000 
     13 N9A        77.1530   49.5190  460.7080 N.pl3     1 NAI500      0.0000 
     14 C8A        78.2820   50.1870  460.3370 C.2       1 NAI500      0.0000 
     15 N7A        78.8760   50.8380  461.3610 N.2       1 NAI500      0.0000 
     16 C5A        78.0500   50.5520  462.4360 C.ar      1 NAI500      0.0000 
     17 C6A        78.1120   50.9260  463.8090 C.ar      1 NAI500      0.0000 
     18 N6A        79.0910   51.7050  464.2920 N.pl3     1 NAI500      0.0000 
     19 N1A        77.1320   50.4630  464.6110 N.ar      1 NAI500      0.0000 
     20 C2A        76.1710   49.6940  464.1000 C.ar      1 NAI500      0.0000 
     21 N3A        76.0090   49.2760  462.8510 N.ar      1 NAI500      0.0000 
     22 C4A        76.9940   49.7440  462.0610 C.ar      1 NAI500      0.0000 
     23 O3         79.1710   45.5400  454.4890 O.3       1 NAI500      0.0000 
     24 PN         79.5350   43.9450  454.4640 P.3       1 NAI500      0.0000 
     25 O1N        79.5030   43.5030  453.0640 O.co2     1 NAI500      0.0000 
     26 O2N        78.6400   43.2280  455.3950 O.co2     1 NAI500      0.0000 
     27 O5D        81.0530   43.8880  454.9880 O.3       1 NAI500      0.0000 
     28 C5D        81.3510   43.9350  456.3900 C.3       1 NAI500      0.0000 
     29 C4D        82.8170   43.5450  456.5550 C.3       1 NAI500      0.0000 
     30 O4D        83.0210   42.1340  456.1790 O.3       1 NAI500      0.0000 
     31 C3D        83.8820   44.3340  455.8130 C.3       1 NAI500      0.0000 
     32 O3D        85.0330   44.6110  456.6400 O.3       1 NAI500      0.0000 
     33 C2D        84.2360   43.3770  454.6470 C.3       1 NAI500      0.0000 
     34 O2D        85.5700   43.6210  454.1420 O.3       1 NAI500      0.0000 
     35 C1D        84.1230   42.0240  455.3280 C.3       1 NAI500      0.0000 
     36 N1N        83.8740   40.9240  454.4200 N.pl3     1 NAI500      0.0000 
     37 C2N        82.9710   41.0900  453.3920 C.2       1 NAI500      0.0000 
     38 C3N        82.3710   40.0070  452.7740 C.2       1 NAI500      0.0000 
     39 C7N        81.5390   40.1310  451.4950 C.2       1 NAI500      0.0000 
     40 O7N        81.5790   39.2170  450.6820 O.2       1 NAI500      0.0000 
     41 N7N        80.7680   41.2230  451.2690 N.am      1 NAI500      0.0000 
     42 C4N        82.8500   38.6780  453.0880 C.3       1 NAI500      0.0000 
     43 C5N        83.9910   38.6340  454.0560 C.2       1 NAI500      0.0000 
     44 C6N        84.5680   39.7100  454.6470 C.2       1 NAI500      0.0000 
@<TRIPOS>BOND
     1    1    2 ar   
     2    1    3 ar   
     3    1    4 1    
     4    1   23 1    
     5    4    5 1    
     6    5    6 1    
     7    6    7 1    
     8    6    8 1    
     9    7   12 1    
    10    8    9 1    
    11    8   10 1    
    12   10   11 1    
    13   10   12 1    
    14   12   13 1    
    15   13   14 1    
    16   13   22 1    
    17   14   15 2    
    18   15   16 1    
    19   16   17 ar   
    20   16   22 ar   
    21   17   18 1    
    22   17   19 ar   
    23   19   20 ar   
    24   20   21 ar   
    25   21   22 ar   
    26   23   24 1    
    27   24   25 ar   
    28   24   26 ar   
    29   24   27 1    
    30   27   28 1    
    31   28   29 1    
    32   29   30 1    
    33   29   31 1    
    34   30   35 1    
    35   31   32 1    
    36   31   33 1    
    37   33   34 1    
    38   33   35 1    
    39   35   36 1    
    40   36   37 1    
    41   36   44 1    
    42   37   38 2    
    43   38   39 1    
    44   38   42 1    
    45   39   40 2    
    46   39   41 am   
    47   42   43 1    
    48   43   44 2    
@<TRIPOS>SUBSTRUCTURE
     1 NAI500      1 GROUP   
@<TRIPOS>SET
ATOM$ORANGE STATIC     ATOMS   COLORGROUP SYSTEM 
42 5 5 6 6 8 8 10 10 12 12 14 14 16 16 17 17 20 \
20 22 22 28 28 29 29 31 31 33 33 35 35 37 37 38 38 39 \
39 42 42 43 43 44 44 

