#    Name: 6c5a_5_UPG_CAVITY_N1_8
#    Modification time : Fri May 22 19:37:30 2020

@<TRIPOS>MOLECULE
6c5a_5_UPG_CAVITY_N1_8
  105     0     7     0     0
SMALL
NO_CHARGES


@<TRIPOS>ATOM
      1 OG        137.8100   74.9200  454.0200 O.3       1 SER1        0.0000 
      2 N         139.0500   69.7000  455.6900 N.am      2 ALA2        0.0000 
      3 N         138.3600   69.0500  456.8500 N.am      2 ALA2        0.0000 
      4 N         138.7900   67.3900  458.1100 N.am      2 ALA2        0.0000 
      5 N         140.4700   71.2700  455.4800 N.am      2 ALA2        0.0000 
      6 N         139.0900   69.9600  457.8000 N.am      2 ALA2        0.0000 
      7 N         136.7500   65.6800  463.6900 N.am      2 ALA2        0.0000 
      8 N         138.5400   75.8200  454.9700 N.am      2 ALA2        0.0000 
      9 N         137.8500   75.1700  456.1300 N.am      2 ALA2        0.0000 
     10 N         136.7300   76.1700  456.0300 N.am      2 ALA2        0.0000 
     11 O         140.6700   67.5600  461.2600 O.2       2 ALA2        0.0000 
     12 N         138.1700   67.2400  463.4800 N.am      2 ALA2        0.0000 
     13 N         137.4800   66.5900  464.6400 N.am      2 ALA2        0.0000 
     14 OD1       138.9300   73.9200  454.1200 O.co2     3 ASP3        0.0000 
     15 OD1       139.3500   72.2700  455.3800 O.co2     3 ASP3        0.0000 
     16 OD1       138.2400   73.2600  455.2800 O.co2     3 ASP3        0.0000 
     17 OD1       139.2300   76.4800  453.8100 O.co2     3 ASP3        0.0000 
     18 OD1       140.7700   73.8300  455.1700 O.co2     3 ASP3        0.0000 
     19 OD1       139.6500   74.8300  455.0700 O.co2     3 ASP3        0.0000 
     20 OD1       137.0600   68.2400  463.3800 O.co2     3 ASP3        0.0000 
     21 OD1       135.9400   69.2400  463.2800 O.co2     3 ASP3        0.0000 
     22 OD1       136.3700   67.5800  464.5400 O.co2     3 ASP3        0.0000 
     23 OD1       140.9700   70.1200  460.9500 O.co2     3 ASP3        0.0000 
     24 OD1       138.4700   69.8000  463.1700 O.co2     3 ASP3        0.0000 
     25 OD1       137.7800   69.1500  464.3300 O.co2     3 ASP3        0.0000 
     26 OD1       141.8000   77.3000  455.8000 O.co2     3 ASP3        0.0000 
     27 OD1       138.7800   72.3700  462.8600 O.co2     3 ASP3        0.0000 
     28 NZ        141.0700   76.3900  454.8600 N.4       4 LYS4        0.0000 
     29 NZ        141.5000   74.7400  456.1100 N.4       4 LYS4        0.0000 
     30 NZ        140.3800   75.7300  456.0200 N.4       4 LYS4        0.0000 
     31 NZ        140.8100   74.0800  457.2700 N.4       4 LYS4        0.0000 
     32 NZ        141.1100   76.6400  456.9600 N.4       4 LYS4        0.0000 
     33 NZ        141.5400   74.9900  458.2200 N.4       4 LYS4        0.0000 
     34 CZ        137.2400   70.0500  456.7500 C.ar      5 PHE5        0.0000 
     35 CZ        137.6700   68.3900  458.0100 C.ar      5 PHE5        0.0000 
     36 CZ        138.1000   66.7400  459.2700 C.ar      5 PHE5        0.0000 
     37 CZ        137.4100   66.0800  460.4300 C.ar      5 PHE5        0.0000 
     38 CZ        136.7200   65.4300  461.5900 C.ar      5 PHE5        0.0000 
     39 CZ        139.7800   70.6100  456.6400 C.ar      5 PHE5        0.0000 
     40 CZ        137.9700   70.9500  457.7000 C.ar      5 PHE5        0.0000 
     41 CZ        139.5100   68.3000  459.0600 C.ar      5 PHE5        0.0000 
     42 CZ        138.4000   69.3000  458.9600 C.ar      5 PHE5        0.0000 
     43 CZ        137.2800   70.3000  458.8600 C.ar      5 PHE5        0.0000 
     44 CZ        139.9400   66.6500  460.3200 C.ar      5 PHE5        0.0000 
     45 CZ        137.7100   68.6400  460.1200 C.ar      5 PHE5        0.0000 
     46 CZ        138.1300   66.9900  461.3800 C.ar      5 PHE5        0.0000 
     47 CZ        137.0200   67.9900  461.2800 C.ar      5 PHE5        0.0000 
     48 CZ        137.4400   66.3300  462.5400 C.ar      5 PHE5        0.0000 
     49 CZ        136.3300   67.3300  462.4400 C.ar      5 PHE5        0.0000 
     50 CZ        140.9300   69.8700  458.8400 C.ar      5 PHE5        0.0000 
     51 CZ        138.7000   71.8600  458.6500 C.ar      5 PHE5        0.0000 
     52 CZ        137.5800   72.8600  458.5500 C.ar      5 PHE5        0.0000 
     53 CZ        140.2400   69.2100  460.0000 C.ar      5 PHE5        0.0000 
     54 CZ        138.0100   71.2100  459.8100 C.ar      5 PHE5        0.0000 
     55 CZ        138.4400   69.5500  461.0600 C.ar      5 PHE5        0.0000 
     56 CZ        137.3200   70.5500  460.9700 C.ar      5 PHE5        0.0000 
     57 CZ        137.7500   68.9000  462.2200 C.ar      5 PHE5        0.0000 
     58 CZ        136.6300   69.8900  462.1200 C.ar      5 PHE5        0.0000 
     59 CZ        137.2000   74.7700  459.3900 C.ar      5 PHE5        0.0000 
     60 CZ        138.0500   71.4600  461.9100 C.ar      5 PHE5        0.0000 
     61 CZ        137.9200   75.6700  460.3400 C.ar      5 PHE5        0.0000 
     62 CA        138.6200   71.3600  454.4300 C.3       6 GLY6        0.0000 
     63 CA        137.5100   72.3600  454.3400 C.3       6 GLY6        0.0000 
     64 CA        137.9300   70.7000  455.5900 C.3       6 GLY6        0.0000 
     65 CA        136.8200   71.7000  455.4900 C.3       6 GLY6        0.0000 
     66 CA        137.1200   74.2600  455.1800 C.3       6 GLY6        0.0000 
     67 CA        137.5500   72.6100  456.4400 C.3       6 GLY6        0.0000 
     68 CA        136.8600   71.9500  457.6000 C.3       6 GLY6        0.0000 
     69 CA        141.1900   72.1800  456.4300 C.3       6 GLY6        0.0000 
     70 CA        140.5100   71.5200  457.5900 C.3       6 GLY6        0.0000 
     71 CA        137.1600   74.5100  457.2900 C.3       6 GLY6        0.0000 
     72 CA        139.9800   66.9000  462.4200 C.3       6 GLY6        0.0000 
     73 CA        138.8600   67.9000  462.3200 C.3       6 GLY6        0.0000 
     74 CA        139.9600   77.3900  454.7600 C.3       6 GLY6        0.0000 
     75 CA        139.2700   76.7300  455.9200 C.3       6 GLY6        0.0000 
     76 CA        137.4600   77.0700  456.9800 C.3       6 GLY6        0.0000 
     77 CA        136.7700   76.4200  458.1400 C.3       6 GLY6        0.0000 
     78 CA        140.2800   69.4600  462.1100 C.3       6 GLY6        0.0000 
     79 CA        139.1600   70.4600  462.0100 C.3       6 GLY6        0.0000 
     80 CA        139.9900   77.6400  456.8600 C.3       6 GLY6        0.0000 
     81 CA        138.1900   77.9800  457.9200 C.3       6 GLY6        0.0000 
     82 CA        137.5000   77.3300  459.0800 C.3       6 GLY6        0.0000 
     83 CA        139.8900   71.3700  462.9600 C.3       6 GLY6        0.0000 
     84 CA        140.7200   78.5500  457.8100 C.3       6 GLY6        0.0000 
     85 CA        138.4900   80.5400  457.6100 C.3       6 GLY6        0.0000 
     86 CA        142.2600   75.9000  459.1700 C.3       6 GLY6        0.0000 
     87 CA        138.9200   78.8900  458.8700 C.3       6 GLY6        0.0000 
     88 CA        137.8000   79.8900  458.7700 C.3       6 GLY6        0.0000 
     89 DU        138.6600   71.6100  456.5400 H         7 CUB7        0.0000 
     90 DU        138.8200   67.6500  460.2200 H         7 CUB7        0.0000 
     91 DU        140.0800   73.1700  456.3300 H         7 CUB7        0.0000 
     92 DU        138.9600   74.1700  456.2300 H         7 CUB7        0.0000 
     93 DU        139.3900   72.5200  457.4900 H         7 CUB7        0.0000 
     94 DU        138.2700   73.5200  457.3900 H         7 CUB7        0.0000 
     95 DU        139.8200   70.8600  458.7500 H         7 CUB7        0.0000 
     96 DU        139.1300   70.2100  459.9000 H         7 CUB7        0.0000 
     97 DU        139.5500   68.5500  461.1600 H         7 CUB7        0.0000 
     98 DU        139.6900   75.0800  457.1700 H         7 CUB7        0.0000 
     99 DU        138.5800   76.0800  457.0800 H         7 CUB7        0.0000 
    100 DU        139.0000   74.4200  458.3300 H         7 CUB7        0.0000 
    101 DU        137.8900   75.4200  458.2400 H         7 CUB7        0.0000 
    102 DU        140.4200   75.9900  458.1200 H         7 CUB7        0.0000 
    103 DU        139.3000   76.9800  458.0200 H         7 CUB7        0.0000 
    104 DU        138.6100   76.3300  459.1800 H         7 CUB7        0.0000 
    105 DU        141.8400   77.5500  457.9100 H         7 CUB7        0.0000 
@<TRIPOS>BOND
@<TRIPOS>SUBSTRUCTURE
     1 SER1        1 GROUP   
     2 ALA2        2 GROUP   
     3 ASP3       14 GROUP   
     4 LYS4       28 GROUP   
     5 PHE5       34 GROUP   
     6 GLY6       62 GROUP   
     7 CUB7       89 GROUP   
@<TRIPOS>SET

