#    Name: 6c5a_2_UPG
#    Modification time : Fri May 22 19:37:10 2020

@<TRIPOS>MOLECULE
6c5a_2_UPG
   36    38     1     0     0
SMALL
NO_CHARGES


@<TRIPOS>ATOM
      1 N1        106.5620   79.2740  410.1200 N.am      1 UPG502      0.0000 
      2 C2        107.7310   79.6690  410.7760 C.2       1 UPG502      0.0000 
      3 N3        108.9130   79.6850  410.0660 N.am      1 UPG502      0.0000 
      4 C4        108.9200   79.3260  408.7830 C.2       1 UPG502      0.0000 
      5 C5        107.7280   78.9180  408.1240 C.2       1 UPG502      0.0000 
      6 C6        106.5520   78.9080  408.8250 C.2       1 UPG502      0.0000 
      7 O2        107.7270   80.0090  411.9650 O.2       1 UPG502      0.0000 
      8 O4        110.0100   79.3670  408.2230 O.2       1 UPG502      0.0000 
      9 C1C       105.2940   79.2400  410.8840 C.3       1 UPG502      0.0000 
     10 C2C       104.1720   80.1090  410.3420 C.3       1 UPG502      0.0000 
     11 O2C       104.2670   81.4650  410.8570 O.3       1 UPG502      0.0000 
     12 C3C       102.9090   79.3600  410.8200 C.3       1 UPG502      0.0000 
     13 C4C       103.3620   77.9040  410.7910 C.3       1 UPG502      0.0000 
     14 O4C       104.8250   77.9250  410.8480 O.3       1 UPG502      0.0000 
     15 O3C       102.5310   79.7360  412.1520 O.3       1 UPG502      0.0000 
     16 C5C       102.9130   77.0890  409.6110 C.3       1 UPG502      0.0000 
     17 O5C       102.9940   77.9430  408.4610 O.3       1 UPG502      0.0000 
     18 PA        102.6880   77.3770  407.0010 P.3       1 UPG502      0.0000 
     19 O1A       103.0500   78.3430  405.9710 O.co2     1 UPG502      0.0000 
     20 O2A       103.2590   76.0300  406.7920 O.co2     1 UPG502      0.0000 
     21 O3A       101.0570   77.3850  406.9450 O.3       1 UPG502      0.0000 
     22 PB         99.9720   76.2570  407.1260 P.3       1 UPG502      0.0000 
     23 O1B        99.9840   75.6170  408.4430 O.co2     1 UPG502      0.0000 
     24 O2B        98.6820   76.9200  406.7440 O.co2     1 UPG502      0.0000 
     25 O3B       100.4170   75.1080  406.0470 O.3       1 UPG502      0.0000 
     26 C1'       100.9660   73.9170  406.5280 C.3       1 UPG502      0.0000 
     27 C2'       101.8280   73.2730  405.4240 C.3       1 UPG502      0.0000 
     28 C3'       100.9070   72.8610  404.2970 C.3       1 UPG502      0.0000 
     29 C4'        99.8360   71.9110  404.8170 C.3       1 UPG502      0.0000 
     30 C5'        99.0460   72.6410  405.9020 C.3       1 UPG502      0.0000 
     31 C6'        97.9870   71.7630  406.5310 C.3       1 UPG502      0.0000 
     32 O2'       102.8190   74.2230  404.9680 O.3       1 UPG502      0.0000 
     33 O3'       101.6730   72.1980  403.2810 O.3       1 UPG502      0.0000 
     34 O4'        98.9080   71.5450  403.7940 O.3       1 UPG502      0.0000 
     35 O5'        99.9360   72.9980  406.9710 O.3       1 UPG502      0.0000 
     36 O6'        98.4950   70.4340  406.8240 O.3       1 UPG502      0.0000 
@<TRIPOS>BOND
     1    1    2 1    
     2    1    6 1    
     3    1    9 1    
     4    2    3 1    
     5    2    7 2    
     6    3    4 1    
     7    4    5 1    
     8    4    8 2    
     9    5    6 2    
    10    9   10 1    
    11    9   14 1    
    12   10   11 1    
    13   10   12 1    
    14   12   13 1    
    15   12   15 1    
    16   13   14 1    
    17   13   16 1    
    18   16   17 1    
    19   17   18 1    
    20   18   19 ar   
    21   18   20 ar   
    22   18   21 1    
    23   21   22 1    
    24   22   23 ar   
    25   22   24 ar   
    26   22   25 1    
    27   25   26 1    
    28   26   27 1    
    29   26   35 1    
    30   27   28 1    
    31   27   32 1    
    32   28   29 1    
    33   28   33 1    
    34   29   30 1    
    35   29   34 1    
    36   30   31 1    
    37   30   35 1    
    38   31   36 1    
@<TRIPOS>SUBSTRUCTURE
     1 UPG502      1 GROUP   
@<TRIPOS>SET

