#    Name: 6c5a_5_UPG
#    Modification time : Fri May 22 19:37:28 2020

@<TRIPOS>MOLECULE
6c5a_5_UPG
   36    38     1     0     0
SMALL
NO_CHARGES


@<TRIPOS>ATOM
      1 N1        137.6920   73.5250  456.0740 N.am      1 UPG501      0.0000 
      2 C2        137.1980   74.4080  455.1080 C.2       1 UPG501      0.0000 
      3 N3        136.6690   75.6110  455.5340 N.am      1 UPG501      0.0000 
      4 C4        136.6380   75.9080  456.8390 C.2       1 UPG501      0.0000 
      5 C5        137.1430   75.0040  457.8140 C.2       1 UPG501      0.0000 
      6 C6        137.6670   73.8120  457.3890 C.2       1 UPG501      0.0000 
      7 O2        137.2250   74.1430  453.8990 O.2       1 UPG501      0.0000 
      8 O4        136.1560   76.9920  457.1370 O.2       1 UPG501      0.0000 
      9 C1C       138.2650   72.2290  455.6500 C.3       1 UPG501      0.0000 
     10 C2C       139.7190   72.0160  456.0540 C.3       1 UPG501      0.0000 
     11 O2C       140.6470   72.5700  455.0800 O.3       1 UPG501      0.0000 
     12 C3C       139.8230   70.4770  456.1770 C.3       1 UPG501      0.0000 
     13 C4C       138.4100   70.1000  456.6030 C.3       1 UPG501      0.0000 
     14 O4C       137.5380   71.2290  456.2790 O.3       1 UPG501      0.0000 
     15 O3C       140.2070   69.8270  454.9490 O.3       1 UPG501      0.0000 
     16 C5C       138.2480   69.7450  458.0530 C.3       1 UPG501      0.0000 
     17 O5C       139.2280   70.4840  458.7940 O.3       1 UPG501      0.0000 
     18 PA        139.3620   70.1670  460.3480 P.3       1 UPG501      0.0000 
     19 O1A       140.4220   70.9480  461.0110 O.co2     1 UPG501      0.0000 
     20 O2A       138.0160   70.1770  460.9760 O.co2     1 UPG501      0.0000 
     21 O3A       139.9870   68.6420  460.2800 O.3       1 UPG501      0.0000 
     22 PB        139.9620   67.3250  461.1590 P.3       1 UPG501      0.0000 
     23 O1B       139.5090   66.1600  460.4000 O.co2     1 UPG501      0.0000 
     24 O2B       141.3400   67.2650  461.7430 O.co2     1 UPG501      0.0000 
     25 O3B       138.8490   67.5590  462.3320 O.3       1 UPG501      0.0000 
     26 C1'       137.5210   67.1780  462.1500 C.3       1 UPG501      0.0000 
     27 C2'       136.6580   67.9230  463.1980 C.3       1 UPG501      0.0000 
     28 C3'       136.8640   67.3440  464.5860 C.3       1 UPG501      0.0000 
     29 C4'       136.6540   65.8360  464.6040 C.3       1 UPG501      0.0000 
     30 C5'       137.6060   65.2170  463.5760 C.3       1 UPG501      0.0000 
     31 C6'       137.4530   63.7080  463.4800 C.3       1 UPG501      0.0000 
     32 O2'       137.0250   69.3210  463.1930 O.3       1 UPG501      0.0000 
     33 O3'       135.9130   67.9250  465.4960 O.3       1 UPG501      0.0000 
     34 O4'       136.9770   65.2960  465.8930 O.3       1 UPG501      0.0000 
     35 O5'       137.3390   65.7410  462.2550 O.3       1 UPG501      0.0000 
     36 O6'       136.0850   63.2670  463.6880 O.3       1 UPG501      0.0000 
@<TRIPOS>BOND
     1    1    2 1    
     2    1    6 1    
     3    1    9 1    
     4    2    3 1    
     5    2    7 2    
     6    3    4 1    
     7    4    5 1    
     8    4    8 2    
     9    5    6 2    
    10    9   10 1    
    11    9   14 1    
    12   10   11 1    
    13   10   12 1    
    14   12   13 1    
    15   12   15 1    
    16   13   14 1    
    17   13   16 1    
    18   16   17 1    
    19   17   18 1    
    20   18   19 ar   
    21   18   20 ar   
    22   18   21 1    
    23   21   22 1    
    24   22   23 ar   
    25   22   24 ar   
    26   22   25 1    
    27   25   26 1    
    28   26   27 1    
    29   26   35 1    
    30   27   28 1    
    31   27   32 1    
    32   28   29 1    
    33   28   33 1    
    34   29   30 1    
    35   29   34 1    
    36   30   31 1    
    37   30   35 1    
    38   31   36 1    
@<TRIPOS>SUBSTRUCTURE
     1 UPG501      1 GROUP   
@<TRIPOS>SET

