#    Name: 6c5a_9_NAI
#    Modification time : Fri May 22 19:37:47 2020

@<TRIPOS>MOLECULE
6c5a_9_NAI
   44    48     1     0     1
SMALL
NO_CHARGES


@<TRIPOS>ATOM
      1 PA        144.7140   54.6890  463.9240 P.3       1 NAI500      0.0000 
      2 O1A       144.7480   53.7410  462.7880 O.co2     1 NAI500      0.0000 
      3 O2A       145.8600   55.6800  464.0020 O.co2     1 NAI500      0.0000 
      4 O5B       144.6800   53.9640  465.3530 O.3       1 NAI500      0.0000 
      5 C5B       144.1450   52.6430  465.5670 C.3       1 NAI500      0.0000 
      6 C4B       145.1830   51.8890  466.3530 C.3       1 NAI500      0.0000 
      7 O4B       144.5680   50.6610  466.8150 O.3       1 NAI500      0.0000 
      8 C3B       146.4000   51.4280  465.5110 C.3       1 NAI500      0.0000 
      9 O3B       147.6160   51.4960  466.2710 O.3       1 NAI500      0.0000 
     10 C2B       145.9770   49.9830  465.1430 C.3       1 NAI500      0.0000 
     11 O2B       147.1160   49.1620  464.7810 O.3       1 NAI500      0.0000 
     12 C1B       145.3540   49.5310  466.4580 C.3       1 NAI500      0.0000 
     13 N9A       144.4480   48.4130  466.3420 N.pl3     1 NAI500      0.0000 
     14 C8A       143.4970   48.1690  465.3960 C.2       1 NAI500      0.0000 
     15 N7A       142.8150   47.0270  465.5940 N.2       1 NAI500      0.0000 
     16 C5A       143.3900   46.5220  466.7490 C.ar      1 NAI500      0.0000 
     17 C6A       143.1320   45.3410  467.4990 C.ar      1 NAI500      0.0000 
     18 N6A       142.1900   44.4530  467.1470 N.pl3     1 NAI500      0.0000 
     19 N1A       143.8860   45.1450  468.5980 N.ar      1 NAI500      0.0000 
     20 C2A       144.8180   46.0380  468.9350 C.ar      1 NAI500      0.0000 
     21 N3A       145.1470   47.1680  468.3220 N.ar      1 NAI500      0.0000 
     22 C4A       144.3880   47.3530  467.2230 C.ar      1 NAI500      0.0000 
     23 O3        143.3240   55.4230  463.8690 O.3       1 NAI500      0.0000 
     24 PN        142.7500   56.7640  464.6090 P.3       1 NAI500      0.0000 
     25 O1N       143.0230   57.9040  463.7220 O.co2     1 NAI500      0.0000 
     26 O2N       143.2790   56.8710  465.9780 O.co2     1 NAI500      0.0000 
     27 O5D       141.1640   56.4990  464.6830 O.3       1 NAI500      0.0000 
     28 C5D       140.5960   55.7850  465.7940 C.3       1 NAI500      0.0000 
     29 C4D       139.0830   56.0120  465.8060 C.3       1 NAI500      0.0000 
     30 O4D       138.7600   57.3210  466.4040 O.3       1 NAI500      0.0000 
     31 C3D       138.3030   55.9470  464.5060 C.3       1 NAI500      0.0000 
     32 O3D       137.0370   55.2790  464.6630 O.3       1 NAI500      0.0000 
     33 C2D       138.0880   57.4430  464.1890 C.3       1 NAI500      0.0000 
     34 O2D       136.9410   57.6380  463.3270 O.3       1 NAI500      0.0000 
     35 C1D       137.8800   58.0190  465.5780 C.3       1 NAI500      0.0000 
     36 N1N       138.2110   59.4260  465.6730 N.pl3     1 NAI500      0.0000 
     37 C2N       139.1830   59.9340  464.8390 C.2       1 NAI500      0.0000 
     38 C3N       139.7490   61.1770  465.0380 C.2       1 NAI500      0.0000 
     39 C7N       140.8180   61.7620  464.1130 C.2       1 NAI500      0.0000 
     40 O7N       140.9340   62.9750  464.0320 O.2       1 NAI500      0.0000 
     41 N7N       141.6260   60.9480  463.3920 N.am      1 NAI500      0.0000 
     42 C4N       139.1000   62.0860  465.9550 C.3       1 NAI500      0.0000 
     43 C5N       137.9970   61.4650  466.7560 C.2       1 NAI500      0.0000 
     44 C6N       137.5160   60.2050  466.6270 C.2       1 NAI500      0.0000 
@<TRIPOS>BOND
     1    1    2 ar   
     2    1    3 ar   
     3    1    4 1    
     4    1   23 1    
     5    4    5 1    
     6    5    6 1    
     7    6    7 1    
     8    6    8 1    
     9    7   12 1    
    10    8    9 1    
    11    8   10 1    
    12   10   11 1    
    13   10   12 1    
    14   12   13 1    
    15   13   14 1    
    16   13   22 1    
    17   14   15 2    
    18   15   16 1    
    19   16   17 ar   
    20   16   22 ar   
    21   17   18 1    
    22   17   19 ar   
    23   19   20 ar   
    24   20   21 ar   
    25   21   22 ar   
    26   23   24 1    
    27   24   25 ar   
    28   24   26 ar   
    29   24   27 1    
    30   27   28 1    
    31   28   29 1    
    32   29   30 1    
    33   29   31 1    
    34   30   35 1    
    35   31   32 1    
    36   31   33 1    
    37   33   34 1    
    38   33   35 1    
    39   35   36 1    
    40   36   37 1    
    41   36   44 1    
    42   37   38 2    
    43   38   39 1    
    44   38   42 1    
    45   39   40 2    
    46   39   41 am   
    47   42   43 1    
    48   43   44 2    
@<TRIPOS>SUBSTRUCTURE
     1 NAI500      1 GROUP   
@<TRIPOS>SET
ATOM$ORANGE STATIC     ATOMS   COLORGROUP SYSTEM 
42 5 5 6 6 8 8 10 10 12 12 14 14 16 16 17 17 20 \
20 22 22 28 28 29 29 31 31 33 33 35 35 37 37 38 38 39 \
39 42 42 43 43 44 44 

