#    Name: 6rjo_2_SA0_CAVITY_N1_ALL
#    Modification time : Fri May 22 19:26:04 2020

@<TRIPOS>MOLECULE
6rjo_2_SA0_CAVITY_N1_ALL
   74     0     6     0     0
SMALL
NO_CHARGES


@<TRIPOS>ATOM
      1 OG         45.0300   41.4200    8.7900 O.3       1 SER1        0.0000 
      2 OG         43.9400   41.0500    9.7600 O.3       1 SER1        0.0000 
      3 OG         49.5000   41.6100    9.2300 O.3       1 SER1        0.0000 
      4 OG         48.4200   41.2400   10.2000 O.3       1 SER1        0.0000 
      5 OG         48.7900   42.4200   11.0500 O.3       1 SER1        0.0000 
      6 OG         44.2000   46.6600    9.8300 O.3       1 SER1        0.0000 
      7 OG         44.5700   47.8400   10.6800 O.3       1 SER1        0.0000 
      8 O          43.8300   39.8400   11.5000 O.2       2 ALA2        0.0000 
      9 O          48.6500   43.6800    6.7300 O.2       2 ALA2        0.0000 
     10 O          49.6200   42.8200    7.4900 O.2       2 ALA2        0.0000 
     11 O          48.5300   42.4600    8.4600 O.2       2 ALA2        0.0000 
     12 O          45.2800   41.3800   11.3800 O.2       2 ALA2        0.0000 
     13 O          44.2000   41.0100   12.3500 O.2       2 ALA2        0.0000 
     14 O          49.0200   44.8600    7.5800 O.2       2 ALA2        0.0000 
     15 N          47.9400   44.5000    8.5600 N.am      2 ALA2        0.0000 
     16 N          46.8500   44.1300    9.5300 N.am      2 ALA2        0.0000 
     17 N          48.9100   43.6400    9.3200 N.am      2 ALA2        0.0000 
     18 N          47.8200   43.2800   10.2900 N.am      2 ALA2        0.0000 
     19 N          47.3400   46.5300    8.6500 N.am      2 ALA2        0.0000 
     20 N          47.2200   45.3100   10.3800 N.am      2 ALA2        0.0000 
     21 NZ         42.9800   41.9100    9.0000 N.4       3 LYS4        0.0000 
     22 NZ         42.8600   40.6900   10.7300 N.4       3 LYS4        0.0000 
     23 NZ         46.0000   40.5600    9.5500 N.4       3 LYS4        0.0000 
     24 NZ         44.9100   40.2000   10.5200 N.4       3 LYS4        0.0000 
     25 NZ         43.3500   43.0900    9.8500 N.4       3 LYS4        0.0000 
     26 NZ         43.2300   41.8700   11.5900 N.4       3 LYS4        0.0000 
     27 NZ         46.3700   41.7400   10.4100 N.4       3 LYS4        0.0000 
     28 NZ         47.3300   40.8800   11.1700 N.4       3 LYS4        0.0000 
     29 NZ         46.2500   40.5200   12.1400 N.4       3 LYS4        0.0000 
     30 CZ         44.0600   42.2700    8.0300 C.ar      4 PHE5        0.0000 
     31 CZ         48.1600   41.2800    7.6100 C.ar      4 PHE5        0.0000 
     32 CZ         46.6000   44.1700    6.9400 C.ar      4 PHE5        0.0000 
     33 CZ         45.5100   43.8100    7.9100 C.ar      4 PHE5        0.0000 
     34 CZ         44.4300   43.4500    8.8800 C.ar      4 PHE5        0.0000 
     35 CZ         47.5700   43.3200    7.7000 C.ar      4 PHE5        0.0000 
     36 CZ         46.4800   42.9600    8.6700 C.ar      4 PHE5        0.0000 
     37 CZ         44.3100   42.2300   10.6200 C.ar      4 PHE5        0.0000 
     38 CZ         47.4500   42.1000    9.4300 C.ar      4 PHE5        0.0000 
     39 CZ         46.0000   46.2100    7.0300 C.ar      4 PHE5        0.0000 
     40 CZ         44.9200   45.8500    8.0000 C.ar      4 PHE5        0.0000 
     41 CZ         43.8300   45.4800    8.9700 C.ar      4 PHE5        0.0000 
     42 CZ         45.8900   44.9900    8.7600 C.ar      4 PHE5        0.0000 
     43 CZ         44.8000   44.6300    9.7400 C.ar      4 PHE5        0.0000 
     44 CZ         43.7200   44.2700   10.7100 C.ar      4 PHE5        0.0000 
     45 CZ         45.7700   43.7700   10.5000 C.ar      4 PHE5        0.0000 
     46 CZ         44.6800   43.4100   11.4700 C.ar      4 PHE5        0.0000 
     47 CZ         46.7400   42.9100   11.2600 C.ar      4 PHE5        0.0000 
     48 CZ         45.6500   42.5500   12.2300 C.ar      4 PHE5        0.0000 
     49 CZ         45.4000   48.2400    7.1200 C.ar      4 PHE5        0.0000 
     50 CZ         44.3200   47.8800    8.0900 C.ar      4 PHE5        0.0000 
     51 CZ         48.5400   48.1100    5.9400 C.ar      4 PHE5        0.0000 
     52 CZ         47.4600   47.7500    6.9100 C.ar      4 PHE5        0.0000 
     53 CZ         45.2900   47.0200    8.8600 C.ar      4 PHE5        0.0000 
     54 CZ         48.4200   46.8900    7.6800 C.ar      4 PHE5        0.0000 
     55 CZ         45.1700   45.8000   10.5900 C.ar      4 PHE5        0.0000 
     56 CZ         44.0900   45.4400   11.5600 C.ar      4 PHE5        0.0000 
     57 CZ         46.1400   44.9500   11.3500 C.ar      4 PHE5        0.0000 
     58 CZ         47.9400   50.1400    6.0300 C.ar      4 PHE5        0.0000 
     59 CZ         47.8300   48.9200    7.7700 C.ar      4 PHE5        0.0000 
     60 CA         46.2600   46.1700    9.6200 C.3       5 GLY6        0.0000 
     61 CA         45.7800   49.4200    7.9800 C.3       5 GLY6        0.0000 
     62 CA         44.6900   49.0600    8.9500 C.3       5 GLY6        0.0000 
     63 CA         46.7400   48.5600    8.7400 C.3       5 GLY6        0.0000 
     64 CA         45.6600   48.2000    9.7100 C.3       5 GLY6        0.0000 
     65 CA         47.2300   50.9600    7.8600 C.3       5 GLY6        0.0000 
     66 CA         46.1500   50.6000    8.8300 C.3       5 GLY6        0.0000 
     67 CA         45.0600   50.2300    9.8000 C.3       5 GLY6        0.0000 
     68 DU         45.4000   42.5900    9.6400 H         6 CUB7        0.0000 
     69 DU         48.0500   45.7100    6.8200 H         6 CUB7        0.0000 
     70 DU         46.9700   45.3500    7.7900 H         6 CUB7        0.0000 
     71 DU         47.5700   48.9700    5.1800 H         6 CUB7        0.0000 
     72 DU         46.4900   48.6000    6.1500 H         6 CUB7        0.0000 
     73 DU         46.3700   47.3900    7.8900 H         6 CUB7        0.0000 
     74 DU         46.8600   49.7800    7.0100 H         6 CUB7        0.0000 
@<TRIPOS>BOND
@<TRIPOS>SUBSTRUCTURE
     1 SER1        1 GROUP   
     2 ALA2        8 GROUP   
     3 LYS4       21 GROUP   
     4 PHE5       30 GROUP   
     5 GLY6       60 GROUP   
     6 CUB7       68 GROUP   
@<TRIPOS>SET

