#    Name: 6rjo_2_SA0
#    Modification time : Fri May 22 19:26:03 2020

@<TRIPOS>MOLECULE
6rjo_2_SA0
   20    21     1     0     0
SMALL
NO_CHARGES


@<TRIPOS>ATOM
      1 C1         46.1380   41.9040   10.0640 C.3       1 SA0501      0.0000 
      2 O1         47.1060   42.8450   10.1560 O.3       1 SA0501      0.0000 
      3 C2         46.0750   41.2260   11.4210 C.3       1 SA0501      0.0000 
      4 O2         47.2400   40.4450   11.7460 O.3       1 SA0501      0.0000 
      5 C3         44.8590   40.5000   11.7400 C.3       1 SA0501      0.0000 
      6 O3         44.8580   40.2420   13.1870 O.3       1 SA0501      0.0000 
      7 C4         43.6620   41.2600   11.3330 C.3       1 SA0501      0.0000 
      8 O4         42.5390   40.4300   11.4920 O.3       1 SA0501      0.0000 
      9 C5         43.7040   41.7900    9.9060 C.3       1 SA0501      0.0000 
     10 O5         44.8800   42.5800    9.6730 O.3       1 SA0501      0.0000 
     11 C6         42.5250   42.6120    9.5490 C.3       1 SA0501      0.0000 
     12 O6         42.0690   43.6590   10.3470 O.3       1 SA0501      0.0000 
     13 OAA        44.7080   46.4360    9.9000 O.3       1 SA0501      0.0000 
     14 CAF        47.4070   45.5820    6.9520 C.ar      1 SA0501      0.0000 
     15 CAG        48.1120   44.3480    6.9340 C.ar      1 SA0501      0.0000 
     16 CAH        46.6020   45.9050    8.0400 C.ar      1 SA0501      0.0000 
     17 CAI        47.9950   43.4580    8.0030 C.ar      1 SA0501      0.0000 
     18 CAJ        45.6040   45.4190   10.2340 C.3       1 SA0501      0.0000 
     19 CAN        46.4830   45.0050    9.1300 C.ar      1 SA0501      0.0000 
     20 CAO        47.1730   43.7590    9.1110 C.ar      1 SA0501      0.0000 
@<TRIPOS>BOND
     1    1    2 1    
     2    1    3 1    
     3    1   10 1    
     4    2   20 1    
     5    3    4 1    
     6    3    5 1    
     7    5    6 1    
     8    5    7 1    
     9    7    8 1    
    10    7    9 1    
    11    9   10 1    
    12    9   11 1    
    13   11   12 1    
    14   13   18 1    
    15   14   15 ar   
    16   14   16 ar   
    17   15   17 ar   
    18   16   19 ar   
    19   17   20 ar   
    20   18   19 1    
    21   19   20 ar   
@<TRIPOS>SUBSTRUCTURE
     1 SA0501      1 GROUP   
@<TRIPOS>SET

