#    Name: 6rjo_1_SA0_CAVITY_N1_4
#    Modification time : Fri May 22 19:26:00 2020

@<TRIPOS>MOLECULE
6rjo_1_SA0_CAVITY_N1_4
   74     0     6     0     0
SMALL
NO_CHARGES


@<TRIPOS>ATOM
      1 OG         50.6700   74.2300   29.6500 O.3       1 SER1        0.0000 
      2 OG         49.5900   73.8600   30.6200 O.3       1 SER1        0.0000 
      3 OG         50.5600   73.0100   31.3800 O.3       1 SER1        0.0000 
      4 OG         51.9200   76.5000   36.5300 O.3       1 SER1        0.0000 
      5 OG         50.8400   76.1400   37.5000 O.3       1 SER1        0.0000 
      6 O          45.8500   76.0300   31.8900 O.2       2 ALA2        0.0000 
      7 N          47.9100   75.5400   31.6800 N.am      2 ALA2        0.0000 
      8 N          46.8200   75.1700   32.6600 N.am      2 ALA2        0.0000 
      9 N          48.8700   74.6800   32.4500 N.am      2 ALA2        0.0000 
     10 N          47.7900   74.3200   33.4200 N.am      2 ALA2        0.0000 
     11 O          45.2600   78.0600   31.9900 O.2       2 ALA2        0.0000 
     12 O          46.2300   77.2100   32.7500 O.2       2 ALA2        0.0000 
     13 N          47.1900   76.3500   33.5100 N.am      2 ALA2        0.0000 
     14 O          46.1100   75.9900   34.4800 O.2       2 ALA2        0.0000 
     15 N          48.1600   75.4900   34.2700 N.am      2 ALA2        0.0000 
     16 N          47.0800   75.1300   35.2400 N.am      2 ALA2        0.0000 
     17 O          50.1000   73.7800   35.7900 O.2       2 ALA2        0.0000 
     18 O          51.4300   74.1000   37.4100 O.2       2 ALA2        0.0000 
     19 NZ         52.2700   74.5100   33.8500 N.4       3 LYS4        0.0000 
     20 NZ         48.4100   75.4500   36.8600 N.4       3 LYS4        0.0000 
     21 NZ         52.6400   75.6800   34.7000 N.4       3 LYS4        0.0000 
     22 NZ         51.5500   75.3200   35.6700 N.4       3 LYS4        0.0000 
     23 NZ         50.4700   74.9600   36.6500 N.4       3 LYS4        0.0000 
     24 NZ         49.3800   74.6000   37.6200 N.4       3 LYS4        0.0000 
     25 CZ         46.5700   75.2200   30.0700 C.ar      4 PHE5        0.0000 
     26 CZ         48.5000   73.5000   31.5900 C.ar      4 PHE5        0.0000 
     27 CZ         46.0900   78.4700   28.4300 C.ar      4 PHE5        0.0000 
     28 CZ         47.0600   77.6100   29.1900 C.ar      4 PHE5        0.0000 
     29 CZ         45.9700   77.2500   30.1600 C.ar      4 PHE5        0.0000 
     30 CZ         49.1100   77.1200   28.9800 C.ar      4 PHE5        0.0000 
     31 CZ         46.9400   76.3900   30.9200 C.ar      4 PHE5        0.0000 
     32 CZ         50.0800   76.2600   29.7400 C.ar      4 PHE5        0.0000 
     33 CZ         48.9900   75.9000   30.7100 C.ar      4 PHE5        0.0000 
     34 CZ         51.0400   75.4000   30.5000 C.ar      4 PHE5        0.0000 
     35 CZ         49.9600   75.0400   31.4800 C.ar      4 PHE5        0.0000 
     36 CZ         49.8400   73.8200   33.2100 C.ar      4 PHE5        0.0000 
     37 CZ         48.7600   73.4600   34.1800 C.ar      4 PHE5        0.0000 
     38 CZ         50.8100   72.9700   33.9700 C.ar      4 PHE5        0.0000 
     39 CZ         48.5100   79.1500   29.0700 C.ar      4 PHE5        0.0000 
     40 CZ         49.4800   78.2900   29.8300 C.ar      4 PHE5        0.0000 
     41 CZ         48.3900   77.9300   30.8100 C.ar      4 PHE5        0.0000 
     42 CZ         49.3600   77.0800   31.5700 C.ar      4 PHE5        0.0000 
     43 CZ         48.2800   76.7100   32.5400 C.ar      4 PHE5        0.0000 
     44 CZ         50.3300   76.2200   32.3300 C.ar      4 PHE5        0.0000 
     45 CZ         49.2500   75.8600   33.3000 C.ar      4 PHE5        0.0000 
     46 CZ         51.3000   75.3600   33.0900 C.ar      4 PHE5        0.0000 
     47 CZ         49.1300   74.6400   35.0300 C.ar      4 PHE5        0.0000 
     48 CZ         51.1800   74.1400   34.8200 C.ar      4 PHE5        0.0000 
     49 CZ         49.0100   73.4200   36.7600 C.ar      4 PHE5        0.0000 
     50 CZ         48.7600   79.1100   31.6600 C.ar      4 PHE5        0.0000 
     51 CZ         46.6000   78.3800   33.6000 C.ar      4 PHE5        0.0000 
     52 CZ         48.6500   77.8900   33.3900 C.ar      4 PHE5        0.0000 
     53 CZ         47.5600   77.5300   34.3600 C.ar      4 PHE5        0.0000 
     54 CZ         46.4800   77.1700   35.3300 C.ar      4 PHE5        0.0000 
     55 CZ         49.6200   77.0300   34.1500 C.ar      4 PHE5        0.0000 
     56 CZ         48.5300   76.6700   35.1200 C.ar      4 PHE5        0.0000 
     57 CZ         47.4500   76.3100   36.0900 C.ar      4 PHE5        0.0000 
     58 CZ         51.6700   76.5400   33.9400 C.ar      4 PHE5        0.0000 
     59 CZ         50.5800   76.1800   34.9100 C.ar      4 PHE5        0.0000 
     60 CZ         49.5000   75.8100   35.8800 C.ar      4 PHE5        0.0000 
     61 CZ         49.9900   78.2100   35.0000 C.ar      4 PHE5        0.0000 
     62 CZ         52.0400   77.7200   34.8000 C.ar      4 PHE5        0.0000 
     63 CZ         50.9500   77.3500   35.7700 C.ar      4 PHE5        0.0000 
     64 CZ         53.0100   76.8600   35.5600 C.ar      4 PHE5        0.0000 
     65 CA         49.3300   73.9100   28.0400 C.3       5 GLY6        0.0000 
     66 CA         47.6500   75.5800   29.1000 C.3       5 GLY6        0.0000 
     67 CA         49.7100   75.0800   28.8900 C.3       5 GLY6        0.0000 
     68 CA         48.6200   74.7200   29.8600 C.3       5 GLY6        0.0000 
     69 CA         47.5400   74.3600   30.8300 C.3       5 GLY6        0.0000 
     70 DU         48.0200   76.7500   29.9500 H         6 CUB7        0.0000 
     71 DU         46.4600   79.6400   29.2800 H         6 CUB7        0.0000 
     72 DU         47.4300   78.7900   30.0400 H         6 CUB7        0.0000 
     73 DU         47.3100   77.5700   31.7800 H         6 CUB7        0.0000 
     74 DU         50.2100   75.0000   34.0600 H         6 CUB7        0.0000 
@<TRIPOS>BOND
@<TRIPOS>SUBSTRUCTURE
     1 SER1        1 GROUP   
     2 ALA2        6 GROUP   
     3 LYS4       19 GROUP   
     4 PHE5       25 GROUP   
     5 GLY6       65 GROUP   
     6 CUB7       70 GROUP   
@<TRIPOS>SET

