#    Name: 6rjo_1_SA0
#    Modification time : Fri May 22 19:25:59 2020

@<TRIPOS>MOLECULE
6rjo_1_SA0
   20    21     1     0     0
SMALL
NO_CHARGES


@<TRIPOS>ATOM
      1 C1         49.0500   75.1770   35.8130 C.3       1 SA0501      0.0000 
      2 O1         48.2810   74.5980   34.8700 O.3       1 SA0501      0.0000 
      3 C2         49.1540   74.1340   36.9070 C.3       1 SA0501      0.0000 
      4 O2         47.9990   74.0680   37.7590 O.3       1 SA0501      0.0000 
      5 C3         50.3830   74.0790   37.6720 C.3       1 SA0501      0.0000 
      6 O3         50.4190   72.7690   38.3010 O.3       1 SA0501      0.0000 
      7 C4         51.5660   74.2770   36.8170 C.3       1 SA0501      0.0000 
      8 O4         52.7060   74.3110   37.6470 O.3       1 SA0501      0.0000 
      9 C5         51.4830   75.5420   35.9800 C.3       1 SA0501      0.0000 
     10 O5         50.3190   75.5530   35.1450 O.3       1 SA0501      0.0000 
     11 C6         52.6640   75.7450   35.1090 C.3       1 SA0501      0.0000 
     12 O6         53.0890   74.7940   34.1780 O.3       1 SA0501      0.0000 
     13 OAA        50.2020   74.1950   31.0630 O.3       1 SA0501      0.0000 
     14 CAF        47.3920   77.1660   31.6730 C.ar      1 SA0501      0.0000 
     15 CAG        46.8270   77.3850   32.9590 C.ar      1 SA0501      0.0000 
     16 CAH        48.2500   76.0870   31.4580 C.ar      1 SA0501      0.0000 
     17 CAI        47.1340   76.5170   34.0100 C.ar      1 SA0501      0.0000 
     18 CAJ        49.4880   74.0820   32.2490 C.3       1 SA0501      0.0000 
     19 CAN        48.5710   75.2040   32.5240 C.ar      1 SA0501      0.0000 
     20 CAO        48.0130   75.4310   33.8080 C.ar      1 SA0501      0.0000 
@<TRIPOS>BOND
     1    1    2 1    
     2    1    3 1    
     3    1   10 1    
     4    2   20 1    
     5    3    4 1    
     6    3    5 1    
     7    5    6 1    
     8    5    7 1    
     9    7    8 1    
    10    7    9 1    
    11    9   10 1    
    12    9   11 1    
    13   11   12 1    
    14   13   18 1    
    15   14   15 ar   
    16   14   16 ar   
    17   15   17 ar   
    18   16   19 ar   
    19   17   20 ar   
    20   18   19 1    
    21   19   20 ar   
@<TRIPOS>SUBSTRUCTURE
     1 SA0501      1 GROUP   
@<TRIPOS>SET

