#    Name: 6qun_1_NAD
#    Modification time : Fri May 22 19:31:39 2020

@<TRIPOS>MOLECULE
6qun_1_NAD
   44    48     1     0     1
SMALL
NO_CHARGES


@<TRIPOS>ATOM
      1 PA         39.3360   44.6090  245.0210 P.3       1 NAD401      0.0000 
      2 O1A        38.6160   44.7470  243.7330 O.co2     1 NAD401      0.0000 
      3 O2A        39.1450   43.2660  245.6110 O.co2     1 NAD401      0.0000 
      4 O5B        38.8480   45.7710  246.0140 O.3       1 NAD401      0.0000 
      5 C5B        38.2850   46.9770  245.5570 C.3       1 NAD401      0.0000 
      6 C4B        36.9650   47.1240  246.3040 C.3       1 NAD401      0.0000 
      7 O4B        36.5680   48.4760  246.4040 O.3       1 NAD401      0.0000 
      8 C3B        35.8500   46.3760  245.5840 C.3       1 NAD401      0.0000 
      9 O3B        35.3560   45.3380  246.4000 O.3       1 NAD401      0.0000 
     10 C2B        34.7690   47.4090  245.3390 C.3       1 NAD401      0.0000 
     11 O2B        33.5080   46.9000  245.7050 O.3       1 NAD401      0.0000 
     12 C1B        35.1680   48.5680  246.2360 C.3       1 NAD401      0.0000 
     13 N9A        34.8190   49.8600  245.6290 N.pl3     1 NAD401      0.0000 
     14 C8A        34.8690   50.1690  244.2970 C.2       1 NAD401      0.0000 
     15 N7A        34.4800   51.4560  244.1480 N.2       1 NAD401      0.0000 
     16 C5A        34.1880   51.9730  245.3650 C.ar      1 NAD401      0.0000 
     17 C6A        33.7500   53.2280  245.7770 C.ar      1 NAD401      0.0000 
     18 N6A        33.7800   54.2590  244.9380 N.pl3     1 NAD401      0.0000 
     19 N1A        33.5330   53.4610  247.1190 N.ar      1 NAD401      0.0000 
     20 C2A        33.7540   52.4590  248.0400 C.ar      1 NAD401      0.0000 
     21 N3A        34.1840   51.2170  247.6220 N.ar      1 NAD401      0.0000 
     22 C4A        34.3990   50.9760  246.3060 C.ar      1 NAD401      0.0000 
     23 O3         40.8970   44.9390  244.8280 O.3       1 NAD401      0.0000 
     24 PN         41.9570   44.6080  245.9960 P.3       1 NAD401      0.0000 
     25 O1N        42.6560   43.3440  245.6670 O.co2     1 NAD401      0.0000 
     26 O2N        41.2900   44.7730  247.3080 O.co2     1 NAD401      0.0000 
     27 O5D        42.9780   45.8310  245.7750 O.3       1 NAD401      0.0000 
     28 C5D        42.5200   47.1610  245.8890 C.3       1 NAD401      0.0000 
     29 C4D        43.7220   48.0710  246.0740 C.3       1 NAD401      0.0000 
     30 O4D        44.6570   47.4210  246.9110 O.3       1 NAD401      0.0000 
     31 C3D        44.4190   48.3160  244.7440 C.3       1 NAD401      0.0000 
     32 O3D        44.8460   49.6550  244.7090 O.3       1 NAD401      0.0000 
     33 C2D        45.6220   47.4070  244.7930 C.3       1 NAD401      0.0000 
     34 O2D        46.6940   47.9760  244.0820 O.3       1 NAD401      0.0000 
     35 C1D        45.9210   47.3980  246.2770 C.3       1 NAD401      0.0000 
     36 N1N        46.7010   46.2230  246.6970 N.pl3     1 NAD401      0.0000 
     37 C2N        46.1590   44.9840  246.5130 C.ar      1 NAD401      0.0000 
     38 C3N        46.8560   43.8460  246.8960 C.ar      1 NAD401      0.0000 
     39 C7N        46.4160   42.5040  246.3880 C.2       1 NAD401      0.0000 
     40 O7N        47.3170   41.4190  246.4220 O.2       1 NAD401      0.0000 
     41 N7N        45.1770   42.3760  245.9160 N.am      1 NAD401      0.0000 
     42 C4N        48.1120   43.9880  247.4710 C.ar      1 NAD401      0.0000 
     43 C5N        48.6550   45.2550  247.6510 C.ar      1 NAD401      0.0000 
     44 C6N        47.9350   46.3770  247.2600 C.ar      1 NAD401      0.0000 
@<TRIPOS>BOND
     1    1    2 ar   
     2    1    3 ar   
     3    1    4 1    
     4    1   23 1    
     5    4    5 1    
     6    5    6 1    
     7    6    7 1    
     8    6    8 1    
     9    7   12 1    
    10    8    9 1    
    11    8   10 1    
    12   10   11 1    
    13   10   12 1    
    14   12   13 1    
    15   13   14 1    
    16   13   22 1    
    17   14   15 2    
    18   15   16 1    
    19   16   17 ar   
    20   16   22 ar   
    21   17   18 1    
    22   17   19 ar   
    23   19   20 ar   
    24   20   21 ar   
    25   21   22 ar   
    26   23   24 1    
    27   24   25 ar   
    28   24   26 ar   
    29   24   27 1    
    30   27   28 1    
    31   28   29 1    
    32   29   30 1    
    33   29   31 1    
    34   30   35 1    
    35   31   32 1    
    36   31   33 1    
    37   33   34 1    
    38   33   35 1    
    39   35   36 1    
    40   36   37 ar   
    41   36   44 ar   
    42   37   38 ar   
    43   38   39 1    
    44   38   42 ar   
    45   39   40 2    
    46   39   41 am   
    47   42   43 ar   
    48   43   44 ar   
@<TRIPOS>SUBSTRUCTURE
     1 NAD401      1 GROUP   
@<TRIPOS>SET
ATOM$ORANGE STATIC     ATOMS   COLORGROUP SYSTEM 
42 5 5 6 6 8 8 10 10 12 12 14 14 16 16 17 17 20 \
20 22 22 28 28 29 29 31 31 33 33 35 35 37 37 38 38 39 \
39 42 42 43 43 44 44 

