#    Name: 6qun_2_NAD
#    Modification time : Fri May 22 19:31:48 2020

@<TRIPOS>MOLECULE
6qun_2_NAD
   44    48     1     0     1
SMALL
NO_CHARGES


@<TRIPOS>ATOM
      1 PA         32.4270   38.3700  226.9250 P.3       1 NAD401      0.0000 
      2 O1A        32.6460   39.2190  228.1170 O.co2     1 NAD401      0.0000 
      3 O2A        33.6780   37.7110  226.4870 O.co2     1 NAD401      0.0000 
      4 O5B        31.7700   39.2280  225.7400 O.3       1 NAD401      0.0000 
      5 C5B        31.0100   40.3980  225.9330 C.3       1 NAD401      0.0000 
      6 C4B        31.6300   41.4550  225.0300 C.3       1 NAD401      0.0000 
      7 O4B        30.6920   42.4370  224.6570 O.3       1 NAD401      0.0000 
      8 C3B        32.7790   42.1680  225.7280 C.3       1 NAD401      0.0000 
      9 O3B        33.9880   41.9080  225.0550 O.3       1 NAD401      0.0000 
     10 C2B        32.4290   43.6400  225.6500 C.3       1 NAD401      0.0000 
     11 O2B        33.5420   44.3720  225.1990 O.3       1 NAD401      0.0000 
     12 C1B        31.3090   43.7030  224.6260 C.3       1 NAD401      0.0000 
     13 N9A        30.2940   44.7130  224.9520 N.pl3     1 NAD401      0.0000 
     14 C8A        29.8590   45.0890  226.1950 C.2       1 NAD401      0.0000 
     15 N7A        28.9090   46.0390  226.0410 N.2       1 NAD401      0.0000 
     16 C5A        28.7270   46.2640  224.7210 C.ar      1 NAD401      0.0000 
     17 C6A        27.8860   47.1200  224.0230 C.ar      1 NAD401      0.0000 
     18 N6A        26.9410   47.7880  224.6770 N.pl3     1 NAD401      0.0000 
     19 N1A        27.9180   47.1370  222.6430 N.ar      1 NAD401      0.0000 
     20 C2A        28.7810   46.2990  221.9670 C.ar      1 NAD401      0.0000 
     21 N3A        29.6170   45.4570  222.6710 N.ar      1 NAD401      0.0000 
     22 C4A        29.5920   45.4370  224.0250 C.ar      1 NAD401      0.0000 
     23 O3         31.2720   37.2890  227.2050 O.3       1 NAD401      0.0000 
     24 PN         31.0770   36.0680  226.1810 P.3       1 NAD401      0.0000 
     25 O1N        31.7090   34.8660  226.7680 O.co2     1 NAD401      0.0000 
     26 O2N        31.4440   36.5320  224.8240 O.co2     1 NAD401      0.0000 
     27 O5D        29.4860   35.8580  226.2330 O.3       1 NAD401      0.0000 
     28 C5D        28.6170   36.9040  225.8640 C.3       1 NAD401      0.0000 
     29 C4D        27.2700   36.2830  225.5480 C.3       1 NAD401      0.0000 
     30 O4D        27.5290   35.0620  224.8860 O.3       1 NAD401      0.0000 
     31 C3D        26.4990   35.9500  226.8170 C.3       1 NAD401      0.0000 
     32 O3D        25.1370   36.2190  226.5940 O.3       1 NAD401      0.0000 
     33 C2D        26.7110   34.4650  226.9760 C.3       1 NAD401      0.0000 
     34 O2D        25.5720   33.8800  227.5520 O.3       1 NAD401      0.0000 
     35 C1D        26.8360   34.0190  225.5370 C.3       1 NAD401      0.0000 
     36 N1N        27.5540   32.7440  225.4060 N.pl3     1 NAD401      0.0000 
     37 C2N        28.8380   32.6520  225.8550 C.ar      1 NAD401      0.0000 
     38 C3N        29.5250   31.4540  225.7280 C.ar      1 NAD401      0.0000 
     39 C7N        30.9320   31.3440  226.2160 C.2       1 NAD401      0.0000 
     40 O7N        31.4670   30.0630  226.4560 O.2       1 NAD401      0.0000 
     41 N7N        31.6250   32.4630  226.4060 N.am      1 NAD401      0.0000 
     42 C4N        28.9140   30.3560  225.1430 C.ar      1 NAD401      0.0000 
     43 C5N        27.6100   30.4690  224.6890 C.ar      1 NAD401      0.0000 
     44 C6N        26.9380   31.6770  224.8240 C.ar      1 NAD401      0.0000 
@<TRIPOS>BOND
     1    1    2 ar   
     2    1    3 ar   
     3    1    4 1    
     4    1   23 1    
     5    4    5 1    
     6    5    6 1    
     7    6    7 1    
     8    6    8 1    
     9    7   12 1    
    10    8    9 1    
    11    8   10 1    
    12   10   11 1    
    13   10   12 1    
    14   12   13 1    
    15   13   14 1    
    16   13   22 1    
    17   14   15 2    
    18   15   16 1    
    19   16   17 ar   
    20   16   22 ar   
    21   17   18 1    
    22   17   19 ar   
    23   19   20 ar   
    24   20   21 ar   
    25   21   22 ar   
    26   23   24 1    
    27   24   25 ar   
    28   24   26 ar   
    29   24   27 1    
    30   27   28 1    
    31   28   29 1    
    32   29   30 1    
    33   29   31 1    
    34   30   35 1    
    35   31   32 1    
    36   31   33 1    
    37   33   34 1    
    38   33   35 1    
    39   35   36 1    
    40   36   37 ar   
    41   36   44 ar   
    42   37   38 ar   
    43   38   39 1    
    44   38   42 ar   
    45   39   40 2    
    46   39   41 am   
    47   42   43 ar   
    48   43   44 ar   
@<TRIPOS>SUBSTRUCTURE
     1 NAD401      1 GROUP   
@<TRIPOS>SET
ATOM$ORANGE STATIC     ATOMS   COLORGROUP SYSTEM 
42 5 5 6 6 8 8 10 10 12 12 14 14 16 16 17 17 20 \
20 22 22 28 28 29 29 31 31 33 33 35 35 37 37 38 38 39 \
39 42 42 43 43 44 44 

