#    Name: 6ma7_1_TPF
#    Modification time : Fri May 22 19:28:11 2020

@<TRIPOS>MOLECULE
6ma7_1_TPF
   22    24     1     0     0
SMALL
NO_CHARGES


@<TRIPOS>ATOM
      1 O         -21.6190  -18.2000  -10.3080 O.3       1 TPF602      0.0000 
      2 C1        -20.7490  -19.2040  -10.4900 C.3       1 TPF602      0.0000 
      3 C2        -19.2770  -18.6090  -10.8310 C.3       1 TPF602      0.0000 
      4 C5        -20.6770  -19.9700   -9.1450 C.3       1 TPF602      0.0000 
      5 C8        -21.2560  -20.1490  -11.5920 C.ar      1 TPF602      0.0000 
      6 N1        -18.9220  -17.6170   -9.8360 N.pl3     1 TPF602      0.0000 
      7 C3        -18.2620  -17.7950   -8.6410 C.2       1 TPF602      0.0000 
      8 N3        -19.3200  -16.3120   -9.9570 N.2       1 TPF602      0.0000 
      9 N2        -18.1900  -16.6100   -8.0080 N.2       1 TPF602      0.0000 
     10 C4        -18.8510  -15.7250   -8.8460 C.2       1 TPF602      0.0000 
     11 N4        -19.8790  -21.1540   -9.2560 N.pl3     1 TPF602      0.0000 
     12 C6        -18.5100  -21.2090   -9.0090 C.2       1 TPF602      0.0000 
     13 N6        -20.3180  -22.3760   -9.7210 N.2       1 TPF602      0.0000 
     14 N5        -18.1330  -22.4770   -9.2980 N.2       1 TPF602      0.0000 
     15 C7        -19.2350  -23.1250   -9.7170 C.2       1 TPF602      0.0000 
     16 C9        -22.5990  -20.2090  -11.9370 C.ar      1 TPF602      0.0000 
     17 C13       -20.3990  -21.0510  -12.3240 C.ar      1 TPF602      0.0000 
     18 C10       -23.1070  -21.0620  -12.9100 C.ar      1 TPF602      0.0000 
     19 C11       -22.2330  -21.9270  -13.6010 C.ar      1 TPF602      0.0000 
     20 F1        -22.7070  -22.7260  -14.5450 F         1 TPF602      0.0000 
     21 C12       -20.8660  -21.9250  -13.3170 C.ar      1 TPF602      0.0000 
     22 F2        -19.1030  -21.1080  -12.0940 F         1 TPF602      0.0000 
@<TRIPOS>BOND
     1    1    2 1    
     2    2    3 1    
     3    2    4 1    
     4    2    5 1    
     5    3    6 1    
     6    4   11 1    
     7    5   16 ar   
     8    5   17 ar   
     9    6    7 1    
    10    6    8 1    
    11    7    9 2    
    12    8   10 2    
    13    9   10 1    
    14   11   12 1    
    15   11   13 1    
    16   12   14 2    
    17   13   15 2    
    18   14   15 1    
    19   16   18 ar   
    20   17   21 ar   
    21   17   22 1    
    22   18   19 ar   
    23   19   20 1    
    24   19   21 ar   
@<TRIPOS>SUBSTRUCTURE
     1 TPF602      1 GROUP   
@<TRIPOS>SET

