#    Name: 6b0i_3_GDP_CAVITY_N1_ALL
#    Modification time : Fri May 22 19:30:35 2020

@<TRIPOS>MOLECULE
6b0i_3_GDP_CAVITY_N1_ALL
   83     0     6     0     0
SMALL
NO_CHARGES


@<TRIPOS>ATOM
      1 OG        163.8300  211.8300  299.7200 O.3       1 SER1        0.0000 
      2 OG        162.5600  209.8300  301.5600 O.3       1 SER1        0.0000 
      3 OG        164.8500  212.1600  300.7700 O.3       1 SER1        0.0000 
      4 OG        163.9400  213.2200  301.3100 O.3       1 SER1        0.0000 
      5 OG        164.4800  209.0900  302.0800 O.3       1 SER1        0.0000 
      6 OG        163.5800  210.1600  302.6100 O.3       1 SER1        0.0000 
      7 OG        162.6700  211.2200  303.1500 O.3       1 SER1        0.0000 
      8 OG        168.3000  211.3400  299.8400 O.3       1 SER1        0.0000 
      9 OG        167.6700  210.3400  300.7500 O.3       1 SER1        0.0000 
     10 OG        164.5900  210.4800  303.6700 O.3       1 SER1        0.0000 
     11 OG        163.6900  211.5500  304.2100 O.3       1 SER1        0.0000 
     12 OG        169.3200  211.6700  300.8900 O.3       1 SER1        0.0000 
     13 OG        168.6800  210.6700  301.8100 O.3       1 SER1        0.0000 
     14 OG        167.7800  211.7400  302.3500 O.3       1 SER1        0.0000 
     15 N         163.7200  210.4300  298.1300 N.am      2 ALA2        0.0000 
     16 N         163.9900  208.3600  298.5100 N.am      2 ALA2        0.0000 
     17 N         163.0900  209.4300  299.0500 N.am      2 ALA2        0.0000 
     18 N         165.3700  211.7600  298.2600 N.am      2 ALA2        0.0000 
     19 O         165.6400  209.6900  298.6400 O.2       2 ALA2        0.0000 
     20 O         165.0100  208.6900  299.5600 O.2       2 ALA2        0.0000 
     21 N         164.1000  209.7600  300.1000 N.am      2 ALA2        0.0000 
     22 N         163.2000  210.8300  300.6400 N.am      2 ALA2        0.0000 
     23 N         169.4600  211.9500  296.4000 N.am      2 ALA2        0.0000 
     24 N         168.8300  210.9500  297.3200 N.am      2 ALA2        0.0000 
     25 N         167.9300  212.0200  297.8600 N.am      2 ALA2        0.0000 
     26 O         167.2900  211.0200  298.7800 O.2       2 ALA2        0.0000 
     27 N         166.3900  212.0900  299.3200 N.am      2 ALA2        0.0000 
     28 O         166.6500  210.0200  299.7000 O.2       2 ALA2        0.0000 
     29 O         166.0200  209.0200  300.6200 O.2       2 ALA2        0.0000 
     30 N         170.2100  214.3500  297.0800 N.am      2 ALA2        0.0000 
     31 N         170.4800  212.2800  297.4600 N.am      2 ALA2        0.0000 
     32 N         169.5700  213.3400  298.0000 N.am      2 ALA2        0.0000 
     33 N         168.6700  214.4100  298.5300 N.am      2 ALA2        0.0000 
     34 N         168.9400  212.3400  298.9200 N.am      2 ALA2        0.0000 
     35 O         169.2100  210.2800  299.3000 O.2       2 ALA2        0.0000 
     36 O         165.5900  214.5500  301.4500 O.2       2 ALA2        0.0000 
     37 O         168.5700  209.2800  300.2200 O.2       2 ALA2        0.0000 
     38 O         171.2200  214.6700  298.1300 O.2       2 ALA2        0.0000 
     39 N         168.7800  215.8100  300.1300 N.am      2 ALA2        0.0000 
     40 O         172.8700  216.0000  298.2700 O.2       2 ALA2        0.0000 
     41 N         172.3500  216.3900  300.7800 N.am      2 ALA2        0.0000 
     42 NZ        165.2700  206.6200  299.9500 N.4       3 LYS4        0.0000 
     43 NZ        164.3700  207.6900  300.4800 N.4       3 LYS4        0.0000 
     44 NZ        163.4700  208.7600  301.0200 N.4       3 LYS4        0.0000 
     45 NZ        166.2900  206.9500  301.0000 N.4       3 LYS4        0.0000 
     46 NZ        167.0300  209.3400  301.6700 N.4       3 LYS4        0.0000 
     47 CZ        169.8400  211.2800  298.3800 C.ar      4 PHE5        0.0000 
     48 CZ        171.4900  212.6000  298.5100 C.ar      4 PHE5        0.0000 
     49 CZ        170.5900  213.6700  299.0500 C.ar      4 PHE5        0.0000 
     50 CZ        169.9500  212.6700  299.9700 C.ar      4 PHE5        0.0000 
     51 CZ        169.0500  213.7400  300.5100 C.ar      4 PHE5        0.0000 
     52 CZ        168.4100  212.7400  301.4300 C.ar      4 PHE5        0.0000 
     53 CZ        170.7000  215.0700  300.6400 C.ar      4 PHE5        0.0000 
     54 CZ        170.0600  214.0700  301.5600 C.ar      4 PHE5        0.0000 
     55 CZ        171.7100  215.3900  301.7000 C.ar      4 PHE5        0.0000 
     56 CA        164.6300  209.3600  297.5900 C.3       5 GLY6        0.0000 
     57 CA        164.7400  210.7600  299.1800 C.3       5 GLY6        0.0000 
     58 CA        165.4800  213.1600  299.8600 C.3       5 GLY6        0.0000 
     59 CA        164.5800  214.2200  300.3900 C.3       5 GLY6        0.0000 
     60 CA        163.3100  212.2200  302.2300 C.3       5 GLY6        0.0000 
     61 CA        165.3800  208.0200  301.5400 C.3       5 GLY6        0.0000 
     62 CA        168.0300  213.4100  299.4500 C.3       5 GLY6        0.0000 
     63 CA        167.4000  212.4100  300.3700 C.3       5 GLY6        0.0000 
     64 CA        166.5000  213.4800  300.9100 C.3       5 GLY6        0.0000 
     65 CA        166.1300  210.4100  302.2100 C.3       5 GLY6        0.0000 
     66 CA        165.4900  209.4100  303.1300 C.3       5 GLY6        0.0000 
     67 CA        170.3200  215.7400  298.6700 C.3       5 GLY6        0.0000 
     68 CA        169.6800  214.7400  299.5900 C.3       5 GLY6        0.0000 
     69 CA        168.1400  214.8100  301.0500 C.3       5 GLY6        0.0000 
     70 CA        172.2400  215.0000  299.1900 C.3       5 GLY6        0.0000 
     71 CA        171.3300  216.0700  299.7200 C.3       5 GLY6        0.0000 
     72 CA        169.7900  216.1400  301.1800 C.3       5 GLY6        0.0000 
     73 CA        173.2500  215.3300  300.2400 C.3       5 GLY6        0.0000 
     74 DU        165.7500  211.0900  300.2400 H         6 CUB7        0.0000 
     75 DU        165.1200  210.0900  301.1600 H         6 CUB7        0.0000 
     76 DU        164.2100  211.1600  301.6900 H         6 CUB7        0.0000 
     77 DU        166.7600  211.4100  301.2900 H         6 CUB7        0.0000 
     78 DU        165.8600  212.4800  301.8300 H         6 CUB7        0.0000 
     79 DU        164.9600  213.5500  302.3700 H         6 CUB7        0.0000 
     80 DU        165.2300  211.4800  302.7500 H         6 CUB7        0.0000 
     81 DU        164.3200  212.5500  303.2900 H         6 CUB7        0.0000 
     82 DU        167.5100  213.8100  301.9700 H         6 CUB7        0.0000 
     83 DU        169.1600  215.1400  302.1000 H         6 CUB7        0.0000 
@<TRIPOS>BOND
@<TRIPOS>SUBSTRUCTURE
     1 SER1        1 GROUP   
     2 ALA2       15 GROUP   
     3 LYS4       42 GROUP   
     4 PHE5       47 GROUP   
     5 GLY6       56 GROUP   
     6 CUB7       74 GROUP   
@<TRIPOS>SET

