#    Name: 6b0i_1_TA1
#    Modification time : Fri May 22 19:30:13 2020

@<TRIPOS>MOLECULE
6b0i_1_TA1
   62    68     1     0     0
SMALL
NO_CHARGES


@<TRIPOS>ATOM
      1 O01       185.3270  213.9030  287.4520 O.3       1 TA1502      0.0000 
      2 C01       185.2380  213.6110  286.0520 C.3       1 TA1502      0.0000 
      3 C02       184.8070  212.0820  285.9830 C.3       1 TA1502      0.0000 
      4 O02       183.5620  212.0690  286.7400 O.3       1 TA1502      0.0000 
      5 C03       183.5240  211.5310  287.9840 C.2       1 TA1502      0.0000 
      6 O03       184.4570  210.9910  288.5200 O.2       1 TA1502      0.0000 
      7 C04       182.1890  211.7310  288.6090 C.ar      1 TA1502      0.0000 
      8 C05       182.1280  212.2350  289.9020 C.ar      1 TA1502      0.0000 
      9 C06       180.8980  212.4410  290.5070 C.ar      1 TA1502      0.0000 
     10 C07       179.7330  212.1520  289.8310 C.ar      1 TA1502      0.0000 
     11 C08       179.7880  211.6540  288.5450 C.ar      1 TA1502      0.0000 
     12 C09       181.0140  211.4440  287.9320 C.ar      1 TA1502      0.0000 
     13 C10       184.5300  211.4070  284.5680 C.3       1 TA1502      0.0000 
     14 C11       183.2150  210.5700  284.5640 C.3       1 TA1502      0.0000 
     15 O04       182.0460  211.4140  284.7950 O.3       1 TA1502      0.0000 
     16 C12       181.6400  212.3500  283.9170 C.2       1 TA1502      0.0000 
     17 O05       182.2000  212.5720  282.8740 O.2       1 TA1502      0.0000 
     18 C13       180.4290  213.0600  284.4240 C.3       1 TA1502      0.0000 
     19 C14       182.9830  209.4230  285.5490 C.3       1 TA1502      0.0000 
     20 O06       182.8110  208.4670  284.4750 O.3       1 TA1502      0.0000 
     21 C15       182.9960  209.5030  283.4570 C.3       1 TA1502      0.0000 
     22 C16       184.1200  209.2010  282.4870 C.3       1 TA1502      0.0000 
     23 C17       185.2280  210.2390  282.4740 C.3       1 TA1502      0.0000 
     24 O07       186.2850  209.8570  281.5920 O.3       1 TA1502      0.0000 
     25 C18       185.7260  210.5730  283.9380 C.3       1 TA1502      0.0000 
     26 C19       186.0430  209.2430  284.6920 C.3       1 TA1502      0.0000 
     27 C20       187.0910  211.2900  283.7370 C.2       1 TA1502      0.0000 
     28 O08       188.1190  210.7470  284.1240 O.2       1 TA1502      0.0000 
     29 C21       187.2740  212.6730  283.1020 C.3       1 TA1502      0.0000 
     30 O09       188.6880  212.9940  283.1390 O.3       1 TA1502      0.0000 
     31 C22       189.4190  213.0900  282.0060 C.2       1 TA1502      0.0000 
     32 O10       188.9600  212.9280  280.9080 O.2       1 TA1502      0.0000 
     33 C23       190.8380  213.4140  282.3090 C.3       1 TA1502      0.0000 
     34 C24       186.4350  213.6510  283.8550 C.2       1 TA1502      0.0000 
     35 C25       185.4110  214.2860  283.2230 C.2       1 TA1502      0.0000 
     36 C26       184.5010  215.1620  284.0770 C.3       1 TA1502      0.0000 
     37 O11       183.2130  215.4680  283.4200 O.3       1 TA1502      0.0000 
     38 C27       183.0990  216.6200  282.7360 C.2       1 TA1502      0.0000 
     39 O12       183.9800  217.4310  282.6080 O.2       1 TA1502      0.0000 
     40 C28       181.7020  216.7700  282.1300 C.3       1 TA1502      0.0000 
     41 O13       181.5720  218.0000  281.4490 O.3       1 TA1502      0.0000 
     42 C29       180.6330  216.6980  283.2340 C.3       1 TA1502      0.0000 
     43 N01       180.9300  217.7020  284.2490 N.am      1 TA1502      0.0000 
     44 C30       180.5660  217.6090  285.5300 C.2       1 TA1502      0.0000 
     45 O14       179.8970  216.6760  285.9710 O.2       1 TA1502      0.0000 
     46 C31       181.0570  218.7040  286.4090 C.ar      1 TA1502      0.0000 
     47 C32       180.7120  220.0260  286.1820 C.ar      1 TA1502      0.0000 
     48 C33       181.2010  221.0260  287.0030 C.ar      1 TA1502      0.0000 
     49 C34       182.0420  220.7150  288.0490 C.ar      1 TA1502      0.0000 
     50 C35       182.3950  219.4000  288.2810 C.ar      1 TA1502      0.0000 
     51 C36       181.9080  218.3960  287.4620 C.ar      1 TA1502      0.0000 
     52 C37       179.2100  216.8470  282.7120 C.ar      1 TA1502      0.0000 
     53 C38       178.4990  215.7150  282.3430 C.ar      1 TA1502      0.0000 
     54 C39       177.2020  215.8240  281.8650 C.ar      1 TA1502      0.0000 
     55 C40       176.6000  217.0560  281.7630 C.ar      1 TA1502      0.0000 
     56 C41       177.2920  218.1860  282.1290 C.ar      1 TA1502      0.0000 
     57 C42       178.5960  218.0860  282.5980 C.ar      1 TA1502      0.0000 
     58 C43       184.1250  214.4750  285.4090 C.3       1 TA1502      0.0000 
     59 C44       185.0130  214.0910  281.7700 C.3       1 TA1502      0.0000 
     60 C45       186.6390  213.8910  285.3950 C.3       1 TA1502      0.0000 
     61 C46       187.0590  215.3720  285.5920 C.3       1 TA1502      0.0000 
     62 C47       187.7510  213.0950  286.1240 C.3       1 TA1502      0.0000 
@<TRIPOS>BOND
     1    1    2 1    
     2    2    3 1    
     3    2   58 1    
     4    2   60 1    
     5    3    4 1    
     6    3   13 1    
     7    4    5 1    
     8    5    6 2    
     9    5    7 1    
    10    7    8 ar   
    11    7   12 ar   
    12    8    9 ar   
    13    9   10 ar   
    14   10   11 ar   
    15   11   12 ar   
    16   13   14 1    
    17   13   25 1    
    18   14   15 1    
    19   14   19 1    
    20   14   21 1    
    21   15   16 1    
    22   16   17 2    
    23   16   18 1    
    24   19   20 1    
    25   20   21 1    
    26   21   22 1    
    27   22   23 1    
    28   23   24 1    
    29   23   25 1    
    30   25   26 1    
    31   25   27 1    
    32   27   28 2    
    33   27   29 1    
    34   29   30 1    
    35   29   34 1    
    36   30   31 1    
    37   31   32 2    
    38   31   33 1    
    39   34   35 2    
    40   34   60 1    
    41   35   36 1    
    42   35   59 1    
    43   36   37 1    
    44   36   58 1    
    45   37   38 1    
    46   38   39 2    
    47   38   40 1    
    48   40   41 1    
    49   40   42 1    
    50   42   43 1    
    51   42   52 1    
    52   43   44 am   
    53   44   45 2    
    54   44   46 1    
    55   46   47 ar   
    56   46   51 ar   
    57   47   48 ar   
    58   48   49 ar   
    59   49   50 ar   
    60   50   51 ar   
    61   52   53 ar   
    62   52   57 ar   
    63   53   54 ar   
    64   54   55 ar   
    65   55   56 ar   
    66   56   57 ar   
    67   60   61 1    
    68   60   62 1    
@<TRIPOS>SUBSTRUCTURE
     1 TA1502      1 GROUP   
@<TRIPOS>SET

