#    Name: 6b0i_3_GDP
#    Modification time : Fri May 22 19:30:33 2020

@<TRIPOS>MOLECULE
6b0i_3_GDP
   28    30     1     0     1
SMALL
NO_CHARGES


@<TRIPOS>ATOM
      1 PB        162.1300  216.3150  302.8170 P.3       1 GDP501      0.0000 
      2 O1B       161.6140  216.3590  301.3980 O.co2     1 GDP501      0.0000 
      3 O2B       163.0100  217.4800  303.1460 O.co2     1 GDP501      0.0000 
      4 O3B       160.9490  216.1250  303.7520 O.co2     1 GDP501      0.0000 
      5 O3A       162.8980  214.9020  302.9350 O.3       1 GDP501      0.0000 
      6 PA        164.1770  214.4110  302.0810 P.3       1 GDP501      0.0000 
      7 O1A       164.3430  215.1780  300.8000 O.co2     1 GDP501      0.0000 
      8 O2A       165.4420  214.5460  302.9010 O.co2     1 GDP501      0.0000 
      9 O5'       163.6670  212.9400  301.8480 O.3       1 GDP501      0.0000 
     10 C5'       164.3880  211.7530  302.2070 C.3       1 GDP501      0.0000 
     11 C4'       164.6780  210.9940  300.9120 C.3       1 GDP501      0.0000 
     12 O4'       165.5380  211.7890  300.0990 O.3       1 GDP501      0.0000 
     13 C3'       165.4480  209.7260  301.2260 C.3       1 GDP501      0.0000 
     14 O3'       165.0990  208.7160  300.2850 O.3       1 GDP501      0.0000 
     15 C2'       166.9050  210.1320  301.1430 C.3       1 GDP501      0.0000 
     16 O2'       167.7780  209.0480  300.8190 O.3       1 GDP501      0.0000 
     17 C1'       166.8500  211.1500  300.0320 C.3       1 GDP501      0.0000 
     18 N9        167.7800  212.2610  300.0850 N.pl3     1 GDP501      0.0000 
     19 C8        167.8570  213.2480  301.0070 C.2       1 GDP501      0.0000 
     20 N7        168.8120  214.1440  300.6320 N.2       1 GDP501      0.0000 
     21 C5        169.2900  213.7240  299.4420 C.2       1 GDP501      0.0000 
     22 C6        170.2930  214.1960  298.4840 C.2       1 GDP501      0.0000 
     23 O6        170.9080  215.2470  298.7260 O.2       1 GDP501      0.0000 
     24 N1        170.5080  213.4750  297.3840 N.am      1 GDP501      0.0000 
     25 C2        169.8520  212.3380  297.1130 C.2       1 GDP501      0.0000 
     26 N2        170.1250  211.6850  295.9570 N.pl3     1 GDP501      0.0000 
     27 N3        168.9070  211.8360  297.9340 N.2       1 GDP501      0.0000 
     28 C4        168.6100  212.4950  299.0890 C.2       1 GDP501      0.0000 
@<TRIPOS>BOND
     1    1    2 ar   
     2    1    3 ar   
     3    1    4 ar   
     4    1    5 1    
     5    5    6 1    
     6    6    7 ar   
     7    6    8 ar   
     8    6    9 1    
     9    9   10 1    
    10   10   11 1    
    11   11   12 1    
    12   11   13 1    
    13   12   17 1    
    14   13   14 1    
    15   13   15 1    
    16   15   16 1    
    17   15   17 1    
    18   17   18 1    
    19   18   19 1    
    20   18   28 1    
    21   19   20 2    
    22   20   21 1    
    23   21   22 1    
    24   21   28 2    
    25   22   23 2    
    26   22   24 am   
    27   24   25 1    
    28   25   26 1    
    29   25   27 2    
    30   27   28 1    
@<TRIPOS>SUBSTRUCTURE
     1 GDP501      1 GROUP   
@<TRIPOS>SET
ATOM$ORANGE STATIC     ATOMS   COLORGROUP SYSTEM 
20 10 10 11 11 13 13 15 15 17 17 19 19 21 21 22 22 25 \
25 28 28 

