#    Name: 6b0i_2_GTP
#    Modification time : Fri May 22 19:30:27 2020

@<TRIPOS>MOLECULE
6b0i_2_GTP
   32    34     1     0     1
SMALL
NO_CHARGES


@<TRIPOS>ATOM
      1 PG        159.5890  217.3750  263.6800 P.3       1 GTP501      0.0000 
      2 O1G       158.8140  218.6220  263.8490 O.co2     1 GTP501      0.0000 
      3 O2G       160.9510  217.4130  264.2380 O.co2     1 GTP501      0.0000 
      4 O3G       158.8580  216.1660  263.9830 O.co2     1 GTP501      0.0000 
      5 O3B       159.7400  217.1890  262.0870 O.3       1 GTP501      0.0000 
      6 PB        161.0610  217.2880  261.1800 P.3       1 GTP501      0.0000 
      7 O1B       160.5840  217.4560  259.7920 O.co2     1 GTP501      0.0000 
      8 O2B       161.9550  218.3230  261.7150 O.co2     1 GTP501      0.0000 
      9 O3A       161.7040  215.8430  261.3230 O.3       1 GTP501      0.0000 
     10 PA        162.9750  215.2700  260.5390 P.3       1 GTP501      0.0000 
     11 O1A       163.0750  216.0010  259.2590 O.co2     1 GTP501      0.0000 
     12 O2A       164.1350  215.1850  261.4380 O.co2     1 GTP501      0.0000 
     13 O5'       162.4280  213.8130  260.2530 O.3       1 GTP501      0.0000 
     14 C5'       163.1020  212.6520  260.7020 C.3       1 GTP501      0.0000 
     15 C4'       163.4750  211.7790  259.5160 C.3       1 GTP501      0.0000 
     16 O4'       164.2720  212.5310  258.6260 O.3       1 GTP501      0.0000 
     17 C3'       164.2980  210.5700  259.9130 C.3       1 GTP501      0.0000 
     18 O3'       163.9680  209.5040  259.0260 O.3       1 GTP501      0.0000 
     19 C2'       165.7200  211.0420  259.7300 C.3       1 GTP501      0.0000 
     20 O2'       166.6870  210.0400  259.4590 O.3       1 GTP501      0.0000 
     21 C1'       165.5720  211.9790  258.5540 C.3       1 GTP501      0.0000 
     22 N9        166.5080  213.1030  258.5560 N.pl3     1 GTP501      0.0000 
     23 C8        166.5410  214.1000  259.4340 C.2       1 GTP501      0.0000 
     24 N7        167.5030  214.9780  259.1140 N.2       1 GTP501      0.0000 
     25 C5        168.0890  214.5360  258.0030 C.2       1 GTP501      0.0000 
     26 C6        169.1810  214.9830  257.1300 C.2       1 GTP501      0.0000 
     27 O6        169.7880  216.0220  257.3770 O.2       1 GTP501      0.0000 
     28 N1        169.4810  214.2330  256.0770 N.am      1 GTP501      0.0000 
     29 C2        168.8250  213.1030  255.7980 C.2       1 GTP501      0.0000 
     30 N2        169.1680  212.3860  254.7160 N.pl3     1 GTP501      0.0000 
     31 N3        167.8190  212.6360  256.5500 N.2       1 GTP501      0.0000 
     32 C4        167.4220  213.3010  257.6390 C.2       1 GTP501      0.0000 
@<TRIPOS>BOND
     1    1    2 ar   
     2    1    3 ar   
     3    1    4 ar   
     4    1    5 1    
     5    5    6 1    
     6    6    7 ar   
     7    6    8 ar   
     8    6    9 1    
     9    9   10 1    
    10   10   11 ar   
    11   10   12 ar   
    12   10   13 1    
    13   13   14 1    
    14   14   15 1    
    15   15   16 1    
    16   15   17 1    
    17   16   21 1    
    18   17   18 1    
    19   17   19 1    
    20   19   20 1    
    21   19   21 1    
    22   21   22 1    
    23   22   23 1    
    24   22   32 1    
    25   23   24 2    
    26   24   25 1    
    27   25   26 1    
    28   25   32 2    
    29   26   27 2    
    30   26   28 am   
    31   28   29 1    
    32   29   30 1    
    33   29   31 2    
    34   31   32 1    
@<TRIPOS>SUBSTRUCTURE
     1 GTP501      1 GROUP   
@<TRIPOS>SET
ATOM$ORANGE STATIC     ATOMS   COLORGROUP SYSTEM 
20 14 14 15 15 17 17 19 19 21 21 23 23 25 25 26 26 29 \
29 32 32 

