#    Name: 6iy3_1_ADP
#    Modification time : Fri May 22 19:25:14 2020

@<TRIPOS>MOLECULE
6iy3_1_ADP
   27    29     1     0     1
SMALL
NO_CHARGES


@<TRIPOS>ATOM
      1 PB         93.4780   97.0240  101.8500 P.3       1 ADP2000     0.0000 
      2 O1B        94.1770   97.3560  100.5560 O.co2     1 ADP2000     0.0000 
      3 O2B        93.3650   95.5450  102.1210 O.co2     1 ADP2000     0.0000 
      4 O3B        93.9010   97.8400  103.0440 O.co2     1 ADP2000     0.0000 
      5 PA         91.5750   99.0060  101.2960 P.3       1 ADP2000     0.0000 
      6 O1A        92.8260   99.8430  101.2870 O.co2     1 ADP2000     0.0000 
      7 O2A        90.4090   99.3600  102.1790 O.co2     1 ADP2000     0.0000 
      8 O3A        91.9650   97.4720  101.5730 O.3       1 ADP2000     0.0000 
      9 O5'        91.0640   98.9350   99.7760 O.3       1 ADP2000     0.0000 
     10 C5'        90.9640  100.1270   99.0050 C.3       1 ADP2000     0.0000 
     11 C4'        90.7250   99.7920   97.5380 C.3       1 ADP2000     0.0000 
     12 O4'        90.0240   98.5560   97.3950 O.3       1 ADP2000     0.0000 
     13 C3'        89.8860  100.8680   96.8680 C.3       1 ADP2000     0.0000 
     14 O3'        90.6460  101.5230   95.8500 O.3       1 ADP2000     0.0000 
     15 C2'        88.7180  100.1450   96.2370 C.3       1 ADP2000     0.0000 
     16 O2'        88.6210  100.4810   94.8510 O.3       1 ADP2000     0.0000 
     17 C1'        89.0130   98.6660   96.3920 C.3       1 ADP2000     0.0000 
     18 N9         87.7880   97.9810   96.8570 N.pl3     1 ADP2000     0.0000 
     19 C8         87.6620   97.3680   98.0420 C.2       1 ADP2000     0.0000 
     20 N7         86.4260   96.8320   98.1930 N.2       1 ADP2000     0.0000 
     21 C5         85.7390   97.0950   97.0720 C.ar      1 ADP2000     0.0000 
     22 C6         84.3790   96.8090   96.5750 C.ar      1 ADP2000     0.0000 
     23 N6         83.5010   96.1180   97.3350 N.pl3     1 ADP2000     0.0000 
     24 N1         84.0490   97.2590   95.3490 N.ar      1 ADP2000     0.0000 
     25 C2         84.9230   97.9490   94.5930 C.ar      1 ADP2000     0.0000 
     26 N3         86.1760   98.2450   94.9820 N.ar      1 ADP2000     0.0000 
     27 C4         86.6380   97.8520   96.1910 C.ar      1 ADP2000     0.0000 
@<TRIPOS>BOND
     1    1    2 ar   
     2    1    3 ar   
     3    1    4 ar   
     4    1    8 1    
     5    5    6 ar   
     6    5    7 ar   
     7    5    8 1    
     8    5    9 1    
     9    9   10 1    
    10   10   11 1    
    11   11   12 1    
    12   11   13 1    
    13   12   17 1    
    14   13   14 1    
    15   13   15 1    
    16   15   16 1    
    17   15   17 1    
    18   17   18 1    
    19   18   19 1    
    20   18   27 1    
    21   19   20 2    
    22   20   21 1    
    23   21   22 ar   
    24   21   27 ar   
    25   22   23 1    
    26   22   24 ar   
    27   24   25 ar   
    28   25   26 ar   
    29   26   27 ar   
@<TRIPOS>SUBSTRUCTURE
     1 ADP2000     1 GROUP   
@<TRIPOS>SET
ATOM$ORANGE STATIC     ATOMS   COLORGROUP SYSTEM 
20 10 10 11 11 13 13 15 15 17 17 19 19 21 21 22 22 25 \
25 27 27 

