#    Name: 6mv9_1_TTP
#    Modification time : Fri May 22 19:25:12 2020

@<TRIPOS>MOLECULE
6mv9_1_TTP
   29    30     1     0     0
SMALL
NO_CHARGES


@<TRIPOS>ATOM
      1 PA        -34.2000    7.5020  -11.7290 P.3       1 TTP801      0.0000 
      2 O1A       -34.0990    8.0900  -13.1160 O.co2     1 TTP801      0.0000 
      3 O2A       -32.9790    7.8260  -10.8990 O.co2     1 TTP801      0.0000 
      4 O3A       -34.3310    5.9150  -11.8590 O.3       1 TTP801      0.0000 
      5 PB        -33.8180    4.9390  -13.0130 P.3       1 TTP801      0.0000 
      6 O1B       -32.9720    5.7450  -13.9710 O.co2     1 TTP801      0.0000 
      7 O2B       -33.0470    3.7840  -12.4190 O.co2     1 TTP801      0.0000 
      8 O3B       -35.1160    4.4190  -13.7930 O.3       1 TTP801      0.0000 
      9 PG        -35.9060    5.0260  -15.0490 P.3       1 TTP801      0.0000 
     10 O1G       -35.5680    4.1750  -16.2520 O.co2     1 TTP801      0.0000 
     11 O2G       -37.3880    4.9840  -14.7660 O.co2     1 TTP801      0.0000 
     12 O3G       -35.4390    6.4520  -15.2530 O.co2     1 TTP801      0.0000 
     13 O5'       -35.5340    8.0370  -11.0100 O.3       1 TTP801      0.0000 
     14 C5'       -36.5300    8.7190  -11.7660 C.3       1 TTP801      0.0000 
     15 C4'       -37.5790    9.2550  -10.8090 C.3       1 TTP801      0.0000 
     16 O4'       -37.8660    8.2740   -9.8180 O.3       1 TTP801      0.0000 
     17 C3'       -37.0620   10.4890  -10.1010 C.3       1 TTP801      0.0000 
     18 O3'       -37.9960   11.5470  -10.3160 O.3       1 TTP801      0.0000 
     19 C2'       -37.0430   10.1360   -8.6310 C.3       1 TTP801      0.0000 
     20 C1'       -37.9080    8.8940   -8.5360 C.3       1 TTP801      0.0000 
     21 N1        -37.3980    7.9740   -7.5230 N.am      1 TTP801      0.0000 
     22 C2        -38.1450    7.7730   -6.3420 C.2       1 TTP801      0.0000 
     23 O2        -39.2170    8.4040   -6.2170 O.2       1 TTP801      0.0000 
     24 N3        -37.7660    6.9370   -5.3390 N.am      1 TTP801      0.0000 
     25 C4        -36.5950    6.2790   -5.5260 C.2       1 TTP801      0.0000 
     26 O4        -36.1850    5.4950   -4.6440 O.2       1 TTP801      0.0000 
     27 C5        -35.7830    6.4610   -6.7520 C.2       1 TTP801      0.0000 
     28 C5M       -34.4890    5.7180   -6.9350 C.3       1 TTP801      0.0000 
     29 C6        -36.2520    7.3310   -7.7130 C.2       1 TTP801      0.0000 
@<TRIPOS>BOND
     1    1    2 ar   
     2    1    3 ar   
     3    1    4 1    
     4    1   13 1    
     5    4    5 1    
     6    5    6 ar   
     7    5    7 ar   
     8    5    8 1    
     9    8    9 1    
    10    9   10 ar   
    11    9   11 ar   
    12    9   12 ar   
    13   13   14 1    
    14   14   15 1    
    15   15   16 1    
    16   15   17 1    
    17   16   20 1    
    18   17   18 1    
    19   17   19 1    
    20   19   20 1    
    21   20   21 1    
    22   21   22 1    
    23   21   29 1    
    24   22   23 2    
    25   22   24 1    
    26   24   25 1    
    27   25   26 2    
    28   25   27 1    
    29   27   28 1    
    30   27   29 2    
@<TRIPOS>SUBSTRUCTURE
     1 TTP801      1 GROUP   
@<TRIPOS>SET

