#    Name: 6mv9_4_ADP_CAVITY_N1_4
#    Modification time : Fri May 22 19:25:36 2020

@<TRIPOS>MOLECULE
6mv9_4_ADP_CAVITY_N1_4
   71     0     7     0     0
SMALL
NO_CHARGES


@<TRIPOS>ATOM
      1 OG        -43.5800  -36.2200   -0.9000 O.3       1 SER1        0.0000 
      2 OG        -38.5400  -29.9400   -4.9300 O.3       1 SER1        0.0000 
      3 OG        -37.8100  -30.4700   -3.7300 O.3       1 SER1        0.0000 
      4 O         -42.6800  -34.3800   -2.5100 O.2       2 ALA2        0.0000 
      5 N         -41.9200  -34.9200    4.3000 N.am      2 ALA2        0.0000 
      6 O         -41.7900  -32.5500   -4.1100 O.2       2 ALA2        0.0000 
      7 N         -40.5300  -32.6400   -4.9200 N.am      2 ALA2        0.0000 
      8 N         -40.3000  -33.6200    3.8900 N.am      2 ALA2        0.0000 
      9 N         -39.5700  -34.1500    5.0900 N.am      2 ALA2        0.0000 
     10 O         -39.7700  -33.1800    1.8900 O.2       2 ALA2        0.0000 
     11 N         -38.3100  -34.2500    4.2800 N.am      2 ALA2        0.0000 
     12 N         -37.5800  -34.7800    5.4800 N.am      2 ALA2        0.0000 
     13 N         -40.9000  -30.7100   -5.7200 N.am      2 ALA2        0.0000 
     14 N         -40.1700  -31.2500   -4.5200 N.am      2 ALA2        0.0000 
     15 N         -39.6400  -30.8100   -6.5300 N.am      2 ALA2        0.0000 
     16 N         -40.5300  -29.3100   -5.3200 N.am      2 ALA2        0.0000 
     17 N         -37.6200  -31.4400   -0.5300 N.am      2 ALA2        0.0000 
     18 N         -37.0900  -31.0100   -2.5400 N.am      2 ALA2        0.0000 
     19 OD1       -41.2300  -35.4500   -0.1100 O.co2     3 ASP3        0.0000 
     20 OD1       -40.7000  -35.0100   -2.1200 O.co2     3 ASP3        0.0000 
     21 OD1       -40.1700  -34.5800   -4.1300 O.co2     3 ASP3        0.0000 
     22 OD1       -40.8600  -34.0500    0.2900 O.co2     3 ASP3        0.0000 
     23 OD1       -40.3300  -33.6100   -1.7200 O.co2     3 ASP3        0.0000 
     24 OD1       -39.8000  -33.1800   -3.7200 O.co2     3 ASP3        0.0000 
     25 OD1       -39.2700  -32.7400   -5.7300 O.co2     3 ASP3        0.0000 
     26 OD1       -37.2800  -33.3700   -5.3400 O.co2     3 ASP3        0.0000 
     27 OD1       -39.2400  -32.7500   -0.1200 O.co2     3 ASP3        0.0000 
     28 OD1       -38.7100  -32.3100   -2.1300 O.co2     3 ASP3        0.0000 
     29 OD1       -37.9800  -32.8400   -0.9300 O.co2     3 ASP3        0.0000 
     30 OD1       -38.1800  -31.8700   -4.1300 O.co2     3 ASP3        0.0000 
     31 NZ        -37.6500  -31.4400   -6.1400 N.4       4 LYS4        0.0000 
     32 NZ        -36.9200  -31.9700   -4.9400 N.4       4 LYS4        0.0000 
     33 CZ        -42.1200  -37.2900    1.5000 C.ar      5 PHE5        0.0000 
     34 CZ        -43.2100  -34.8200   -0.5000 C.ar      5 PHE5        0.0000 
     35 CZ        -42.4900  -35.3500    0.7000 C.ar      5 PHE5        0.0000 
     36 CZ        -41.7600  -35.8900    1.9000 C.ar      5 PHE5        0.0000 
     37 CZ        -41.0300  -36.4200    3.0900 C.ar      5 PHE5        0.0000 
     38 CZ        -42.1200  -33.9500    1.1000 C.ar      5 PHE5        0.0000 
     39 CZ        -41.5900  -33.5200   -0.9100 C.ar      5 PHE5        0.0000 
     40 CZ        -41.0600  -33.0800   -2.9200 C.ar      5 PHE5        0.0000 
     41 CZ        -40.5000  -32.6500    0.6900 C.ar      5 PHE5        0.0000 
     42 CZ        -41.4300  -31.1500   -3.7100 C.ar      5 PHE5        0.0000 
     43 CZ        -39.9700  -32.2100   -1.3200 C.ar      5 PHE5        0.0000 
     44 CZ        -39.4400  -31.7800   -3.3200 C.ar      5 PHE5        0.0000 
     45 CZ        -38.3800  -30.9000   -7.3400 C.ar      5 PHE5        0.0000 
     46 CZ        -38.8800  -31.3500    0.2800 C.ar      5 PHE5        0.0000 
     47 CZ        -39.8000  -29.8500   -4.1200 C.ar      5 PHE5        0.0000 
     48 CZ        -39.0700  -30.3800   -2.9200 C.ar      5 PHE5        0.0000 
     49 CZ        -38.3500  -30.9100   -1.7300 C.ar      5 PHE5        0.0000 
     50 CZ        -37.9800  -29.5100   -1.3300 C.ar      5 PHE5        0.0000 
     51 CZ        -36.7200  -29.6100   -2.1300 C.ar      5 PHE5        0.0000 
     52 CA        -44.3100  -35.6900   -2.1000 C.3       6 GLY6        0.0000 
     53 CA        -40.3000  -36.9500    4.2900 C.3       6 GLY6        0.0000 
     54 CA        -40.5000  -35.9800    1.0900 C.3       6 GLY6        0.0000 
     55 CA        -39.7700  -36.5100    2.2800 C.3       6 GLY6        0.0000 
     56 CA        -42.6500  -34.3900    3.1100 C.3       6 GLY6        0.0000 
     57 CA        -42.8500  -33.4200   -0.1000 C.3       6 GLY6        0.0000 
     58 CA        -41.3900  -34.4900    2.3000 C.3       6 GLY6        0.0000 
     59 CA        -40.6600  -35.0200    3.4900 C.3       6 GLY6        0.0000 
     60 CA        -39.9300  -35.5500    4.6900 C.3       6 GLY6        0.0000 
     61 CA        -42.3200  -32.9900   -2.1100 C.3       6 GLY6        0.0000 
     62 CA        -40.1300  -34.5800    1.4900 C.3       6 GLY6        0.0000 
     63 CA        -39.4000  -35.1200    2.6800 C.3       6 GLY6        0.0000 
     64 CA        -38.6700  -35.6500    3.8800 C.3       6 GLY6        0.0000 
     65 CA        -41.0300  -33.0900    2.7000 C.3       6 GLY6        0.0000 
     66 CA        -39.0400  -33.7200    3.0900 C.3       6 GLY6        0.0000 
     67 CA        -38.5100  -33.2800    1.0800 C.3       6 GLY6        0.0000 
     68 CA        -39.2700  -29.4100   -6.1300 C.3       6 GLY6        0.0000 
     69 DU        -41.9600  -34.9200   -1.3100 H         7 CUB7        0.0000 
     70 DU        -41.4200  -34.4800   -3.3200 H         7 CUB7        0.0000 
     71 DU        -38.9100  -31.3400   -5.3300 H         7 CUB7        0.0000 
@<TRIPOS>BOND
@<TRIPOS>SUBSTRUCTURE
     1 SER1        1 GROUP   
     2 ALA2        4 GROUP   
     3 ASP3       19 GROUP   
     4 LYS4       31 GROUP   
     5 PHE5       33 GROUP   
     6 GLY6       52 GROUP   
     7 CUB7       69 GROUP   
@<TRIPOS>SET

