#    Name: 6mv9_4_ADP
#    Modification time : Fri May 22 19:25:34 2020

@<TRIPOS>MOLECULE
6mv9_4_ADP
   27    29     1     0     1
SMALL
NO_CHARGES


@<TRIPOS>ATOM
      1 PB        -40.8960  -39.8080   -2.4010 P.3       1 ADP802      0.0000 
      2 O1B       -41.1150  -40.1580   -3.8400 O.co2     1 ADP802      0.0000 
      3 O2B       -39.4850  -39.2730   -2.1230 O.co2     1 ADP802      0.0000 
      4 O3B       -41.1450  -40.9830   -1.4520 O.co2     1 ADP802      0.0000 
      5 PA        -43.3850  -38.2750   -2.3850 P.3       1 ADP802      0.0000 
      6 O1A       -44.1210  -39.4640   -2.8680 O.co2     1 ADP802      0.0000 
      7 O2A       -44.0220  -37.5220   -1.2210 O.co2     1 ADP802      0.0000 
      8 O3A       -41.9080  -38.6660   -1.9350 O.3       1 ADP802      0.0000 
      9 O5'       -43.1790  -37.1930   -3.5600 O.3       1 ADP802      0.0000 
     10 C5'       -41.9350  -36.9640   -4.2510 C.3       1 ADP802      0.0000 
     11 C4'       -41.7830  -35.5050   -4.6030 C.3       1 ADP802      0.0000 
     12 O4'       -42.4980  -34.6850   -3.6500 O.3       1 ADP802      0.0000 
     13 C3'       -40.3420  -35.0080   -4.5730 C.3       1 ADP802      0.0000 
     14 O3'       -39.7290  -35.1500   -5.8490 O.3       1 ADP802      0.0000 
     15 C2'       -40.5030  -33.5380   -4.1920 C.3       1 ADP802      0.0000 
     16 O2'       -40.8140  -32.7300   -5.3210 O.3       1 ADP802      0.0000 
     17 C1'       -41.6960  -33.5920   -3.2340 C.3       1 ADP802      0.0000 
     18 N9        -41.3500  -33.8020   -1.8290 N.pl3     1 ADP802      0.0000 
     19 C8        -41.8710  -34.7590   -0.9990 C.2       1 ADP802      0.0000 
     20 N7        -41.3750  -34.7440    0.2150 N.2       1 ADP802      0.0000 
     21 C5        -40.4550  -33.7070    0.1800 C.ar      1 ADP802      0.0000 
     22 C6        -39.5630  -33.1960    1.1440 C.ar      1 ADP802      0.0000 
     23 N6        -39.5030  -33.6320    2.4060 N.pl3     1 ADP802      0.0000 
     24 N1        -38.7380  -32.1950    0.7670 N.ar      1 ADP802      0.0000 
     25 C2        -38.8080  -31.7410   -0.4870 C.ar      1 ADP802      0.0000 
     26 N3        -39.6170  -32.1310   -1.4740 N.ar      1 ADP802      0.0000 
     27 C4        -40.4220  -33.1220   -1.0760 C.ar      1 ADP802      0.0000 
@<TRIPOS>BOND
     1    1    2 ar   
     2    1    3 ar   
     3    1    4 ar   
     4    1    8 1    
     5    5    6 ar   
     6    5    7 ar   
     7    5    8 1    
     8    5    9 1    
     9    9   10 1    
    10   10   11 1    
    11   11   12 1    
    12   11   13 1    
    13   12   17 1    
    14   13   14 1    
    15   13   15 1    
    16   15   16 1    
    17   15   17 1    
    18   17   18 1    
    19   18   19 1    
    20   18   27 1    
    21   19   20 2    
    22   20   21 1    
    23   21   22 ar   
    24   21   27 ar   
    25   22   23 1    
    26   22   24 ar   
    27   24   25 ar   
    28   25   26 ar   
    29   26   27 ar   
@<TRIPOS>SUBSTRUCTURE
     1 ADP802      1 GROUP   
@<TRIPOS>SET
ATOM$ORANGE STATIC     ATOMS   COLORGROUP SYSTEM 
20 10 10 11 11 13 13 15 15 17 17 19 19 21 21 22 22 25 \
25 27 27 

