#    Name: 6mv9_2_TTP
#    Modification time : Fri May 22 19:25:28 2020

@<TRIPOS>MOLECULE
6mv9_2_TTP
   29    30     1     0     0
SMALL
NO_CHARGES


@<TRIPOS>ATOM
      1 PA        -17.9000   23.5040    5.3980 P.3       1 TTP801      0.0000 
      2 O1A       -18.6140   23.1640    4.1070 O.co2     1 TTP801      0.0000 
      3 O2A       -16.5680   22.7930    5.4980 O.co2     1 TTP801      0.0000 
      4 O3A       -17.6230   25.0790    5.4320 O.3       1 TTP801      0.0000 
      5 PB        -16.3180   25.8740    4.9670 P.3       1 TTP801      0.0000 
      6 O1B       -16.7080   27.0150    4.0570 O.co2     1 TTP801      0.0000 
      7 O2B       -15.3690   24.9030    4.3030 O.co2     1 TTP801      0.0000 
      8 O3B       -15.5760   26.4060    6.2750 O.3       1 TTP801      0.0000 
      9 PG        -14.4750   25.6850    7.1790 P.3       1 TTP801      0.0000 
     10 O1G       -14.4940   24.2240    6.7890 O.co2     1 TTP801      0.0000 
     11 O2G       -13.1260   26.2880    6.8530 O.co2     1 TTP801      0.0000 
     12 O3G       -14.8300   25.8680    8.6360 O.co2     1 TTP801      0.0000 
     13 O5'       -18.7990   23.1110    6.6680 O.3       1 TTP801      0.0000 
     14 C5'       -18.1920   22.4480    7.7720 C.3       1 TTP801      0.0000 
     15 C4'       -19.2720   22.0120    8.7440 C.3       1 TTP801      0.0000 
     16 O4'       -20.2470   23.0430    8.8860 O.3       1 TTP801      0.0000 
     17 C3'       -19.9780   20.7810    8.2090 C.3       1 TTP801      0.0000 
     18 O3'       -19.8760   19.7370    9.1780 O.3       1 TTP801      0.0000 
     19 C2'       -21.4290   21.1820    8.0320 C.3       1 TTP801      0.0000 
     20 C1'       -21.5560   22.4770    8.8230 C.3       1 TTP801      0.0000 
     21 N1        -22.4870   23.4030    8.1690 N.am      1 TTP801      0.0000 
     22 C2        -23.7070   23.7320    8.8030 C.2       1 TTP801      0.0000 
     23 O2        -23.9560   23.2010    9.9080 O.2       1 TTP801      0.0000 
     24 N3        -24.6300   24.5880    8.2830 N.am      1 TTP801      0.0000 
     25 C4        -24.3190   25.1400    7.0830 C.2       1 TTP801      0.0000 
     26 O4        -25.1300   25.9350    6.5560 O.2       1 TTP801      0.0000 
     27 C5        -23.0450   24.8270    6.3870 C.2       1 TTP801      0.0000 
     28 C5M       -22.7050   25.4410    5.0570 C.3       1 TTP801      0.0000 
     29 C6        -22.1740   23.9520    6.9990 C.2       1 TTP801      0.0000 
@<TRIPOS>BOND
     1    1    2 ar   
     2    1    3 ar   
     3    1    4 1    
     4    1   13 1    
     5    4    5 1    
     6    5    6 ar   
     7    5    7 ar   
     8    5    8 1    
     9    8    9 1    
    10    9   10 ar   
    11    9   11 ar   
    12    9   12 ar   
    13   13   14 1    
    14   14   15 1    
    15   15   16 1    
    16   15   17 1    
    17   16   20 1    
    18   17   18 1    
    19   17   19 1    
    20   19   20 1    
    21   20   21 1    
    22   21   22 1    
    23   21   29 1    
    24   22   23 2    
    25   22   24 1    
    26   24   25 1    
    27   25   26 2    
    28   25   27 1    
    29   27   28 1    
    30   27   29 2    
@<TRIPOS>SUBSTRUCTURE
     1 TTP801      1 GROUP   
@<TRIPOS>SET

