#    Name: 6qas_1_34W
#    Modification time : Fri May 22 19:32:17 2020

@<TRIPOS>MOLECULE
6qas_1_34W
   34    38     1     0     0
SMALL
NO_CHARGES


@<TRIPOS>ATOM
      1 C01         0.5280   24.8300   41.0700           1 34W318      0.0000 
      2 C02         0.0310   25.3840   39.7660           1 34W318      0.0000 
      3 O03        -0.2010   24.6610   38.7960           1 34W318      0.0000 
      4 N04        -0.1280   26.7090   39.7150           1 34W318      0.0000 
      5 C05        -0.8180   27.3440   38.6150           1 34W318      0.0000 
      6 C06        -0.9840   28.8320   38.8290           1 34W318      0.0000 
      7 O07        -0.6400   29.3630   39.8760           1 34W318      0.0000 
      8 N08        -1.6640   29.5080   37.8790           1 34W318      0.0000 
      9 C09        -2.1820   30.8420   38.0510           1 34W318      0.0000 
     10 C10        -2.1840   31.3180   36.5860           1 34W318      0.0000 
     11 C11        -2.4430   29.9840   35.7910           1 34W318      0.0000 
     12 C12        -2.5950   28.9570   36.9220           1 34W318      0.0000 
     13 C13        -3.9100   29.3810   37.5390           1 34W318      0.0000 
     14 C14        -3.6500   30.5440   38.2630           1 34W318      0.0000 
     15 C15        -4.6250   31.1080   39.0710           1 34W318      0.0000 
     16 C16        -5.8690   30.4820   39.1530           1 34W318      0.0000 
     17 C17        -6.1360   29.3240   38.3970           1 34W318      0.0000 
     18 C18        -5.1520   28.7660   37.5810           1 34W318      0.0000 
     19 N19        -7.3490   28.6070   38.4750           1 34W318      0.0000 
     20 C20        -8.3740   28.6950   39.3560           1 34W318      0.0000 
     21 N21        -9.4040   27.8720   39.1420           1 34W318      0.0000 
     22 C22       -10.3680   27.9150   40.0620           1 34W318      0.0000 
     23 C23       -10.3650   28.7820   41.1350           1 34W318      0.0000 
     24 C24        -9.2290   29.6320   41.2440           1 34W318      0.0000 
     25 N25        -8.2400   29.5540   40.3690           1 34W318      0.0000 
     26 N26        -9.1320   30.5600   42.2230           1 34W318      0.0000 
     27 C27        -7.9090   31.3510   42.3330           1 34W318      0.0000 
     28 C28        -7.9010   32.7590   41.7080           1 34W318      0.0000 
     29 C29        -6.9640   33.1720   42.8970           1 34W318      0.0000 
     30 C30        -7.5600   31.9890   43.6920           1 34W318      0.0000 
     31 C31       -11.4930   28.7610   42.1040           1 34W318      0.0000 
     32 F32       -11.0790   28.6230   43.3430           1 34W318      0.0000 
     33 F33       -12.2950   27.7570   41.8820           1 34W318      0.0000 
     34 F34       -12.2060   29.8740   42.0370           1 34W318      0.0000 
@<TRIPOS>BOND
     1    1    2 du   
     2    2    3 du   
     3    2    4 du   
     4    4    5 du   
     5    5    6 du   
     6    6    7 du   
     7    6    8 du   
     8    8    9 du   
     9    8   12 du   
    10    9   10 du   
    11    9   14 du   
    12   10   11 du   
    13   11   12 du   
    14   12   13 du   
    15   13   14 du   
    16   13   18 du   
    17   14   15 du   
    18   15   16 du   
    19   16   17 du   
    20   17   18 du   
    21   17   19 du   
    22   19   20 du   
    23   20   21 du   
    24   20   25 du   
    25   21   22 du   
    26   22   23 du   
    27   23   24 du   
    28   23   31 du   
    29   24   25 du   
    30   24   26 du   
    31   26   27 du   
    32   27   28 du   
    33   27   30 du   
    34   28   29 du   
    35   29   30 du   
    36   31   32 du   
    37   31   33 du   
    38   31   34 du   
@<TRIPOS>SUBSTRUCTURE
     1 34W318      1 GROUP   
@<TRIPOS>SET

