#    Name: 6qas_1_34W_CAVITY_N1_4
#    Modification time : Fri May 22 19:32:19 2020

@<TRIPOS>MOLECULE
6qas_1_34W_CAVITY_N1_4
   36     0     7     0     0
SMALL
NO_CHARGES


@<TRIPOS>ATOM
      1 OG          0.8200   25.9500   41.0900 O.3       1 SER1        0.0000 
      2 OG          1.4800   25.3300   39.8900 O.3       1 SER1        0.0000 
      3 OG          2.1300   24.7100   38.6900 O.3       1 SER1        0.0000 
      4 OG          0.4800   27.1600   40.2800 O.3       1 SER1        0.0000 
      5 OG          3.1300   24.7400   41.0900 O.3       1 SER1        0.0000 
      6 OG          3.7800   24.1300   39.8900 O.3       1 SER1        0.0000 
      7 OG          2.1300   26.5700   41.4800 O.3       1 SER1        0.0000 
      8 OG          4.4300   25.3700   41.4800 O.3       1 SER1        0.0000 
      9 N           3.1300   22.8800   38.3000 N.am      2 ALA2        0.0000 
     10 N           0.1700   26.5600   42.2900 N.am      2 ALA2        0.0000 
     11 N           2.7900   24.1000   37.4900 N.am      2 ALA2        0.0000 
     12 N           1.4700   27.1900   42.6800 N.am      2 ALA2        0.0000 
     13 N           1.1300   28.4000   41.8700 N.am      2 ALA2        0.0000 
     14 OD1        -0.1300   22.2400   38.7200 O.co2     3 ASP3        0.0000 
     15 OD1         0.5200   21.6200   37.5200 O.co2     3 ASP3        0.0000 
     16 OD1         0.1800   22.8400   36.7100 O.co2     3 ASP3        0.0000 
     17 OD1         0.8300   24.0800   38.3000 O.co2     3 ASP3        0.0000 
     18 NZ          0.8600   22.2700   41.1200 N.4       4 LYS4        0.0000 
     19 NZ          1.1700   24.7300   41.9000 N.4       4 LYS4        0.0000 
     20 NZ          1.8200   24.1100   40.7000 N.4       4 LYS4        0.0000 
     21 NZ          3.4700   23.5300   41.9000 N.4       4 LYS4        0.0000 
     22 NZ          2.4700   25.3600   42.2900 N.4       4 LYS4        0.0000 
     23 CZ          3.4300   27.2000   41.8700 C.ar      5 PHE5        0.0000 
     24 CZ          2.4300   29.0300   42.2600 C.ar      5 PHE5        0.0000 
     25 CA         -0.4400   21.6400   40.7300 C.3       6 GLY6        0.0000 
     26 CA          0.2100   21.0300   39.5300 C.3       6 GLY6        0.0000 
     27 CA         -0.1400   24.1000   41.5100 C.3       6 GLY6        0.0000 
     28 CA          0.5200   23.4900   40.3100 C.3       6 GLY6        0.0000 
     29 CA         -0.4800   25.3200   40.7000 C.3       6 GLY6        0.0000 
     30 CA          0.1700   24.7000   39.5000 C.3       6 GLY6        0.0000 
     31 CA          0.5100   25.3500   43.1000 C.3       6 GLY6        0.0000 
     32 DU          1.5200   21.6600   39.9200 H         7 CUB7        0.0000 
     33 DU          1.1700   22.8700   39.1100 H         7 CUB7        0.0000 
     34 DU          1.8300   22.2500   37.9100 H         7 CUB7        0.0000 
     35 DU          2.4800   23.5000   39.5000 H         7 CUB7        0.0000 
     36 DU          3.7800   25.9900   42.6800 H         7 CUB7        0.0000 
@<TRIPOS>BOND
@<TRIPOS>SUBSTRUCTURE
     1 SER1        1 GROUP   
     2 ALA2        9 GROUP   
     3 ASP3       14 GROUP   
     4 LYS4       18 GROUP   
     5 PHE5       23 GROUP   
     6 GLY6       25 GROUP   
     7 CUB7       32 GROUP   
@<TRIPOS>SET

