#    Name: 6qas_1_34W_CAVITY_N1_12
#    Modification time : Fri May 22 19:32:19 2020

@<TRIPOS>MOLECULE
6qas_1_34W_CAVITY_N1_12
  102     0     7     0     0
SMALL
NO_CHARGES


@<TRIPOS>ATOM
      1 OG          0.8200   25.9500   41.0900 O.3       1 SER1        0.0000 
      2 OG          1.4800   25.3300   39.8900 O.3       1 SER1        0.0000 
      3 OG          2.1300   24.7100   38.6900 O.3       1 SER1        0.0000 
      4 OG          0.4800   27.1600   40.2800 O.3       1 SER1        0.0000 
      5 OG          3.1300   24.7400   41.0900 O.3       1 SER1        0.0000 
      6 OG          3.7800   24.1300   39.8900 O.3       1 SER1        0.0000 
      7 OG          2.1300   26.5700   41.4800 O.3       1 SER1        0.0000 
      8 OG          4.4300   25.3700   41.4800 O.3       1 SER1        0.0000 
      9 OG          5.0900   24.7600   40.2800 O.3       1 SER1        0.0000 
     10 OG          6.7400   24.1700   41.4800 O.3       1 SER1        0.0000 
     11 N           2.8600   18.6100   40.3400 N.am      2 ALA2        0.0000 
     12 N           2.4800   21.6400   36.7100 N.am      2 ALA2        0.0000 
     13 N           3.1400   21.0200   35.5100 N.am      2 ALA2        0.0000 
     14 N           2.1400   22.8500   35.9000 N.am      2 ALA2        0.0000 
     15 O           3.5100   19.8600   41.9300 O.2       2 ALA2        0.0000 
     16 O           4.1600   19.2400   40.7300 O.2       2 ALA2        0.0000 
     17 O           3.8200   20.4500   39.9200 O.2       2 ALA2        0.0000 
     18 N           3.1300   22.8800   38.3000 N.am      2 ALA2        0.0000 
     19 N           0.1700   26.5600   42.2900 N.am      2 ALA2        0.0000 
     20 N           2.7900   24.1000   37.4900 N.am      2 ALA2        0.0000 
     21 O           4.4700   21.7000   41.5100 O.2       2 ALA2        0.0000 
     22 O           5.1200   21.0800   40.3100 O.2       2 ALA2        0.0000 
     23 N           4.7800   22.3000   39.5000 N.am      2 ALA2        0.0000 
     24 N           4.4400   23.5100   38.6900 N.am      2 ALA2        0.0000 
     25 N           1.4700   27.1900   42.6800 N.am      2 ALA2        0.0000 
     26 N           1.1300   28.4000   41.8700 N.am      2 ALA2        0.0000 
     27 O           5.7700   22.3300   41.9000 O.2       2 ALA2        0.0000 
     28 O           6.4300   21.7100   40.7000 O.2       2 ALA2        0.0000 
     29 N           2.4700   27.2200   45.0800 N.am      2 ALA2        0.0000 
     30 N           3.1200   26.6000   43.8800 N.am      2 ALA2        0.0000 
     31 O           5.7400   24.1400   39.0800 O.2       2 ALA2        0.0000 
     32 N           2.7800   27.8200   43.0700 N.am      2 ALA2        0.0000 
     33 N           4.7700   26.0200   45.0800 N.am      2 ALA2        0.0000 
     34 N           5.4200   25.4000   43.8800 N.am      2 ALA2        0.0000 
     35 N           7.3900   23.5600   40.2800 N.am      2 ALA2        0.0000 
     36 N           4.4300   27.2300   44.2700 N.am      2 ALA2        0.0000 
     37 N           6.0700   26.6500   45.4700 N.am      2 ALA2        0.0000 
     38 O           5.7300   27.8600   44.6600 O.2       2 ALA2        0.0000 
     39 O           6.3900   27.2500   43.4600 O.2       2 ALA2        0.0000 
     40 OD1        -0.4400   19.7800   37.9400 O.co2     3 ASP3        0.0000 
     41 OD1         0.2200   19.1700   36.7400 O.co2     3 ASP3        0.0000 
     42 OD1        -0.1300   20.3800   35.9300 O.co2     3 ASP3        0.0000 
     43 OD1        -0.4700   21.5900   35.1200 O.co2     3 ASP3        0.0000 
     44 OD1         0.8700   20.4100   38.3300 O.co2     3 ASP3        0.0000 
     45 OD1        -0.1300   22.2400   38.7200 O.co2     3 ASP3        0.0000 
     46 OD1         0.5200   21.6200   37.5200 O.co2     3 ASP3        0.0000 
     47 OD1         1.1800   21.0100   36.3200 O.co2     3 ASP3        0.0000 
     48 OD1         0.1800   22.8400   36.7100 O.co2     3 ASP3        0.0000 
     49 OD1         0.8400   22.2200   35.5100 O.co2     3 ASP3        0.0000 
     50 OD1         1.4900   21.6100   34.3100 O.co2     3 ASP3        0.0000 
     51 OD1         0.8300   24.0800   38.3000 O.co2     3 ASP3        0.0000 
     52 NZ          0.9000   18.6000   41.1500 N.4       4 LYS4        0.0000 
     53 NZ         -0.1000   20.4300   41.5400 N.4       4 LYS4        0.0000 
     54 NZ          2.2000   19.2300   41.5400 N.4       4 LYS4        0.0000 
     55 NZ          1.8600   20.4400   40.7300 N.4       4 LYS4        0.0000 
     56 NZ          0.8600   22.2700   41.1200 N.4       4 LYS4        0.0000 
     57 NZ          3.1600   21.0700   41.1200 N.4       4 LYS4        0.0000 
     58 NZ          1.1700   24.7300   41.9000 N.4       4 LYS4        0.0000 
     59 NZ          1.8200   24.1100   40.7000 N.4       4 LYS4        0.0000 
     60 NZ          3.4700   23.5300   41.9000 N.4       4 LYS4        0.0000 
     61 NZ          4.1300   22.9100   40.7000 N.4       4 LYS4        0.0000 
     62 NZ          2.4700   25.3600   42.2900 N.4       4 LYS4        0.0000 
     63 NZ          4.4600   23.5600   44.3000 N.4       4 LYS4        0.0000 
     64 NZ          5.1200   22.9400   43.1000 N.4       4 LYS4        0.0000 
     65 NZ          4.1200   24.7700   43.4900 N.4       4 LYS4        0.0000 
     66 NZ          4.7800   24.1600   42.2900 N.4       4 LYS4        0.0000 
     67 CZ          3.4300   27.2000   41.8700 C.ar      5 PHE5        0.0000 
     68 CZ          2.4300   29.0300   42.2600 C.ar      5 PHE5        0.0000 
     69 CA         -1.4100   19.8000   41.1500 C.3       6 GLY6        0.0000 
     70 CA         -0.7500   19.1800   39.9500 C.3       6 GLY6        0.0000 
     71 CA         -1.0900   20.4000   39.1400 C.3       6 GLY6        0.0000 
     72 CA         -0.4400   21.6400   40.7300 C.3       6 GLY6        0.0000 
     73 CA          0.2100   21.0300   39.5300 C.3       6 GLY6        0.0000 
     74 CA         -0.1400   24.1000   41.5100 C.3       6 GLY6        0.0000 
     75 CA          0.5200   23.4900   40.3100 C.3       6 GLY6        0.0000 
     76 CA         -0.4800   25.3200   40.7000 C.3       6 GLY6        0.0000 
     77 CA          0.1700   24.7000   39.5000 C.3       6 GLY6        0.0000 
     78 CA          4.1300   21.0500   37.9100 C.3       6 GLY6        0.0000 
     79 CA          0.5100   25.3500   43.1000 C.3       6 GLY6        0.0000 
     80 CA          5.4400   21.6800   38.3000 C.3       6 GLY6        0.0000 
     81 CA          6.0900   22.9300   39.8900 C.3       6 GLY6        0.0000 
     82 CA          5.7700   24.1900   44.6900 C.3       6 GLY6        0.0000 
     83 CA          6.4200   23.5700   43.4900 C.3       6 GLY6        0.0000 
     84 CA          7.0800   22.9600   42.2900 C.3       6 GLY6        0.0000 
     85 CA          6.0800   24.7900   42.6800 C.3       6 GLY6        0.0000 
     86 CA          6.7300   26.0300   44.2700 C.3       6 GLY6        0.0000 
     87 CA          7.3800   25.4200   43.0700 C.3       6 GLY6        0.0000 
     88 DU          0.5500   19.8100   40.3400 H         7 CUB7        0.0000 
     89 DU          1.2100   19.2000   39.1400 H         7 CUB7        0.0000 
     90 DU          1.5200   19.7900   37.1300 H         7 CUB7        0.0000 
     91 DU          1.8300   20.3900   35.1200 H         7 CUB7        0.0000 
     92 DU          2.5200   19.8200   39.5300 H         7 CUB7        0.0000 
     93 DU          1.5200   21.6600   39.9200 H         7 CUB7        0.0000 
     94 DU          2.1700   21.0400   38.7200 H         7 CUB7        0.0000 
     95 DU          2.8300   20.4200   37.5200 H         7 CUB7        0.0000 
     96 DU          1.1700   22.8700   39.1100 H         7 CUB7        0.0000 
     97 DU          1.8300   22.2500   37.9100 H         7 CUB7        0.0000 
     98 DU          3.4800   21.6700   39.1100 H         7 CUB7        0.0000 
     99 DU          2.4800   23.5000   39.5000 H         7 CUB7        0.0000 
    100 DU          5.4300   23.5400   41.0900 H         7 CUB7        0.0000 
    101 DU          3.7800   25.9900   42.6800 H         7 CUB7        0.0000 
    102 DU          5.0800   26.6200   43.0700 H         7 CUB7        0.0000 
@<TRIPOS>BOND
@<TRIPOS>SUBSTRUCTURE
     1 SER1        1 GROUP   
     2 ALA2       11 GROUP   
     3 ASP3       40 GROUP   
     4 LYS4       52 GROUP   
     5 PHE5       67 GROUP   
     6 GLY6       69 GROUP   
     7 CUB7       88 GROUP   
@<TRIPOS>SET

