#    Name: 6qas_3_34W
#    Modification time : Fri May 22 19:32:26 2020

@<TRIPOS>MOLECULE
6qas_3_34W
   34    38     1     0     0
SMALL
NO_CHARGES


@<TRIPOS>ATOM
      1 C01        -0.0910   36.4490   21.7580           1 34W316      0.0000 
      2 C02        -0.4500   37.8790   22.0570           1 34W316      0.0000 
      3 O03        -0.9410   38.6210   21.2020           1 34W316      0.0000 
      4 N04        -0.2170   38.2980   23.3060           1 34W316      0.0000 
      5 C05         1.1120   38.6810   23.7450           1 34W316      0.0000 
      6 C06         1.2350   38.9000   25.3640           1 34W316      0.0000 
      7 O07         1.1940   40.0060   25.8810           1 34W316      0.0000 
      8 N08         1.3950   37.7690   26.0840           1 34W316      0.0000 
      9 C09         0.5950   36.6020   25.8000           1 34W316      0.0000 
     10 C10         1.7130   35.6330   25.3560           1 34W316      0.0000 
     11 C11         2.9500   36.1100   26.2690           1 34W316      0.0000 
     12 C12         2.3190   37.2630   27.0790           1 34W316      0.0000 
     13 C13         1.3730   36.5050   27.9850           1 34W316      0.0000 
     14 C14         0.2940   36.1220   27.1950           1 34W316      0.0000 
     15 C15        -0.8490   35.5870   27.7690           1 34W316      0.0000 
     16 C16        -0.9210   35.4770   29.1460           1 34W316      0.0000 
     17 C17         0.1540   35.8830   29.9490           1 34W316      0.0000 
     18 C18         1.3410   36.3530   29.3670           1 34W316      0.0000 
     19 N19        -0.0430   35.8790   31.3390           1 34W316      0.0000 
     20 C20         0.7920   36.2590   32.3510           1 34W316      0.0000 
     21 N21         0.3590   36.0060   33.5980           1 34W316      0.0000 
     22 C22         1.1730   36.4040   34.5890           1 34W316      0.0000 
     23 C23         2.3770   37.0580   34.3820           1 34W316      0.0000 
     24 C24         2.7520   37.2550   32.9990           1 34W316      0.0000 
     25 N25         1.9590   36.8410   32.0060           1 34W316      0.0000 
     26 N26         3.9020   37.9030   32.6810           1 34W316      0.0000 
     27 C27         4.3960   38.0920   31.3170           1 34W316      0.0000 
     28 C28         4.1490   39.4540   30.6430           1 34W316      0.0000 
     29 C29         5.5720   39.2890   30.0220           1 34W316      0.0000 
     30 C30         5.9140   38.3260   31.1400           1 34W316      0.0000 
     31 C31         3.1540   37.6090   35.5450           1 34W316      0.0000 
     32 F32         2.5290   37.4130   36.7190           1 34W316      0.0000 
     33 F33         3.2880   38.9660   35.4780           1 34W316      0.0000 
     34 F34         4.4320   37.0550   35.6300           1 34W316      0.0000 
@<TRIPOS>BOND
     1    1    2 du   
     2    2    3 du   
     3    2    4 du   
     4    4    5 du   
     5    5    6 du   
     6    6    7 du   
     7    6    8 du   
     8    8    9 du   
     9    8   12 du   
    10    9   10 du   
    11    9   14 du   
    12   10   11 du   
    13   11   12 du   
    14   12   13 du   
    15   13   14 du   
    16   13   18 du   
    17   14   15 du   
    18   15   16 du   
    19   16   17 du   
    20   17   18 du   
    21   17   19 du   
    22   19   20 du   
    23   20   21 du   
    24   20   25 du   
    25   21   22 du   
    26   22   23 du   
    27   23   24 du   
    28   23   31 du   
    29   24   25 du   
    30   24   26 du   
    31   26   27 du   
    32   27   28 du   
    33   27   30 du   
    34   28   29 du   
    35   29   30 du   
    36   31   32 du   
    37   31   33 du   
    38   31   34 du   
@<TRIPOS>SUBSTRUCTURE
     1 34W316      1 GROUP   
@<TRIPOS>SET

