#    Name: 5w6x_2_APR
#    Modification time : Fri May 22 19:14:08 2020

@<TRIPOS>MOLECULE
5w6x_2_APR
   36    39     1     0     0
SMALL
NO_CHARGES


@<TRIPOS>ATOM
      1 N1         12.3370   17.1240    8.1250 N.ar      1 APR401      0.0000 
      2 C2         12.2400   16.4880    6.9620 C.ar      1 APR401      0.0000 
      3 N3         13.1070   15.5750    6.5300 N.ar      1 APR401      0.0000 
      4 C4         14.1660   15.2320    7.2610 C.ar      1 APR401      0.0000 
      5 C5         14.3570   15.8790    8.5550 C.ar      1 APR401      0.0000 
      6 C6         13.3480   16.8840    8.9760 C.ar      1 APR401      0.0000 
      7 N6         13.4300   17.5320   10.1540 N.pl3     1 APR401      0.0000 
      8 N7         15.4680   15.3520    9.0510 N.2       1 APR401      0.0000 
      9 C8         15.9370   14.4490    8.1710 C.2       1 APR401      0.0000 
     10 N9         15.1630   14.3920    7.1000 N.pl3     1 APR401      0.0000 
     11 C1'        15.3420   13.5190    5.9360 C.3       1 APR401      0.0000 
     12 C2'        16.7310   13.6160    5.3410 C.3       1 APR401      0.0000 
     13 O2'        16.7440   14.4950    4.2180 O.3       1 APR401      0.0000 
     14 C3'        16.9580   12.2180    4.8590 C.3       1 APR401      0.0000 
     15 O3'        16.3530   12.1390    3.5760 O.3       1 APR401      0.0000 
     16 O4'        15.1580   12.1750    6.3580 O.3       1 APR401      0.0000 
     17 C4'        16.1720   11.3520    5.8180 C.3       1 APR401      0.0000 
     18 C5'        17.0660   10.7410    6.8980 C.3       1 APR401      0.0000 
     19 O5'        17.0740   11.4620    8.1350 O.3       1 APR401      0.0000 
     20 PA         18.1290   11.1130    9.2950 P.3       1 APR401      0.0000 
     21 O1A        17.7020   11.8620   10.5000 O.co2     1 APR401      0.0000 
     22 O2A        19.5010   11.2990    8.7370 O.co2     1 APR401      0.0000 
     23 O3A        17.7710    9.5680    9.5430 O.3       1 APR401      0.0000 
     24 PB         18.7510    8.4260   10.0980 P.3       1 APR401      0.0000 
     25 O1B        17.9470    7.1780   10.2620 O.co2     1 APR401      0.0000 
     26 O2B        19.5120    8.9770   11.2620 O.co2     1 APR401      0.0000 
     27 O5D        19.6120    8.3600    8.7350 O.3       1 APR401      0.0000 
     28 C5D        20.8840    7.7870    8.4610 C.3       1 APR401      0.0000 
     29 O4D        22.4870    7.8070    6.5930 O.3       1 APR401      0.0000 
     30 O1D        23.2580    7.6290    4.3770 O.3       1 APR401      0.0000 
     31 C1D        22.8050    8.5120    5.4010 C.3       1 APR401      0.0000 
     32 O2D        21.7270   10.4150    4.4000 O.3       1 APR401      0.0000 
     33 C2D        21.4890    9.1480    5.0260 C.3       1 APR401      0.0000 
     34 O3D        20.5400   10.6700    6.6190 O.3       1 APR401      0.0000 
     35 C3D        20.7210    9.2850    6.3280 C.3       1 APR401      0.0000 
     36 C4D        21.5950    8.6070    7.3730 C.3       1 APR401      0.0000 
@<TRIPOS>BOND
     1    1    2 ar   
     2    1    6 ar   
     3    2    3 ar   
     4    3    4 ar   
     5    4    5 ar   
     6    4   10 1    
     7    5    6 ar   
     8    5    8 1    
     9    6    7 1    
    10    8    9 2    
    11    9   10 1    
    12   10   11 1    
    13   11   12 1    
    14   11   16 1    
    15   12   13 1    
    16   12   14 1    
    17   14   15 1    
    18   14   17 1    
    19   16   17 1    
    20   17   18 1    
    21   18   19 1    
    22   19   20 1    
    23   20   21 ar   
    24   20   22 ar   
    25   20   23 1    
    26   23   24 1    
    27   24   25 ar   
    28   24   26 ar   
    29   24   27 1    
    30   27   28 1    
    31   28   36 1    
    32   29   31 1    
    33   29   36 1    
    34   30   31 1    
    35   31   33 1    
    36   32   33 1    
    37   33   35 1    
    38   34   35 1    
    39   35   36 1    
@<TRIPOS>SUBSTRUCTURE
     1 APR401      1 GROUP   
@<TRIPOS>SET

