#    Name: 6add_3_COA
#    Modification time : Fri May 22 19:30:06 2020

@<TRIPOS>MOLECULE
6add_3_COA
   48    50     1     0     1
SMALL
NO_CHARGES


@<TRIPOS>ATOM
      1 N1A        -8.7780    4.7170   16.1930 N.ar      1 COA201      0.0000 
      2 C2A        -9.9650    5.2980   16.3910 C.ar      1 COA201      0.0000 
      3 N3A       -11.1020    4.5340   16.4650 N.ar      1 COA201      0.0000 
      4 C4A       -11.0210    3.1940   16.3520 C.ar      1 COA201      0.0000 
      5 C5A        -9.8370    2.6080   16.1640 C.ar      1 COA201      0.0000 
      6 C6A        -8.6930    3.3820   16.0800 C.ar      1 COA201      0.0000 
      7 N6A        -7.3170    3.0290   15.8840 N.pl3     1 COA201      0.0000 
      8 N7A       -10.0440    1.2620   16.0900 N.2       1 COA201      0.0000 
      9 C8A       -11.3600    1.0300   16.2350 C.2       1 COA201      0.0000 
     10 N9A       -11.9610    2.2210   16.3920 N.pl3     1 COA201      0.0000 
     11 C1B       -13.3390    1.9640   16.5440 C.3       1 COA201      0.0000 
     12 C2B       -13.8920    2.9960   17.1600 C.3       1 COA201      0.0000 
     13 O2B       -14.0280    2.7260   18.5640 O.3       1 COA201      0.0000 
     14 C3B       -15.3620    3.2160   16.5100 C.3       1 COA201      0.0000 
     15 O3B       -16.3410    2.8290   17.4590 O.3       1 COA201      0.0000 
     16 P3B       -17.2910    4.0540   18.0860 P.3       1 COA201      0.0000 
     17 O7A       -18.2430    3.4380   19.1130 O.co2     1 COA201      0.0000 
     18 O8A       -16.4120    5.1020   18.7260 O.co2     1 COA201      0.0000 
     19 O9A       -18.1110    4.6820   16.9650 O.co2     1 COA201      0.0000 
     20 C4B       -15.4630    2.4510   15.3920 C.3       1 COA201      0.0000 
     21 O4B       -14.0400    1.9370   15.1210 O.3       1 COA201      0.0000 
     22 C5B       -15.9220    3.3540   14.2270 C.3       1 COA201      0.0000 
     23 O5B       -15.1270    4.4970   14.2570 O.3       1 COA201      0.0000 
     24 P1A       -14.2900    4.9310   12.8840 P.3       1 COA201      0.0000 
     25 O1A       -13.2940    3.8570   12.5130 O.co2     1 COA201      0.0000 
     26 O2A       -13.5880    6.2150   13.1020 O.co2     1 COA201      0.0000 
     27 O3A       -15.3850    5.1310   11.6580 O.3       1 COA201      0.0000 
     28 P2A       -15.2900    4.2790   10.2350 P.3       1 COA201      0.0000 
     29 O4A       -13.9530    4.5730    9.6030 O.co2     1 COA201      0.0000 
     30 O5A       -15.4670    2.7620   10.4500 O.co2     1 COA201      0.0000 
     31 O6A       -16.5370    4.7970    9.2500 O.3       1 COA201      0.0000 
     32 CBP       -18.8450    5.1990    8.7070 C.3       1 COA201      0.0000 
     33 CCP       -17.8030    5.0410    9.8360 C.3       1 COA201      0.0000 
     34 CDP       -20.2010    5.0790    9.2880 C.3       1 COA201      0.0000 
     35 CEP       -18.6980    6.5720    8.0620 C.3       1 COA201      0.0000 
     36 CAP       -18.6020    4.0730    7.6470 C.3       1 COA201      0.0000 
     37 OAP       -18.9450    2.8360    8.2100 O.3       1 COA201      0.0000 
     38 C9P       -19.4100    4.3230    6.3980 C.2       1 COA201      0.0000 
     39 O9P       -18.8760    4.8440    5.4310 O.2       1 COA201      0.0000 
     40 N8P       -20.8100    3.9390    6.3410 N.am      1 COA201      0.0000 
     41 C7P       -21.6160    4.1760    5.1490 C.3       1 COA201      0.0000 
     42 C6P       -21.8240    5.7160    4.8920 C.3       1 COA201      0.0000 
     43 C5P       -22.5640    6.3940    6.0640 C.2       1 COA201      0.0000 
     44 O5P       -23.2920    5.7530    6.7980 O.2       1 COA201      0.0000 
     45 N4P       -22.3870    7.8240    6.2930 N.am      1 COA201      0.0000 
     46 C3P       -23.0990    8.5340    7.4180 C.3       1 COA201      0.0000 
     47 C2P       -24.1450    9.4630    6.8340 C.3       1 COA201      0.0000 
     48 S1P       -23.4120   10.7650    5.8280 S.3       1 COA201      0.0000 
@<TRIPOS>BOND
     1    1    2 ar   
     2    1    6 ar   
     3    2    3 ar   
     4    3    4 ar   
     5    4    5 ar   
     6    4   10 1    
     7    5    6 ar   
     8    5    8 1    
     9    6    7 1    
    10    8    9 2    
    11    9   10 1    
    12   10   11 1    
    13   11   12 1    
    14   11   21 1    
    15   12   13 1    
    16   12   14 1    
    17   14   15 1    
    18   14   20 1    
    19   15   16 1    
    20   16   17 ar   
    21   16   18 ar   
    22   16   19 ar   
    23   20   21 1    
    24   20   22 1    
    25   22   23 1    
    26   23   24 1    
    27   24   25 ar   
    28   24   26 ar   
    29   24   27 1    
    30   27   28 1    
    31   28   29 ar   
    32   28   30 ar   
    33   28   31 1    
    34   31   33 1    
    35   32   33 1    
    36   32   34 1    
    37   32   35 1    
    38   32   36 1    
    39   36   37 1    
    40   36   38 1    
    41   38   39 2    
    42   38   40 am   
    43   40   41 1    
    44   41   42 1    
    45   42   43 1    
    46   43   44 2    
    47   43   45 am   
    48   45   46 1    
    49   46   47 1    
    50   47   48 1    
@<TRIPOS>SUBSTRUCTURE
     1 COA201      1 GROUP   
@<TRIPOS>SET
ATOM$ORANGE STATIC     ATOMS   COLORGROUP SYSTEM 
42 2 2 4 4 5 5 6 6 9 9 11 11 12 12 14 14 20 \
20 22 22 32 32 33 33 34 34 35 35 36 36 38 38 41 41 42 \
42 43 43 46 46 47 47 

