#    Name: 6add_3_COA_CAVITY_N1_4
#    Modification time : Fri May 22 19:30:09 2020

@<TRIPOS>MOLECULE
6add_3_COA_CAVITY_N1_4
   86     0     6     0     0
SMALL
NO_CHARGES


@<TRIPOS>ATOM
      1 OG        -19.8700    2.2700    6.8700 O.3       1 SER1        0.0000 
      2 OG        -18.6000    2.2600    6.0900 O.3       1 SER1        0.0000 
      3 OG        -22.8400    7.6400    7.6800 O.3       1 SER1        0.0000 
      4 OG        -24.6400    8.7500    7.5900 O.3       1 SER1        0.0000 
      5 OG        -23.3600    8.7400    6.8100 O.3       1 SER1        0.0000 
      6 OG        -16.6500    4.1000   14.9400 O.3       1 SER1        0.0000 
      7 N         -21.4500    5.5700    4.2500 N.am      2 ALA2        0.0000 
      8 O         -18.5400    4.3800    6.1400 O.2       2 ALA2        0.0000 
      9 N         -20.3400    5.4900    6.0500 N.am      2 ALA2        0.0000 
     10 N         -22.1400    6.6000    5.9700 N.am      2 ALA2        0.0000 
     11 N         -22.6700    7.7000    5.0900 N.am      2 ALA2        0.0000 
     12 N         -21.0300    6.5300    7.7700 N.am      2 ALA2        0.0000 
     13 N         -19.7600    6.5100    6.9800 N.am      2 ALA2        0.0000 
     14 N         -21.5600    7.6200    6.9000 N.am      2 ALA2        0.0000 
     15 N         -25.1700    9.8500    6.7200 N.am      2 ALA2        0.0000 
     16 O         -16.5400    2.0400   12.2900 O.2       2 ALA2        0.0000 
     17 O         -15.7900    3.1200   10.6300 O.2       2 ALA2        0.0000 
     18 O         -14.5100    3.1100    9.8400 O.2       2 ALA2        0.0000 
     19 O         -14.6800    3.0500   12.4300 O.2       2 ALA2        0.0000 
     20 O         -15.2000    4.1400   11.5600 O.2       2 ALA2        0.0000 
     21 O         -13.9300    4.1300   10.7700 O.2       2 ALA2        0.0000 
     22 O         -14.0900    4.0700   13.3600 O.2       2 ALA2        0.0000 
     23 O         -14.6200    5.1700   12.4900 O.2       2 ALA2        0.0000 
     24 O         -13.3400    5.1500   11.7000 O.2       2 ALA2        0.0000 
     25 NZ        -20.5700    3.3100    8.5900 N.4       3 LYS4        0.0000 
     26 NZ        -20.7300    3.2400   11.1800 N.4       3 LYS4        0.0000 
     27 NZ        -19.4500    3.2300   10.4000 N.4       3 LYS4        0.0000 
     28 NZ        -20.1500    4.2700   12.1100 N.4       3 LYS4        0.0000 
     29 CZ        -20.4000    3.3700    6.0000 C.ar      4 PHE5        0.0000 
     30 CZ        -19.1200    3.3600    5.2100 C.ar      4 PHE5        0.0000 
     31 CZ        -20.9300    4.4700    5.1200 C.ar      4 PHE5        0.0000 
     32 CZ        -18.3400    3.1500   12.2000 C.ar      4 PHE5        0.0000 
     33 CZ        -18.8700    4.2500   11.3300 C.ar      4 PHE5        0.0000 
     34 CZ        -17.5900    4.2400   10.5400 C.ar      4 PHE5        0.0000 
     35 CZ        -20.6700    5.3600   11.2400 C.ar      4 PHE5        0.0000 
     36 CZ        -19.4000    5.3500   10.4500 C.ar      4 PHE5        0.0000 
     37 CZ        -18.1200    5.3300    9.6700 C.ar      4 PHE5        0.0000 
     38 CZ        -19.9200    6.4500    9.5800 C.ar      4 PHE5        0.0000 
     39 CZ        -18.6500    6.4300    8.7900 C.ar      4 PHE5        0.0000 
     40 CZ        -21.7300    7.5600    9.4900 C.ar      4 PHE5        0.0000 
     41 CZ        -20.4500    7.5500    8.7000 C.ar      4 PHE5        0.0000 
     42 CZ        -22.2500    8.6600    8.6100 C.ar      4 PHE5        0.0000 
     43 CZ        -24.0600    9.7700    8.5300 C.ar      4 PHE5        0.0000 
     44 CZ        -22.7800    9.7600    7.7400 C.ar      4 PHE5        0.0000 
     45 CZ        -23.3100   10.8600    6.8600 C.ar      4 PHE5        0.0000 
     46 CZ        -19.0400    4.1900   13.9200 C.ar      4 PHE5        0.0000 
     47 CZ        -17.7600    4.1700   13.1300 C.ar      4 PHE5        0.0000 
     48 CZ        -16.4800    4.1600   12.3500 C.ar      4 PHE5        0.0000 
     49 CZ        -17.0100    5.2600   11.4700 C.ar      4 PHE5        0.0000 
     50 CZ        -18.0600    7.4500    9.7200 C.ar      4 PHE5        0.0000 
     51 CZ        -15.3700    4.0800   14.1500 C.ar      4 PHE5        0.0000 
     52 CA        -22.7300    5.5800    5.0400 C.3       5 GLY6        0.0000 
     53 CA        -18.7600    2.1900    8.6800 C.3       5 GLY6        0.0000 
     54 CA        -18.0100    3.2800    7.0200 C.3       5 GLY6        0.0000 
     55 CA        -21.0900    4.4100    7.7200 C.3       5 GLY6        0.0000 
     56 CA        -22.9000    5.5200    7.6300 C.3       5 GLY6        0.0000 
     57 CA        -23.4200    6.6200    6.7500 C.3       5 GLY6        0.0000 
     58 CA        -23.9500    7.7200    5.8800 C.3       5 GLY6        0.0000 
     59 CA        -17.6500    2.1200   10.4900 C.3       5 GLY6        0.0000 
     60 CA        -16.3700    2.1000    9.7000 C.3       5 GLY6        0.0000 
     61 CA        -16.9000    3.2000    8.8200 C.3       5 GLY6        0.0000 
     62 CA        -19.9800    4.3300    9.5200 C.3       5 GLY6        0.0000 
     63 CA        -17.4300    4.3000    7.9500 C.3       5 GLY6        0.0000 
     64 CA        -20.5100    5.4300    8.6500 C.3       5 GLY6        0.0000 
     65 CA        -17.9500    5.4000    7.0700 C.3       5 GLY6        0.0000 
     66 CA        -22.3100    6.5400    8.5600 C.3       5 GLY6        0.0000 
     67 CA        -18.4800    6.5000    6.2000 C.3       5 GLY6        0.0000 
     68 CA        -23.8900    9.8400    5.9300 C.3       5 GLY6        0.0000 
     69 CA        -15.0400    4.2100    8.9700 C.3       5 GLY6        0.0000 
     70 CA        -16.8400    5.3200    8.8800 C.3       5 GLY6        0.0000 
     71 CA        -21.2000    6.4600   10.3600 C.3       5 GLY6        0.0000 
     72 CA        -17.3700    6.4200    8.0000 C.3       5 GLY6        0.0000 
     73 CA        -19.1700    7.5300    7.9200 C.3       5 GLY6        0.0000 
     74 CA        -17.8900    7.5200    7.1300 C.3       5 GLY6        0.0000 
     75 CA        -20.9800    8.6500    7.8300 C.3       5 GLY6        0.0000 
     76 CA        -24.5800   10.8700    7.6500 C.3       5 GLY6        0.0000 
     77 CA        -15.9500    3.0600   13.2200 C.3       5 GLY6        0.0000 
     78 CA        -18.5900    8.5500    8.8500 C.3       5 GLY6        0.0000 
     79 DU        -19.2900    3.2900    7.8000 H         6 CUB7        0.0000 
     80 DU        -19.8100    4.3900    6.9300 H         6 CUB7        0.0000 
     81 DU        -21.6200    5.5000    6.8400 H         6 CUB7        0.0000 
     82 DU        -18.1800    3.2200    9.6100 H         6 CUB7        0.0000 
     83 DU        -18.7000    4.3100    8.7400 H         6 CUB7        0.0000 
     84 DU        -19.2300    5.4100    7.8600 H         6 CUB7        0.0000 
     85 DU        -17.0700    3.1400   11.4200 H         6 CUB7        0.0000 
     86 DU        -16.3200    4.2200    9.7500 H         6 CUB7        0.0000 
@<TRIPOS>BOND
@<TRIPOS>SUBSTRUCTURE
     1 SER1        1 GROUP   
     2 ALA2        7 GROUP   
     3 LYS4       25 GROUP   
     4 PHE5       29 GROUP   
     5 GLY6       52 GROUP   
     6 CUB7       79 GROUP   
@<TRIPOS>SET

