#    Name: 6p3o_1_SAH
#    Modification time : Fri May 22 19:30:54 2020

@<TRIPOS>MOLECULE
6p3o_1_SAH
   26    28     1     0     0
SMALL
NO_CHARGES


@<TRIPOS>ATOM
      1 N          67.5960   34.4280    5.6340 N.4       1 SAH401      0.0000 
      2 CA         66.7380   34.7900    6.8090 C.3       1 SAH401      0.0000 
      3 CB         67.5220   35.6360    7.8150 C.3       1 SAH401      0.0000 
      4 CG         68.2220   36.8610    7.2380 C.3       1 SAH401      0.0000 
      5 SD         69.0010   37.6910    8.5850 S.3       1 SAH401      0.0000 
      6 C          65.5010   35.5250    6.3700 C.2       1 SAH401      0.0000 
      7 O          65.3590   35.8440    5.1940 O.co2     1 SAH401      0.0000 
      8 OXT        64.6060   35.8310    7.1650 O.co2     1 SAH401      0.0000 
      9 C5'        70.6930   37.2270    8.3970 C.3       1 SAH401      0.0000 
     10 C4'        70.9290   35.9030    9.1140 C.3       1 SAH401      0.0000 
     11 O4'        72.2340   35.4030    8.8360 O.3       1 SAH401      0.0000 
     12 C3'        70.7940   36.0380   10.6260 C.3       1 SAH401      0.0000 
     13 O3'        69.6920   35.2310   11.0460 O.3       1 SAH401      0.0000 
     14 C2'        72.0980   35.5490   11.2190 C.3       1 SAH401      0.0000 
     15 O2'        71.8850   34.6000   12.2720 O.3       1 SAH401      0.0000 
     16 C1'        72.7930   34.8850   10.0450 C.3       1 SAH401      0.0000 
     17 N9         74.2540   35.0980   10.0430 N.pl3     1 SAH401      0.0000 
     18 C8         74.9250   36.2690   10.0570 C.2       1 SAH401      0.0000 
     19 N7         76.2650   36.0550   10.0350 N.2       1 SAH401      0.0000 
     20 C5         76.4480   34.7210    9.9970 C.ar      1 SAH401      0.0000 
     21 C6         77.6020   33.7960    9.9600 C.ar      1 SAH401      0.0000 
     22 N6         78.8660   34.2790    9.9510 N.pl3     1 SAH401      0.0000 
     23 N1         77.3510   32.4620    9.9320 N.ar      1 SAH401      0.0000 
     24 C2         76.0990   31.9540    9.9320 C.ar      1 SAH401      0.0000 
     25 N3         75.0010   32.7370    9.9650 N.ar      1 SAH401      0.0000 
     26 C4         75.1150   34.0940   10.0010 C.ar      1 SAH401      0.0000 
@<TRIPOS>BOND
     1    1    2 1    
     2    2    3 1    
     3    2    6 1    
     4    3    4 1    
     5    4    5 1    
     6    5    9 1    
     7    6    7 ar   
     8    6    8 ar   
     9    9   10 1    
    10   10   11 1    
    11   10   12 1    
    12   11   16 1    
    13   12   13 1    
    14   12   14 1    
    15   14   15 1    
    16   14   16 1    
    17   16   17 1    
    18   17   18 1    
    19   17   26 1    
    20   18   19 2    
    21   19   20 1    
    22   20   21 ar   
    23   20   26 ar   
    24   21   22 1    
    25   21   23 ar   
    26   23   24 ar   
    27   24   25 ar   
    28   25   26 ar   
@<TRIPOS>SUBSTRUCTURE
     1 SAH401      1 GROUP   
@<TRIPOS>SET

