#    Name: 6nbr_1_NAP
#    Modification time : Fri May 22 19:40:57 2020

@<TRIPOS>MOLECULE
6nbr_1_NAP
   48    52     1     0     1
SMALL
NO_CHARGES


@<TRIPOS>ATOM
      1 PA         -0.0040   30.3070   69.3150 P.3       1 NAP401      0.0000 
      2 O1A        -0.9420   31.3990   69.7730 O.co2     1 NAP401      0.0000 
      3 O2A        -0.2540   29.0370   70.0980 O.co2     1 NAP401      0.0000 
      4 O5B         1.5670   30.8020   69.5420 O.3       1 NAP401      0.0000 
      5 C5B         1.8320   31.7750   70.5330 C.3       1 NAP401      0.0000 
      6 C4B         3.2370   31.4740   71.1390 C.3       1 NAP401      0.0000 
      7 O4B         3.9720   32.5570   71.1480 O.3       1 NAP401      0.0000 
      8 C3B         3.0700   31.0350   72.6100 C.3       1 NAP401      0.0000 
      9 O3B         3.9130   30.0090   72.9000 O.3       1 NAP401      0.0000 
     10 C2B         3.4250   32.3050   73.4100 C.3       1 NAP401      0.0000 
     11 O2B         3.9290   31.9630   74.7790 O.3       1 NAP401      0.0000 
     12 C1B         4.3560   32.8620   72.6910 C.3       1 NAP401      0.0000 
     13 N9A         4.3750   34.2830   72.9090 N.pl3     1 NAP401      0.0000 
     14 C8A         3.5450   35.3040   72.6720 C.2       1 NAP401      0.0000 
     15 N7A         4.1350   36.4260   73.1050 N.2       1 NAP401      0.0000 
     16 C5A         5.3290   36.0890   73.6100 C.ar      1 NAP401      0.0000 
     17 C6A         6.3330   36.8350   74.1800 C.ar      1 NAP401      0.0000 
     18 N6A         6.3450   38.2700   74.3930 N.pl3     1 NAP401      0.0000 
     19 N1A         7.4390   36.2430   74.6020 N.ar      1 NAP401      0.0000 
     20 C2A         7.5840   34.8990   74.4770 C.ar      1 NAP401      0.0000 
     21 N3A         6.5990   34.1620   73.9190 N.ar      1 NAP401      0.0000 
     22 C4A         5.4790   34.7650   73.4880 C.ar      1 NAP401      0.0000 
     23 O3         -0.2380   30.0170   67.6910 O.3       1 NAP401      0.0000 
     24 PN          0.8930   29.2910   66.7000 P.3       1 NAP401      0.0000 
     25 O1N         0.1750   28.7760   65.4790 O.co2     1 NAP401      0.0000 
     26 O2N         1.5780   28.1400   67.4040 O.co2     1 NAP401      0.0000 
     27 O5D         2.0420   30.4060   66.2320 O.3       1 NAP401      0.0000 
     28 C5D         3.3820   29.9690   66.0620 C.3       1 NAP401      0.0000 
     29 C4D         4.0080   30.6270   64.7860 C.3       1 NAP401      0.0000 
     30 O4D         3.4610   30.1260   63.7030 O.3       1 NAP401      0.0000 
     31 C3D         3.7450   32.1500   64.7400 C.3       1 NAP401      0.0000 
     32 O3D         4.8950   32.8350   64.4970 O.3       1 NAP401      0.0000 
     33 C2D         2.7640   32.3320   63.5580 C.3       1 NAP401      0.0000 
     34 O2D         2.9610   33.6680   62.9160 O.3       1 NAP401      0.0000 
     35 C1D         3.0810   31.3680   62.7380 C.3       1 NAP401      0.0000 
     36 N1N         1.9700   31.0180   61.8750 N.pl3     1 NAP401      0.0000 
     37 C2N         0.8380   30.4710   62.3960 C.ar      1 NAP401      0.0000 
     38 C3N        -0.2260   30.1390   61.5640 C.ar      1 NAP401      0.0000 
     39 C7N        -1.5070   29.5200   62.1380 C.2       1 NAP401      0.0000 
     40 O7N        -2.4520   29.3930   61.4410 O.2       1 NAP401      0.0000 
     41 N7N        -1.5670   29.0880   63.5280 N.am      1 NAP401      0.0000 
     42 C4N        -0.1290   30.3630   60.2270 C.ar      1 NAP401      0.0000 
     43 C5N         1.0040   30.9080   59.7080 C.ar      1 NAP401      0.0000 
     44 C6N         2.0640   31.2380   60.5410 C.ar      1 NAP401      0.0000 
     45 P2B         2.7980   31.4790   75.8800 P.3       1 NAP401      0.0000 
     46 O1X         2.6320   29.9740   75.8130 O.co2     1 NAP401      0.0000 
     47 O2X         3.2810   31.9020   77.2500 O.co2     1 NAP401      0.0000 
     48 O3X         1.4610   32.1390   75.5920 O.co2     1 NAP401      0.0000 
@<TRIPOS>BOND
     1    1    2 ar   
     2    1    3 ar   
     3    1    4 1    
     4    1   23 1    
     5    4    5 1    
     6    5    6 1    
     7    6    7 1    
     8    6    8 1    
     9    7   12 1    
    10    8    9 1    
    11    8   10 1    
    12   10   11 1    
    13   10   12 1    
    14   11   45 1    
    15   12   13 1    
    16   13   14 1    
    17   13   22 1    
    18   14   15 2    
    19   15   16 1    
    20   16   17 ar   
    21   16   22 ar   
    22   17   18 1    
    23   17   19 ar   
    24   19   20 ar   
    25   20   21 ar   
    26   21   22 ar   
    27   23   24 1    
    28   24   25 ar   
    29   24   26 ar   
    30   24   27 1    
    31   27   28 1    
    32   28   29 1    
    33   29   30 1    
    34   29   31 1    
    35   30   35 1    
    36   31   32 1    
    37   31   33 1    
    38   33   34 1    
    39   33   35 1    
    40   35   36 1    
    41   36   37 ar   
    42   36   44 ar   
    43   37   38 ar   
    44   38   39 1    
    45   38   42 ar   
    46   39   40 2    
    47   39   41 am   
    48   42   43 ar   
    49   43   44 ar   
    50   45   46 ar   
    51   45   47 ar   
    52   45   48 ar   
@<TRIPOS>SUBSTRUCTURE
     1 NAP401      1 GROUP   
@<TRIPOS>SET
ATOM$ORANGE STATIC     ATOMS   COLORGROUP SYSTEM 
42 5 5 6 6 8 8 10 10 12 12 14 14 16 16 17 17 20 \
20 22 22 28 28 29 29 31 31 33 33 35 35 37 37 38 38 39 \
39 42 42 43 43 44 44 

