#    Name: 6nbr_3_NAP
#    Modification time : Fri May 22 19:41:04 2020

@<TRIPOS>MOLECULE
6nbr_3_NAP
   48    52     1     0     1
SMALL
NO_CHARGES


@<TRIPOS>ATOM
      1 PA         30.2690   -0.8380   70.0220 P.3       1 NAP401      0.0000 
      2 O1A        29.6870    0.5330   70.2830 O.co2     1 NAP401      0.0000 
      3 O2A        29.6950   -1.8430   70.9950 O.co2     1 NAP401      0.0000 
      4 O5B        31.9200   -0.7830   70.1890 O.3       1 NAP401      0.0000 
      5 C5B        32.4600    0.3450   70.8410 C.3       1 NAP401      0.0000 
      6 C4B        33.7170   -0.1260   71.6250 C.3       1 NAP401      0.0000 
      7 O4B        34.6920    0.7250   71.4520 O.3       1 NAP401      0.0000 
      8 C3B        33.3840   -0.1250   73.1280 C.3       1 NAP401      0.0000 
      9 O3B        33.9030   -1.2260   73.7320 O.3       1 NAP401      0.0000 
     10 C2B        34.0560    1.1630   73.6400 C.3       1 NAP401      0.0000 
     11 O2B        34.4100    1.0160   75.0830 O.3       1 NAP401      0.0000 
     12 C1B        35.1270    1.2530   72.9160 C.3       1 NAP401      0.0000 
     13 N9A        35.5590    2.6200   72.8270 N.pl3     1 NAP401      0.0000 
     14 C8A        35.1190    3.7300   72.2270 C.2       1 NAP401      0.0000 
     15 N7A        35.9700    4.7230   72.5160 N.2       1 NAP401      0.0000 
     16 C5A        36.9330    4.2180   73.2970 C.ar      1 NAP401      0.0000 
     17 C6A        38.0390    4.7890   73.8770 C.ar      1 NAP401      0.0000 
     18 N6A        38.4620    6.1740   73.7750 N.pl3     1 NAP401      0.0000 
     19 N1A        38.8470    4.0510   74.6210 N.ar      1 NAP401      0.0000 
     20 C2A        38.5860    2.7330   74.8170 C.ar      1 NAP401      0.0000 
     21 N3A        37.4960    2.1680   74.2510 N.ar      1 NAP401      0.0000 
     22 C4A        36.6790    2.9180   73.4910 C.ar      1 NAP401      0.0000 
     23 O3         29.9160   -1.3140   68.4670 O.3       1 NAP401      0.0000 
     24 PN         30.8390   -2.4740   67.7140 P.3       1 NAP401      0.0000 
     25 O1N        30.0350   -3.1180   66.6120 O.co2     1 NAP401      0.0000 
     26 O2N        31.2420   -3.5170   68.7360 O.co2     1 NAP401      0.0000 
     27 O5D        32.2060   -1.7700   67.0690 O.3       1 NAP401      0.0000 
     28 C5D        33.4470   -2.3910   67.3570 C.3       1 NAP401      0.0000 
     29 C4D        34.3320   -2.4770   66.0730 C.3       1 NAP401      0.0000 
     30 O4D        33.7020   -3.0770   65.0930 O.3       1 NAP401      0.0000 
     31 C3D        34.6770   -1.0680   65.5720 C.3       1 NAP401      0.0000 
     32 O3D        36.0070   -1.0010   65.3250 O.3       1 NAP401      0.0000 
     33 C2D        33.8800   -0.9320   64.2590 C.3       1 NAP401      0.0000 
     34 O2D        34.5870   -0.0050   63.3250 O.3       1 NAP401      0.0000 
     35 C1D        33.8200   -2.1390   63.7800 C.3       1 NAP401      0.0000 
     36 N1N        32.6500   -2.3000   62.9380 N.pl3     1 NAP401      0.0000 
     37 C2N        31.4210   -2.4180   63.5020 C.ar      1 NAP401      0.0000 
     38 C3N        30.2920   -2.5730   62.7070 C.ar      1 NAP401      0.0000 
     39 C7N        28.9030   -2.7080   63.3530 C.2       1 NAP401      0.0000 
     40 O7N        27.9830   -3.0600   62.6970 O.2       1 NAP401      0.0000 
     41 N7N        28.7110   -2.4080   64.7680 N.am      1 NAP401      0.0000 
     42 C4N        30.4240   -2.6040   61.3570 C.ar      1 NAP401      0.0000 
     43 C5N        31.6550   -2.4890   60.7910 C.ar      1 NAP401      0.0000 
     44 C6N        32.7780   -2.3350   61.5900 C.ar      1 NAP401      0.0000 
     45 P2B        33.1280    0.9100   76.1130 P.3       1 NAP401      0.0000 
     46 O1X        32.4450   -0.4360   75.9560 O.co2     1 NAP401      0.0000 
     47 O2X        33.6790    1.0440   77.5160 O.co2     1 NAP401      0.0000 
     48 O3X        32.1490    2.0320   75.8250 O.co2     1 NAP401      0.0000 
@<TRIPOS>BOND
     1    1    2 ar   
     2    1    3 ar   
     3    1    4 1    
     4    1   23 1    
     5    4    5 1    
     6    5    6 1    
     7    6    7 1    
     8    6    8 1    
     9    7   12 1    
    10    8    9 1    
    11    8   10 1    
    12   10   11 1    
    13   10   12 1    
    14   11   45 1    
    15   12   13 1    
    16   13   14 1    
    17   13   22 1    
    18   14   15 2    
    19   15   16 1    
    20   16   17 ar   
    21   16   22 ar   
    22   17   18 1    
    23   17   19 ar   
    24   19   20 ar   
    25   20   21 ar   
    26   21   22 ar   
    27   23   24 1    
    28   24   25 ar   
    29   24   26 ar   
    30   24   27 1    
    31   27   28 1    
    32   28   29 1    
    33   29   30 1    
    34   29   31 1    
    35   30   35 1    
    36   31   32 1    
    37   31   33 1    
    38   33   34 1    
    39   33   35 1    
    40   35   36 1    
    41   36   37 ar   
    42   36   44 ar   
    43   37   38 ar   
    44   38   39 1    
    45   38   42 ar   
    46   39   40 2    
    47   39   41 am   
    48   42   43 ar   
    49   43   44 ar   
    50   45   46 ar   
    51   45   47 ar   
    52   45   48 ar   
@<TRIPOS>SUBSTRUCTURE
     1 NAP401      1 GROUP   
@<TRIPOS>SET
ATOM$ORANGE STATIC     ATOMS   COLORGROUP SYSTEM 
42 5 5 6 6 8 8 10 10 12 12 14 14 16 16 17 17 20 \
20 22 22 28 28 29 29 31 31 33 33 35 35 37 37 38 38 39 \
39 42 42 43 43 44 44 

