#    Name: 6nbr_2_NAP
#    Modification time : Fri May 22 19:41:01 2020

@<TRIPOS>MOLECULE
6nbr_2_NAP
   48    52     1     0     1
SMALL
NO_CHARGES


@<TRIPOS>ATOM
      1 PA         14.4940   15.8670   13.9800 P.3       1 NAP401      0.0000 
      2 O1A        15.7220   15.0920   13.5670 O.co2     1 NAP401      0.0000 
      3 O2A        13.2700   15.3710   13.2390 O.co2     1 NAP401      0.0000 
      4 O5B        14.7450   17.4780   13.6710 O.3       1 NAP401      0.0000 
      5 C5B        16.0470   17.8730   13.2940 C.3       1 NAP401      0.0000 
      6 C4B        15.8890   19.1830   12.4740 C.3       1 NAP401      0.0000 
      7 O4B        17.0260   19.8200   12.4210 O.3       1 NAP401      0.0000 
      8 C3B        15.5160   18.8020   11.0230 C.3       1 NAP401      0.0000 
      9 O3B        14.4690   19.5510   10.5870 O.3       1 NAP401      0.0000 
     10 C2B        16.7960   19.1020   10.2200 C.3       1 NAP401      0.0000 
     11 O2B        16.4770   19.4650    8.8010 O.3       1 NAP401      0.0000 
     12 C1B        17.3070   20.1130   10.8580 C.3       1 NAP401      0.0000 
     13 N9A        18.7220   20.1710   10.6290 N.pl3     1 NAP401      0.0000 
     14 C8A        19.7810   19.4320   10.9770 C.2       1 NAP401      0.0000 
     15 N7A        20.8770   19.9990   10.4550 N.2       1 NAP401      0.0000 
     16 C5A        20.4850   21.0870    9.7800 C.ar      1 NAP401      0.0000 
     17 C6A        21.1930   22.0130    9.0530 C.ar      1 NAP401      0.0000 
     18 N6A        22.6270   22.0620    8.8470 N.pl3     1 NAP401      0.0000 
     19 N1A        20.5600   23.0120    8.4690 N.ar      1 NAP401      0.0000 
     20 C2A        19.2150   23.1180    8.5850 C.ar      1 NAP401      0.0000 
     21 N3A        18.5150   22.2140    9.2950 N.ar      1 NAP401      0.0000 
     22 C4A        19.1550   21.1960    9.8880 C.ar      1 NAP401      0.0000 
     23 O3         14.2760   15.6540   15.6170 O.3       1 NAP401      0.0000 
     24 PN         13.5240   16.7130   16.6680 P.3       1 NAP401      0.0000 
     25 O1N        13.0120   15.8540   17.7900 O.co2     1 NAP401      0.0000 
     26 O2N        12.3550   17.4520   16.0430 O.co2     1 NAP401      0.0000 
     27 O5D        14.6090   17.8310   17.2490 O.3       1 NAP401      0.0000 
     28 C5D        14.1400   19.1500   17.4800 C.3       1 NAP401      0.0000 
     29 C4D        14.8840   19.7840   18.7060 C.3       1 NAP401      0.0000 
     30 O4D        14.4170   19.3160   19.8420 O.3       1 NAP401      0.0000 
     31 C3D        16.3900   19.4450   18.6890 C.3       1 NAP401      0.0000 
     32 O3D        17.1280   20.5560   18.9400 O.3       1 NAP401      0.0000 
     33 C2D        16.5600   18.4410   19.8490 C.3       1 NAP401      0.0000 
     34 O2D        17.9450   18.5260   20.4020 O.3       1 NAP401      0.0000 
     35 C1D        15.6870   18.8400   20.7300 C.3       1 NAP401      0.0000 
     36 N1N        15.3220   17.7600   21.6270 N.pl3     1 NAP401      0.0000 
     37 C2N        14.8000   16.6130   21.1240 C.ar      1 NAP401      0.0000 
     38 C3N        14.4460   15.5670   21.9690 C.ar      1 NAP401      0.0000 
     39 C7N        13.8550   14.2730   21.3880 C.2       1 NAP401      0.0000 
     40 O7N        13.8220   13.2930   22.0500 O.2       1 NAP401      0.0000 
     41 N7N        13.3320   14.2390   20.0300 N.am      1 NAP401      0.0000 
     42 C4N        14.6240   15.6980   23.3100 C.ar      1 NAP401      0.0000 
     43 C5N        15.1450   16.8480   23.8170 C.ar      1 NAP401      0.0000 
     44 C6N        15.4970   17.8900   22.9670 C.ar      1 NAP401      0.0000 
     45 P2B        16.1870   18.2310    7.7410 P.3       1 NAP401      0.0000 
     46 O1X        14.7100   17.9030    7.7440 O.co2     1 NAP401      0.0000 
     47 O2X        16.6110   18.6780    6.3570 O.co2     1 NAP401      0.0000 
     48 O3X        16.9590   16.9920    8.1410 O.co2     1 NAP401      0.0000 
@<TRIPOS>BOND
     1    1    2 ar   
     2    1    3 ar   
     3    1    4 1    
     4    1   23 1    
     5    4    5 1    
     6    5    6 1    
     7    6    7 1    
     8    6    8 1    
     9    7   12 1    
    10    8    9 1    
    11    8   10 1    
    12   10   11 1    
    13   10   12 1    
    14   11   45 1    
    15   12   13 1    
    16   13   14 1    
    17   13   22 1    
    18   14   15 2    
    19   15   16 1    
    20   16   17 ar   
    21   16   22 ar   
    22   17   18 1    
    23   17   19 ar   
    24   19   20 ar   
    25   20   21 ar   
    26   21   22 ar   
    27   23   24 1    
    28   24   25 ar   
    29   24   26 ar   
    30   24   27 1    
    31   27   28 1    
    32   28   29 1    
    33   29   30 1    
    34   29   31 1    
    35   30   35 1    
    36   31   32 1    
    37   31   33 1    
    38   33   34 1    
    39   33   35 1    
    40   35   36 1    
    41   36   37 ar   
    42   36   44 ar   
    43   37   38 ar   
    44   38   39 1    
    45   38   42 ar   
    46   39   40 2    
    47   39   41 am   
    48   42   43 ar   
    49   43   44 ar   
    50   45   46 ar   
    51   45   47 ar   
    52   45   48 ar   
@<TRIPOS>SUBSTRUCTURE
     1 NAP401      1 GROUP   
@<TRIPOS>SET
ATOM$ORANGE STATIC     ATOMS   COLORGROUP SYSTEM 
42 5 5 6 6 8 8 10 10 12 12 14 14 16 16 17 17 20 \
20 22 22 28 28 29 29 31 31 33 33 35 35 37 37 38 38 39 \
39 42 42 43 43 44 44 

