#    Name: 6cjf_3_FMN_CAVITY_N1_4
#    Modification time : Fri May 22 19:25:04 2020

@<TRIPOS>MOLECULE
6cjf_3_FMN_CAVITY_N1_4
   64     0     6     0     0
SMALL
NO_CHARGES


@<TRIPOS>ATOM
      1 OG         20.9100   28.5500    9.5900 O.3       1 SER1        0.0000 
      2 OG         24.6000   35.9600   12.8000 O.3       1 SER1        0.0000 
      3 OG         21.4600   36.7500   17.3900 O.3       1 SER1        0.0000 
      4 N          23.4200   28.5700   12.2800 N.am      2 ALA2        0.0000 
      5 O          20.7700   34.8400   11.3500 O.2       2 ALA2        0.0000 
      6 N          20.9300   32.2700   12.8900 N.am      2 ALA2        0.0000 
      7 N          21.0200   30.9900   13.6600 N.am      2 ALA2        0.0000 
      8 O          23.8400   30.6000   12.7100 O.2       2 ALA2        0.0000 
      9 N          19.9500   34.5000   13.7900 N.am      2 ALA2        0.0000 
     10 O          21.2700   35.5900   12.5500 O.2       2 ALA2        0.0000 
     11 N          21.3600   34.3100   13.3200 N.am      2 ALA2        0.0000 
     12 N          21.4400   33.0200   14.0900 N.am      2 ALA2        0.0000 
     13 N          22.8500   32.8300   13.6100 N.am      2 ALA2        0.0000 
     14 N          21.7000   37.6300   12.9800 N.am      2 ALA2        0.0000 
     15 N          21.7800   36.3400   13.7500 N.am      2 ALA2        0.0000 
     16 N          21.9400   33.7700   15.2900 N.am      2 ALA2        0.0000 
     17 O          23.1900   36.1500   13.2700 O.2       2 ALA2        0.0000 
     18 N          23.2700   34.8600   14.0400 N.am      2 ALA2        0.0000 
     19 N          22.2000   38.3800   14.1800 N.am      2 ALA2        0.0000 
     20 N          23.6100   38.1800   13.7000 N.am      2 ALA2        0.0000 
     21 N          23.7800   35.6100   15.2400 N.am      2 ALA2        0.0000 
     22 O          24.2800   36.3600   16.4400 O.2       2 ALA2        0.0000 
     23 OD1        21.5200   31.7400   14.8600 O.co2     3 ASP3        0.0000 
     24 OD1        22.9300   31.5400   14.3800 O.co2     3 ASP3        0.0000 
     25 OD1        20.2900   37.8200   13.4500 O.co2     3 ASP3        0.0000 
     26 OD1        20.3700   36.5300   14.2200 O.co2     3 ASP3        0.0000 
     27 OD1        20.8700   37.2800   15.4200 O.co2     3 ASP3        0.0000 
     28 OD1        22.2800   37.0900   14.9500 O.co2     3 ASP3        0.0000 
     29 OD1        22.4500   34.5200   16.4800 O.co2     3 ASP3        0.0000 
     30 OD1        21.3800   38.0300   16.6200 O.co2     3 ASP3        0.0000 
     31 OD1        22.7100   39.1300   15.3700 O.co2     3 ASP3        0.0000 
     32 CZ         20.3500   32.8100   10.9200 C.ar      4 PHE5        0.0000 
     33 CZ         20.4300   31.5200   11.6900 C.ar      4 PHE5        0.0000 
     34 CZ         19.3600   35.0400   11.8300 C.ar      4 PHE5        0.0000 
     35 CZ         20.8500   33.5600   12.1200 C.ar      4 PHE5        0.0000 
     36 CZ         22.7900   37.8400   16.1400 C.ar      4 PHE5        0.0000 
     37 CZ         22.8700   36.5600   16.9100 C.ar      4 PHE5        0.0000 
     38 CZ         24.2000   37.6500   15.6700 C.ar      4 PHE5        0.0000 
     39 CA         19.9300   30.7700   10.5000 C.3       5 GLY6        0.0000 
     40 CA         21.3400   30.5800   10.0200 C.3       5 GLY6        0.0000 
     41 CA         21.4200   29.3000   10.7900 C.3       5 GLY6        0.0000 
     42 CA         21.5000   28.0100   11.5600 C.3       5 GLY6        0.0000 
     43 CA         22.8300   29.1000   10.3200 C.3       5 GLY6        0.0000 
     44 CA         22.9100   27.8200   11.0900 C.3       5 GLY6        0.0000 
     45 CA         20.5100   30.2400   12.4600 C.3       5 GLY6        0.0000 
     46 CA         20.6000   28.9500   13.2300 C.3       5 GLY6        0.0000 
     47 CA         21.7600   32.6200   10.4500 C.3       5 GLY6        0.0000 
     48 CA         21.8400   31.3300   11.2200 C.3       5 GLY6        0.0000 
     49 CA         22.0100   28.7600   12.7600 C.3       5 GLY6        0.0000 
     50 CA         23.3300   29.8500   11.5200 C.3       5 GLY6        0.0000 
     51 CA         21.1000   29.7000   14.4300 C.3       5 GLY6        0.0000 
     52 CA         22.2600   33.3700   11.6500 C.3       5 GLY6        0.0000 
     53 CA         22.3400   32.0800   12.4200 C.3       5 GLY6        0.0000 
     54 CA         22.5100   29.5100   13.9600 C.3       5 GLY6        0.0000 
     55 CA         19.8600   35.7900   13.0200 C.3       5 GLY6        0.0000 
     56 CA         22.7700   34.1100   12.8500 C.3       5 GLY6        0.0000 
     57 CA         20.4500   35.2500   14.9900 C.3       5 GLY6        0.0000 
     58 CA         20.9600   36.0000   16.1900 C.3       5 GLY6        0.0000 
     59 CA         21.0400   34.7100   16.9600 C.3       5 GLY6        0.0000 
     60 DU         21.9200   30.0500   11.9900 H         6 CUB7        0.0000 
     61 DU         22.4300   30.8000   13.1900 H         6 CUB7        0.0000 
     62 DU         21.8600   35.0600   14.5200 H         6 CUB7        0.0000 
     63 DU         22.3700   35.8100   15.7100 H         6 CUB7        0.0000 
     64 DU         23.6900   36.9000   14.4700 H         6 CUB7        0.0000 
@<TRIPOS>BOND
@<TRIPOS>SUBSTRUCTURE
     1 SER1        1 GROUP   
     2 ALA2        4 GROUP   
     3 ASP3       23 GROUP   
     4 PHE5       32 GROUP   
     5 GLY6       39 GROUP   
     6 CUB7       60 GROUP   
@<TRIPOS>SET

