#    Name: 6cjf_3_FMN
#    Modification time : Fri May 22 19:25:02 2020

@<TRIPOS>MOLECULE
6cjf_3_FMN
   31    33     1     0     1
SMALL
NO_CHARGES


@<TRIPOS>ATOM
      1 N1         22.1330   33.6690   16.2190 N.2       1 FMN501      0.0000 
      2 C2         22.1290   34.1880   17.4850 C.2       1 FMN501      0.0000 
      3 O2         22.6850   33.5800   18.4230 O.2       1 FMN501      0.0000 
      4 N3         21.4820   35.3790   17.7290 N.am      1 FMN501      0.0000 
      5 C4         20.8430   36.0630   16.7130 C.2       1 FMN501      0.0000 
      6 O4         20.2530   37.1010   16.9840 O.2       1 FMN501      0.0000 
      7 C4A        20.8450   35.5440   15.4160 C.2       1 FMN501      0.0000 
      8 N5         20.2290   36.2150   14.3670 N.2       1 FMN501      0.0000 
      9 C5A        20.2390   35.6310   13.1040 C.ar      1 FMN501      0.0000 
     10 C6         19.6070   36.2750   12.0370 C.ar      1 FMN501      0.0000 
     11 C7         19.6210   35.7030   10.7640 C.ar      1 FMN501      0.0000 
     12 C7M        18.9340   36.4110    9.6250 C.3       1 FMN501      0.0000 
     13 C8         20.2760   34.4910   10.5640 C.ar      1 FMN501      0.0000 
     14 C8M        20.3160   33.8400    9.2080 C.3       1 FMN501      0.0000 
     15 C9         20.9150   33.8430   11.6270 C.ar      1 FMN501      0.0000 
     16 C9A        20.9070   34.4140   12.8940 C.ar      1 FMN501      0.0000 
     17 N10        21.5270   33.7650   13.9370 N.pl3     1 FMN501      0.0000 
     18 C10        21.5030   34.3380   15.1890 C.2       1 FMN501      0.0000 
     19 C1'        22.2670   32.4630   13.7270 C.3       1 FMN501      0.0000 
     20 C2'        21.3830   31.2270   13.7800 C.3       1 FMN501      0.0000 
     21 O2'        20.9370   31.0700   15.1090 O.3       1 FMN501      0.0000 
     22 C3'        22.1560   29.9670   13.3780 C.3       1 FMN501      0.0000 
     23 O3'        23.2100   29.7650   14.3120 O.3       1 FMN501      0.0000 
     24 C4'        22.7570   30.0240   11.9680 C.3       1 FMN501      0.0000 
     25 O4'        21.9300   30.7760   11.0970 O.3       1 FMN501      0.0000 
     26 C5'        23.0330   28.6330   11.3980 C.3       1 FMN501      0.0000 
     27 O5'        21.8010   27.9470   11.2130 O.3       1 FMN501      0.0000 
     28 P          21.0920   27.8080    9.7770 P.3       1 FMN501      0.0000 
     29 O1P        20.0820   26.7120    9.9610 O.co2     1 FMN501      0.0000 
     30 O2P        22.1350   27.4900    8.7270 O.co2     1 FMN501      0.0000 
     31 O3P        20.3940   29.1380    9.5250 O.co2     1 FMN501      0.0000 
@<TRIPOS>BOND
     1    1    2 1    
     2    1   18 2    
     3    2    3 2    
     4    2    4 am   
     5    4    5 am   
     6    5    6 2    
     7    5    7 1    
     8    7    8 2    
     9    7   18 1    
    10    8    9 1    
    11    9   10 ar   
    12    9   16 ar   
    13   10   11 ar   
    14   11   12 1    
    15   11   13 ar   
    16   13   14 1    
    17   13   15 ar   
    18   15   16 ar   
    19   16   17 1    
    20   17   18 1    
    21   17   19 1    
    22   19   20 1    
    23   20   21 1    
    24   20   22 1    
    25   22   23 1    
    26   22   24 1    
    27   24   25 1    
    28   24   26 1    
    29   26   27 1    
    30   27   28 1    
    31   28   29 ar   
    32   28   30 ar   
    33   28   31 ar   
@<TRIPOS>SUBSTRUCTURE
     1 FMN501      1 GROUP   
@<TRIPOS>SET
ATOM$ORANGE STATIC     ATOMS   COLORGROUP SYSTEM 
34 2 2 5 5 7 7 9 9 10 10 11 11 12 12 13 13 14 \
14 15 15 16 16 18 18 19 19 20 20 22 22 24 24 26 26 

