#    Name: 6jf6_1_MET_ALA_SER
#    Modification time : Fri May 22 19:35:33 2020

@<TRIPOS>MOLECULE
6jf6_1_MET_ALA_SER
   20    19     3     0     0
SMALL
NO_CHARGES


@<TRIPOS>ATOM
      1 N          37.0430  -10.2940   79.4170 N.4       1 MET1        0.0000 
      2 CA         38.1720  -10.3530   78.4220 C.3       1 MET1        0.0000 
      3 C          39.1720   -9.2350   78.7440 C.2       1 MET1        0.0000 
      4 O          38.8500   -8.0490   78.6520 O.2       1 MET1        0.0000 
      5 CB         37.6290  -10.2390   76.9820 C.3       1 MET1        0.0000 
      6 CG         38.5890  -10.6620   75.8660 C.3       1 MET1        0.0000 
      7 SD         38.2310  -12.3130   75.2110 S.3       1 MET1        0.0000 
      8 CE         38.9650  -13.2670   76.4970 C.3       1 MET1        0.0000 
      9 N          40.3500   -9.6250   79.2080 N.am      2 ALA2        0.0000 
     10 CA         41.3820   -8.6680   79.5930 C.3       2 ALA2        0.0000 
     11 C          42.1910   -8.4100   78.3600 C.2       2 ALA2        0.0000 
     12 O          42.4500   -9.3530   77.6080 O.2       2 ALA2        0.0000 
     13 CB         42.2750   -9.2360   80.6740 C.3       2 ALA2        0.0000 
     14 N          42.5810   -7.1540   78.1530 N.am      3 SER3        0.0000 
     15 CA         43.4660   -6.8040   77.0440 C.3       3 SER3        0.0000 
     16 C          44.8960   -6.6470   77.5180 C.2       3 SER3        0.0000 
     17 O          45.6360   -5.7940   77.0440 O.2       3 SER3        0.0000 
     18 CB         42.9830   -5.5450   76.3100 C.3       3 SER3        0.0000 
     19 OG         43.4690   -4.3470   76.9000 O.3       3 SER3        0.0000 
     20 OXT        45.3530   -7.3870   78.3750 O.3       3 SER3        0.0000 
@<TRIPOS>BOND
     1    1    2 1    
     2    2    3 1    
     3    2    5 1    
     4    3    4 2    
     5    3    9 am   
     6    5    6 1    
     7    6    7 1    
     8    7    8 1    
     9    9   10 1    
    10   10   11 1    
    11   10   13 1    
    12   11   12 2    
    13   11   14 am   
    14   14   15 1    
    15   15   16 1    
    16   15   18 1    
    17   16   17 2    
    18   16   20 1    
    19   18   19 1    
@<TRIPOS>SUBSTRUCTURE
     1 MET1        1 RESIDUE 
     2 ALA2        9 RESIDUE 
     3 SER3       14 RESIDUE 
@<TRIPOS>SET

