#    Name: 6dfz_7_NAD
#    Modification time : Fri May 22 19:32:52 2020

@<TRIPOS>MOLECULE
6dfz_7_NAD
   44    48     1     0     1
SMALL
NO_CHARGES


@<TRIPOS>ATOM
      1 PA        -64.6480  128.6760   -3.6600 P.3       1 NAD401      0.0000 
      2 O1A       -64.1860  129.3300   -4.9460 O.co2     1 NAD401      0.0000 
      3 O2A       -63.7580  127.6060   -3.0870 O.co2     1 NAD401      0.0000 
      4 O5B       -66.1070  128.0070   -3.8740 O.3       1 NAD401      0.0000 
      5 C5B       -67.0910  128.4740   -4.8030 C.3       1 NAD401      0.0000 
      6 C4B       -67.6360  127.2570   -5.5290 C.3       1 NAD401      0.0000 
      7 O4B       -68.9270  127.5460   -6.0630 O.3       1 NAD401      0.0000 
      8 C3B       -66.7750  126.8250   -6.7020 C.3       1 NAD401      0.0000 
      9 O3B       -66.4870  125.4290   -6.5740 O.3       1 NAD401      0.0000 
     10 C2B       -67.6060  127.0760   -7.9490 C.3       1 NAD401      0.0000 
     11 O2B       -67.3870  126.0540   -8.9300 O.3       1 NAD401      0.0000 
     12 C1B       -69.0360  127.0860   -7.4140 C.3       1 NAD401      0.0000 
     13 N9A       -70.0180  127.9520   -8.1280 N.pl3     1 NAD401      0.0000 
     14 C8A       -69.8410  129.2150   -8.5660 C.2       1 NAD401      0.0000 
     15 N7A       -70.9770  129.6860   -9.1490 N.2       1 NAD401      0.0000 
     16 C5A       -71.9080  128.7190   -9.0800 C.ar      1 NAD401      0.0000 
     17 C6A       -73.3250  128.5510   -9.5000 C.ar      1 NAD401      0.0000 
     18 N6A       -73.9950  129.5430  -10.1360 N.pl3     1 NAD401      0.0000 
     19 N1A       -73.9240  127.3670   -9.2260 N.ar      1 NAD401      0.0000 
     20 C2A       -73.2780  126.3670   -8.5880 C.ar      1 NAD401      0.0000 
     21 N3A       -71.9970  126.4550   -8.1880 N.ar      1 NAD401      0.0000 
     22 C4A       -71.2710  127.5810   -8.4010 C.ar      1 NAD401      0.0000 
     23 O3        -64.9440  129.8550   -2.6010 O.3       1 NAD401      0.0000 
     24 PN        -65.0790  129.5980   -0.9890 P.3       1 NAD401      0.0000 
     25 O1N       -63.8520  130.1130   -0.2650 O.co2     1 NAD401      0.0000 
     26 O2N       -65.5220  128.1680   -0.8420 O.co2     1 NAD401      0.0000 
     27 O5D       -66.2080  130.6230   -0.4970 O.3       1 NAD401      0.0000 
     28 C5D       -67.5930  130.2520   -0.5620 C.3       1 NAD401      0.0000 
     29 C4D       -68.3830  131.2580    0.2530 C.3       1 NAD401      0.0000 
     30 O4D       -68.0550  131.1240    1.6420 O.3       1 NAD401      0.0000 
     31 C3D       -68.0410  132.6800   -0.1440 C.3       1 NAD401      0.0000 
     32 O3D       -69.2280  133.4810   -0.1370 O.3       1 NAD401      0.0000 
     33 C2D       -67.1050  133.1750    0.9250 C.3       1 NAD401      0.0000 
     34 O2D       -67.1890  134.5890    1.1520 O.3       1 NAD401      0.0000 
     35 C1D       -67.5900  132.3830    2.1400 C.3       1 NAD401      0.0000 
     36 N1N       -66.5870  132.1730    3.1980 N.pl3     1 NAD401      0.0000 
     37 C2N       -65.3500  131.7220    2.9080 C.ar      1 NAD401      0.0000 
     38 C3N       -64.4200  131.5250    3.9190 C.ar      1 NAD401      0.0000 
     39 C7N       -63.0380  131.0330    3.6150 C.2       1 NAD401      0.0000 
     40 O7N       -62.1140  131.5730    4.2020 O.2       1 NAD401      0.0000 
     41 N7N       -62.8700  130.0440    2.7290 N.am      1 NAD401      0.0000 
     42 C4N       -64.7720  131.7910    5.2320 C.ar      1 NAD401      0.0000 
     43 C5N       -66.0500  132.2520    5.5100 C.ar      1 NAD401      0.0000 
     44 C6N       -66.9490  132.4330    4.4690 C.ar      1 NAD401      0.0000 
@<TRIPOS>BOND
     1    1    2 ar   
     2    1    3 ar   
     3    1    4 1    
     4    1   23 1    
     5    4    5 1    
     6    5    6 1    
     7    6    7 1    
     8    6    8 1    
     9    7   12 1    
    10    8    9 1    
    11    8   10 1    
    12   10   11 1    
    13   10   12 1    
    14   12   13 1    
    15   13   14 1    
    16   13   22 1    
    17   14   15 2    
    18   15   16 1    
    19   16   17 ar   
    20   16   22 ar   
    21   17   18 1    
    22   17   19 ar   
    23   19   20 ar   
    24   20   21 ar   
    25   21   22 ar   
    26   23   24 1    
    27   24   25 ar   
    28   24   26 ar   
    29   24   27 1    
    30   27   28 1    
    31   28   29 1    
    32   29   30 1    
    33   29   31 1    
    34   30   35 1    
    35   31   32 1    
    36   31   33 1    
    37   33   34 1    
    38   33   35 1    
    39   35   36 1    
    40   36   37 ar   
    41   36   44 ar   
    42   37   38 ar   
    43   38   39 1    
    44   38   42 ar   
    45   39   40 2    
    46   39   41 am   
    47   42   43 ar   
    48   43   44 ar   
@<TRIPOS>SUBSTRUCTURE
     1 NAD401      1 GROUP   
@<TRIPOS>SET
ATOM$ORANGE STATIC     ATOMS   COLORGROUP SYSTEM 
42 5 5 6 6 8 8 10 10 12 12 14 14 16 16 17 17 20 \
20 22 22 28 28 29 29 31 31 33 33 35 35 37 37 38 38 39 \
39 42 42 43 43 44 44 

