#    Name: 6dfz_6_NAD
#    Modification time : Fri May 22 19:32:43 2020

@<TRIPOS>MOLECULE
6dfz_6_NAD
   44    48     1     0     1
SMALL
NO_CHARGES


@<TRIPOS>ATOM
      1 PA        -32.1820  120.8070   12.1050 P.3       1 NAD401      0.0000 
      2 O1A       -31.3530  122.0620   11.9850 O.co2     1 NAD401      0.0000 
      3 O2A       -33.6760  120.9000   12.1220 O.co2     1 NAD401      0.0000 
      4 O5B       -31.7320  119.9790   13.4150 O.3       1 NAD401      0.0000 
      5 C5B       -30.3860  119.9080   13.8930 C.3       1 NAD401      0.0000 
      6 C4B       -30.4070  119.7870   15.4150 C.3       1 NAD401      0.0000 
      7 O4B       -29.1150  119.4280   15.9360 O.3       1 NAD401      0.0000 
      8 C3B       -30.8080  121.1130   16.0630 C.3       1 NAD401      0.0000 
      9 O3B       -31.8910  120.9270   16.9880 O.3       1 NAD401      0.0000 
     10 C2B       -29.5550  121.5860   16.7690 C.3       1 NAD401      0.0000 
     11 O2B       -29.8610  122.3470   17.9420 O.3       1 NAD401      0.0000 
     12 C1B       -28.8320  120.2730   17.0590 C.3       1 NAD401      0.0000 
     13 N9A       -27.3690  120.4060   17.3350 N.pl3     1 NAD401      0.0000 
     14 C8A       -26.4960  121.2880   16.8010 C.2       1 NAD401      0.0000 
     15 N7A       -25.2500  121.1040   17.3160 N.2       1 NAD401      0.0000 
     16 C5A       -25.3110  120.0940   18.2040 C.ar      1 NAD401      0.0000 
     17 C6A       -24.3610  119.3840   19.1060 C.ar      1 NAD401      0.0000 
     18 N6A       -23.0460  119.7220   19.1710 N.pl3     1 NAD401      0.0000 
     19 N1A       -24.8570  118.3780   19.8670 N.ar      1 NAD401      0.0000 
     20 C2A       -26.1590  118.0160   19.8240 C.ar      1 NAD401      0.0000 
     21 N3A       -27.0710  118.6230   19.0300 N.ar      1 NAD401      0.0000 
     22 C4A       -26.7150  119.6440   18.2130 C.ar      1 NAD401      0.0000 
     23 O3        -31.6890  119.8600   10.8960 O.3       1 NAD401      0.0000 
     24 PN        -32.3980  118.4790   10.4780 P.3       1 NAD401      0.0000 
     25 O1N       -33.3430  118.8270    9.3530 O.co2     1 NAD401      0.0000 
     26 O2N       -32.8320  117.7420   11.7230 O.co2     1 NAD401      0.0000 
     27 O5D       -31.2300  117.6070    9.8110 O.3       1 NAD401      0.0000 
     28 C5D       -30.3890  116.7700   10.6010 C.3       1 NAD401      0.0000 
     29 C4D       -29.5560  115.9180    9.6630 C.3       1 NAD401      0.0000 
     30 O4D       -30.4290  115.1250    8.8530 O.3       1 NAD401      0.0000 
     31 C3D       -28.7330  116.8010    8.7360 C.3       1 NAD401      0.0000 
     32 O3D       -27.4060  116.2870    8.6260 O.3       1 NAD401      0.0000 
     33 C2D       -29.4580  116.7330    7.4090 C.3       1 NAD401      0.0000 
     34 O2D       -28.5560  116.8180    6.3100 O.3       1 NAD401      0.0000 
     35 C1D       -30.1540  115.3750    7.4650 C.3       1 NAD401      0.0000 
     36 N1N       -31.3570  115.2580    6.6140 N.pl3     1 NAD401      0.0000 
     37 C2N       -32.2910  116.2320    6.5070 C.ar      1 NAD401      0.0000 
     38 C3N       -33.4010  116.0610    5.6740 C.ar      1 NAD401      0.0000 
     39 C7N       -34.4700  117.1170    5.5110 C.2       1 NAD401      0.0000 
     40 O7N       -34.9000  117.3460    4.3890 O.2       1 NAD401      0.0000 
     41 N7N       -34.9310  117.7790    6.5710 N.am      1 NAD401      0.0000 
     42 C4N       -33.5290  114.8820    4.9550 C.ar      1 NAD401      0.0000 
     43 C5N       -32.5640  113.8980    5.0740 C.ar      1 NAD401      0.0000 
     44 C6N       -31.4820  114.1140    5.9160 C.ar      1 NAD401      0.0000 
@<TRIPOS>BOND
     1    1    2 ar   
     2    1    3 ar   
     3    1    4 1    
     4    1   23 1    
     5    4    5 1    
     6    5    6 1    
     7    6    7 1    
     8    6    8 1    
     9    7   12 1    
    10    8    9 1    
    11    8   10 1    
    12   10   11 1    
    13   10   12 1    
    14   12   13 1    
    15   13   14 1    
    16   13   22 1    
    17   14   15 2    
    18   15   16 1    
    19   16   17 ar   
    20   16   22 ar   
    21   17   18 1    
    22   17   19 ar   
    23   19   20 ar   
    24   20   21 ar   
    25   21   22 ar   
    26   23   24 1    
    27   24   25 ar   
    28   24   26 ar   
    29   24   27 1    
    30   27   28 1    
    31   28   29 1    
    32   29   30 1    
    33   29   31 1    
    34   30   35 1    
    35   31   32 1    
    36   31   33 1    
    37   33   34 1    
    38   33   35 1    
    39   35   36 1    
    40   36   37 ar   
    41   36   44 ar   
    42   37   38 ar   
    43   38   39 1    
    44   38   42 ar   
    45   39   40 2    
    46   39   41 am   
    47   42   43 ar   
    48   43   44 ar   
@<TRIPOS>SUBSTRUCTURE
     1 NAD401      1 GROUP   
@<TRIPOS>SET
ATOM$ORANGE STATIC     ATOMS   COLORGROUP SYSTEM 
42 5 5 6 6 8 8 10 10 12 12 14 14 16 16 17 17 20 \
20 22 22 28 28 29 29 31 31 33 33 35 35 37 37 38 38 39 \
39 42 42 43 43 44 44 

