#    Name: 6dfz_5_NAD
#    Modification time : Fri May 22 19:32:38 2020

@<TRIPOS>MOLECULE
6dfz_5_NAD
   44    48     1     0     1
SMALL
NO_CHARGES


@<TRIPOS>ATOM
      1 PA        -53.4860  137.5150  -17.9280 P.3       1 NAD401      0.0000 
      2 O1A       -54.6850  136.8130  -17.3280 O.co2     1 NAD401      0.0000 
      3 O2A       -52.6050  138.3940  -17.0760 O.co2     1 NAD401      0.0000 
      4 O5B       -53.9690  138.4400  -19.1650 O.3       1 NAD401      0.0000 
      5 C5B       -55.1660  138.2380  -19.9240 C.3       1 NAD401      0.0000 
      6 C4B       -55.8440  139.5930  -20.1430 C.3       1 NAD401      0.0000 
      7 O4B       -56.7000  139.5330  -21.2850 O.3       1 NAD401      0.0000 
      8 C3B       -56.7160  140.0260  -18.9710 C.3       1 NAD401      0.0000 
      9 O3B       -56.3810  141.3570  -18.5650 O.3       1 NAD401      0.0000 
     10 C2B       -58.1390  139.9740  -19.4850 C.3       1 NAD401      0.0000 
     11 O2B       -58.8930  141.0490  -18.9380 O.3       1 NAD401      0.0000 
     12 C1B       -57.9640  140.1410  -20.9820 C.3       1 NAD401      0.0000 
     13 N9A       -59.0210  139.5480  -21.8490 N.pl3     1 NAD401      0.0000 
     14 C8A       -59.6190  138.3460  -21.7290 C.2       1 NAD401      0.0000 
     15 N7A       -60.5100  138.1580  -22.7400 N.2       1 NAD401      0.0000 
     16 C5A       -60.4810  139.2500  -23.5370 C.ar      1 NAD401      0.0000 
     17 C6A       -61.1570  139.7220  -24.7810 C.ar      1 NAD401      0.0000 
     18 N6A       -62.0870  138.9680  -25.4100 N.pl3     1 NAD401      0.0000 
     19 N1A       -60.8160  140.9390  -25.2750 N.ar      1 NAD401      0.0000 
     20 C2A       -59.8960  141.7210  -24.6780 C.ar      1 NAD401      0.0000 
     21 N3A       -59.2530  141.3520  -23.5510 N.ar      1 NAD401      0.0000 
     22 C4A       -59.4920  140.1580  -22.9410 C.ar      1 NAD401      0.0000 
     23 O3        -52.5690  136.3960  -18.6280 O.3       1 NAD401      0.0000 
     24 PN        -51.0800  136.7330  -19.1680 P.3       1 NAD401      0.0000 
     25 O1N       -50.0940  136.1200  -18.2050 O.co2     1 NAD401      0.0000 
     26 O2N       -50.9720  138.2020  -19.5090 O.co2     1 NAD401      0.0000 
     27 O5D       -51.0190  135.8610  -20.5180 O.3       1 NAD401      0.0000 
     28 C5D       -51.4620  136.3630  -21.7770 C.3       1 NAD401      0.0000 
     29 C4D       -51.0230  135.4070  -22.8860 C.3       1 NAD401      0.0000 
     30 O4D       -49.5940  135.3910  -22.9680 O.3       1 NAD401      0.0000 
     31 C3D       -51.4450  133.9680  -22.6260 C.3       1 NAD401      0.0000 
     32 O3D       -51.8660  133.3620  -23.8530 O.3       1 NAD401      0.0000 
     33 C2D       -50.2030  133.2840  -22.0860 C.3       1 NAD401      0.0000 
     34 O2D       -50.1500  131.8900  -22.4110 O.3       1 NAD401      0.0000 
     35 C1D       -49.0910  134.0540  -22.7880 C.3       1 NAD401      0.0000 
     36 N1N       -47.7840  134.0140  -22.0980 N.pl3     1 NAD401      0.0000 
     37 C2N       -47.6620  134.3510  -20.7970 C.ar      1 NAD401      0.0000 
     38 C3N       -46.4190  134.3030  -20.1620 C.ar      1 NAD401      0.0000 
     39 C7N       -46.2620  134.6750  -18.7110 C.2       1 NAD401      0.0000 
     40 O7N       -45.4560  134.0810  -18.0090 O.2       1 NAD401      0.0000 
     41 N7N       -47.0040  135.6600  -18.2120 N.am      1 NAD401      0.0000 
     42 C4N       -45.3050  133.9060  -20.8860 C.ar      1 NAD401      0.0000 
     43 C5N       -45.4480  133.5640  -22.2200 C.ar      1 NAD401      0.0000 
     44 C6N       -46.7040  133.6320  -22.8090 C.ar      1 NAD401      0.0000 
@<TRIPOS>BOND
     1    1    2 ar   
     2    1    3 ar   
     3    1    4 1    
     4    1   23 1    
     5    4    5 1    
     6    5    6 1    
     7    6    7 1    
     8    6    8 1    
     9    7   12 1    
    10    8    9 1    
    11    8   10 1    
    12   10   11 1    
    13   10   12 1    
    14   12   13 1    
    15   13   14 1    
    16   13   22 1    
    17   14   15 2    
    18   15   16 1    
    19   16   17 ar   
    20   16   22 ar   
    21   17   18 1    
    22   17   19 ar   
    23   19   20 ar   
    24   20   21 ar   
    25   21   22 ar   
    26   23   24 1    
    27   24   25 ar   
    28   24   26 ar   
    29   24   27 1    
    30   27   28 1    
    31   28   29 1    
    32   29   30 1    
    33   29   31 1    
    34   30   35 1    
    35   31   32 1    
    36   31   33 1    
    37   33   34 1    
    38   33   35 1    
    39   35   36 1    
    40   36   37 ar   
    41   36   44 ar   
    42   37   38 ar   
    43   38   39 1    
    44   38   42 ar   
    45   39   40 2    
    46   39   41 am   
    47   42   43 ar   
    48   43   44 ar   
@<TRIPOS>SUBSTRUCTURE
     1 NAD401      1 GROUP   
@<TRIPOS>SET
ATOM$ORANGE STATIC     ATOMS   COLORGROUP SYSTEM 
42 5 5 6 6 8 8 10 10 12 12 14 14 16 16 17 17 20 \
20 22 22 28 28 29 29 31 31 33 33 35 35 37 37 38 38 39 \
39 42 42 43 43 44 44 

