#    Name: 6dfz_8_NAD
#    Modification time : Fri May 22 19:32:56 2020

@<TRIPOS>MOLECULE
6dfz_8_NAD
   44    48     1     0     1
SMALL
NO_CHARGES


@<TRIPOS>ATOM
      1 PA        -57.9120   67.3000    9.7530 P.3       1 NAD401      0.0000 
      2 O1A       -57.9830   66.0000   10.5300 O.co2     1 NAD401      0.0000 
      3 O2A       -58.4950   67.3810    8.3670 O.co2     1 NAD401      0.0000 
      4 O5B       -56.3690   67.7650    9.6770 O.3       1 NAD401      0.0000 
      5 C5B       -55.4460   67.5780   10.7530 C.3       1 NAD401      0.0000 
      6 C4B       -54.0340   67.3810   10.1940 C.3       1 NAD401      0.0000 
      7 O4B       -53.0580   67.7530   11.1790 O.3       1 NAD401      0.0000 
      8 C3B       -53.7290   65.9340    9.7860 C.3       1 NAD401      0.0000 
      9 O3B       -53.3160   65.8420    8.4190 O.3       1 NAD401      0.0000 
     10 C2B       -52.5810   65.4970   10.6690 C.3       1 NAD401      0.0000 
     11 O2B       -51.6730   64.6920    9.9110 O.3       1 NAD401      0.0000 
     12 C1B       -51.9750   66.8230   11.1320 C.3       1 NAD401      0.0000 
     13 N9A       -51.2890   66.7930   12.4470 N.pl3     1 NAD401      0.0000 
     14 C8A       -51.5530   66.0080   13.5140 C.2       1 NAD401      0.0000 
     15 N7A       -50.6910   66.2850   14.5300 N.2       1 NAD401      0.0000 
     16 C5A       -49.8600   67.2640   14.1190 C.ar      1 NAD401      0.0000 
     17 C6A       -48.7230   68.0360   14.6860 C.ar      1 NAD401      0.0000 
     18 N6A       -48.2810   67.8080   15.9460 N.pl3     1 NAD401      0.0000 
     19 N1A       -48.1370   68.9800   13.9070 N.ar      1 NAD401      0.0000 
     20 C2A       -48.5570   69.2290   12.6490 C.ar      1 NAD401      0.0000 
     21 N3A       -49.5830   68.5620   12.0780 N.ar      1 NAD401      0.0000 
     22 C4A       -50.2640   67.5920   12.7440 C.ar      1 NAD401      0.0000 
     23 O3        -58.5900   68.4930   10.6070 O.3       1 NAD401      0.0000 
     24 PN        -59.5090   69.6490    9.9330 P.3       1 NAD401      0.0000 
     25 O1N       -60.8280   69.0410    9.5090 O.co2     1 NAD401      0.0000 
     26 O2N       -58.6750   70.4630    8.9660 O.co2     1 NAD401      0.0000 
     27 O5D       -59.8130   70.6200   11.1770 O.3       1 NAD401      0.0000 
     28 C5D       -58.7420   71.2990   11.8270 C.3       1 NAD401      0.0000 
     29 C4D       -59.3110   72.0890   12.9920 C.3       1 NAD401      0.0000 
     30 O4D       -60.2560   73.0430   12.4960 O.3       1 NAD401      0.0000 
     31 C3D       -60.0420   71.1780   13.9700 C.3       1 NAD401      0.0000 
     32 O3D       -59.6330   71.4750   15.3090 O.3       1 NAD401      0.0000 
     33 C2D       -61.5140   71.4750   13.7570 C.3       1 NAD401      0.0000 
     34 O2D       -62.2530   71.4260   14.9830 O.3       1 NAD401      0.0000 
     35 C1D       -61.5140   72.8810   13.1610 C.3       1 NAD401      0.0000 
     36 N1N       -62.6380   73.1700   12.2510 N.pl3     1 NAD401      0.0000 
     37 C2N       -62.9630   72.3560   11.2200 C.ar      1 NAD401      0.0000 
     38 C3N       -64.0450   72.6680   10.3840 C.ar      1 NAD401      0.0000 
     39 C7N       -64.4460   71.8020    9.2180 C.2       1 NAD401      0.0000 
     40 O7N       -64.3300   72.2350    8.0870 O.2       1 NAD401      0.0000 
     41 N7N       -64.9290   70.5880    9.4300 N.am      1 NAD401      0.0000 
     42 C4N       -64.7710   73.8240   10.6190 C.ar      1 NAD401      0.0000 
     43 C5N       -64.4210   74.6410   11.6810 C.ar      1 NAD401      0.0000 
     44 C6N       -63.3430   74.2940   12.4870 C.ar      1 NAD401      0.0000 
@<TRIPOS>BOND
     1    1    2 ar   
     2    1    3 ar   
     3    1    4 1    
     4    1   23 1    
     5    4    5 1    
     6    5    6 1    
     7    6    7 1    
     8    6    8 1    
     9    7   12 1    
    10    8    9 1    
    11    8   10 1    
    12   10   11 1    
    13   10   12 1    
    14   12   13 1    
    15   13   14 1    
    16   13   22 1    
    17   14   15 2    
    18   15   16 1    
    19   16   17 ar   
    20   16   22 ar   
    21   17   18 1    
    22   17   19 ar   
    23   19   20 ar   
    24   20   21 ar   
    25   21   22 ar   
    26   23   24 1    
    27   24   25 ar   
    28   24   26 ar   
    29   24   27 1    
    30   27   28 1    
    31   28   29 1    
    32   29   30 1    
    33   29   31 1    
    34   30   35 1    
    35   31   32 1    
    36   31   33 1    
    37   33   34 1    
    38   33   35 1    
    39   35   36 1    
    40   36   37 ar   
    41   36   44 ar   
    42   37   38 ar   
    43   38   39 1    
    44   38   42 ar   
    45   39   40 2    
    46   39   41 am   
    47   42   43 ar   
    48   43   44 ar   
@<TRIPOS>SUBSTRUCTURE
     1 NAD401      1 GROUP   
@<TRIPOS>SET
ATOM$ORANGE STATIC     ATOMS   COLORGROUP SYSTEM 
42 5 5 6 6 8 8 10 10 12 12 14 14 16 16 17 17 20 \
20 22 22 28 28 29 29 31 31 33 33 35 35 37 37 38 38 39 \
39 42 42 43 43 44 44 

