#    Name: 5y28_1_ALA_ALA_ALA_ALA_CAVITY_N1_4
#    Modification time : Fri May 22 19:22:03 2020

@<TRIPOS>MOLECULE
5y28_1_ALA_ALA_ALA_ALA_CAVITY_N1_4
   44     0     4     0     0
SMALL
NO_CHARGES


@<TRIPOS>ATOM
      1 O         -17.0900   20.1500   12.8000 O.2       1 ALA2        0.0000 
      2 O         -17.4600   21.4300   12.1100 O.2       1 ALA2        0.0000 
      3 O         -16.6800   21.2200   14.5800 O.2       1 ALA2        0.0000 
      4 O         -15.8800   20.8100   13.3800 O.2       1 ALA2        0.0000 
      5 N         -17.0500   22.5000   13.8900 N.am      1 ALA2        0.0000 
      6 N         -16.2500   22.0900   12.6900 N.am      1 ALA2        0.0000 
      7 O         -15.4500   21.6800   11.4900 O.2       1 ALA2        0.0000 
      8 N         -16.6100   23.3700   12.0100 N.am      1 ALA2        0.0000 
      9 N         -16.3300   20.1400   18.9300 N.am      1 ALA2        0.0000 
     10 N         -13.9300   18.9000   15.3300 N.am      1 ALA2        0.0000 
     11 O         -14.3000   20.1900   14.6500 O.2       1 ALA2        0.0000 
     12 N         -15.4700   21.8800   15.1600 N.am      1 ALA2        0.0000 
     13 N         -14.3200   20.3900   18.3200 N.am      1 ALA2        0.0000 
     14 N         -13.8800   21.2600   16.4300 N.am      1 ALA2        0.0000 
     15 O         -13.0800   20.8500   15.2300 O.2       1 ALA2        0.0000 
     16 N         -15.0500   22.9500   16.9500 N.am      1 ALA2        0.0000 
     17 N         -14.2500   22.5400   15.7500 N.am      1 ALA2        0.0000 
     18 NZ        -16.6300   23.5700   15.6800 N.4       2 LYS4        0.0000 
     19 NZ        -16.2200   24.6500   17.4600 N.4       2 LYS4        0.0000 
     20 CA        -18.6700   20.7700   11.5300 C.3       3 GLY6        0.0000 
     21 CA        -17.8700   20.3600   10.3300 C.3       3 GLY6        0.0000 
     22 CA        -16.2900   19.7400   11.6000 C.3       3 GLY6        0.0000 
     23 CA        -19.0600   22.2500   14.5100 C.3       3 GLY6        0.0000 
     24 CA        -18.2600   21.8400   13.3100 C.3       3 GLY6        0.0000 
     25 CA        -16.6600   21.0200   10.9100 C.3       3 GLY6        0.0000 
     26 CA        -17.9100   20.7600   17.6600 C.3       3 GLY6        0.0000 
     27 CA        -16.3100   19.9400   15.2600 C.3       3 GLY6        0.0000 
     28 CA        -15.5100   19.5300   14.0600 C.3       3 GLY6        0.0000 
     29 CA        -17.4800   21.6300   15.7800 C.3       3 GLY6        0.0000 
     30 CA        -14.3600   18.0300   17.2200 C.3       3 GLY6        0.0000 
     31 CA        -15.5300   19.7300   17.7300 C.3       3 GLY6        0.0000 
     32 CA        -14.7300   19.3200   16.5300 C.3       3 GLY6        0.0000 
     33 CA        -16.7000   21.4200   18.2500 C.3       3 GLY6        0.0000 
     34 CA        -15.9000   21.0100   17.0500 C.3       3 GLY6        0.0000 
     35 CA        -15.1000   20.6000   15.8500 C.3       3 GLY6        0.0000 
     36 CA        -12.7200   19.5600   15.9200 C.3       3 GLY6        0.0000 
     37 CA        -15.4900   22.0800   18.8300 C.3       3 GLY6        0.0000 
     38 CA        -15.8500   23.3600   18.1500 C.3       3 GLY6        0.0000 
     39 DU        -17.0300   22.3000   10.2200 H         4 CUB7        0.0000 
     40 DU        -17.8500   22.9100   15.0900 H         4 CUB7        0.0000 
     41 DU        -17.0700   22.7000   17.5600 H         4 CUB7        0.0000 
     42 DU        -16.2700   22.2900   16.3600 H         4 CUB7        0.0000 
     43 DU        -13.5200   19.9800   17.1200 H         4 CUB7        0.0000 
     44 DU        -14.6800   21.6700   17.6300 H         4 CUB7        0.0000 
@<TRIPOS>BOND
@<TRIPOS>SUBSTRUCTURE
     1 ALA2        1 GROUP   
     2 LYS4       18 GROUP   
     3 GLY6       20 GROUP   
     4 CUB7       39 GROUP   
@<TRIPOS>SET

