#    Name: 5y28_1_ALA_ALA_ALA_ALA_CAVITY_N1_6
#    Modification time : Fri May 22 19:22:03 2020

@<TRIPOS>MOLECULE
5y28_1_ALA_ALA_ALA_ALA_CAVITY_N1_6
   60     0     4     0     0
SMALL
NO_CHARGES


@<TRIPOS>ATOM
      1 O         -17.0900   20.1500   12.8000 O.2       1 ALA2        0.0000 
      2 O         -17.4600   21.4300   12.1100 O.2       1 ALA2        0.0000 
      3 O         -16.6800   21.2200   14.5800 O.2       1 ALA2        0.0000 
      4 O         -15.8800   20.8100   13.3800 O.2       1 ALA2        0.0000 
      5 N         -17.0500   22.5000   13.8900 N.am      1 ALA2        0.0000 
      6 N         -16.2500   22.0900   12.6900 N.am      1 ALA2        0.0000 
      7 O         -15.4500   21.6800   11.4900 O.2       1 ALA2        0.0000 
      8 N         -16.6100   23.3700   12.0100 N.am      1 ALA2        0.0000 
      9 N         -16.3300   20.1400   18.9300 N.am      1 ALA2        0.0000 
     10 N         -13.9300   18.9000   15.3300 N.am      1 ALA2        0.0000 
     11 O         -14.3000   20.1900   14.6500 O.2       1 ALA2        0.0000 
     12 N         -15.4700   21.8800   15.1600 N.am      1 ALA2        0.0000 
     13 N         -13.9500   19.1100   19.0000 N.am      1 ALA2        0.0000 
     14 N         -14.3200   20.3900   18.3200 N.am      1 ALA2        0.0000 
     15 N         -13.8800   21.2600   16.4300 N.am      1 ALA2        0.0000 
     16 O         -13.0800   20.8500   15.2300 O.2       1 ALA2        0.0000 
     17 N         -15.0500   22.9500   16.9500 N.am      1 ALA2        0.0000 
     18 N         -14.2500   22.5400   15.7500 N.am      1 ALA2        0.0000 
     19 N         -12.7400   19.7700   19.5900 N.am      1 ALA2        0.0000 
     20 N         -11.9300   19.3500   18.3900 N.am      1 ALA2        0.0000 
     21 O         -12.3000   20.6400   17.7000 O.2       1 ALA2        0.0000 
     22 O         -12.6700   21.9200   17.0200 O.2       1 ALA2        0.0000 
     23 NZ        -16.6300   23.5700   15.6800 N.4       2 LYS4        0.0000 
     24 NZ        -16.2200   24.6500   17.4600 N.4       2 LYS4        0.0000 
     25 NZ        -15.0100   25.3100   18.0400 N.4       2 LYS4        0.0000 
     26 CA        -18.6700   20.7700   11.5300 C.3       3 GLY6        0.0000 
     27 CA        -17.8700   20.3600   10.3300 C.3       3 GLY6        0.0000 
     28 CA        -16.2900   19.7400   11.6000 C.3       3 GLY6        0.0000 
     29 CA        -19.0600   22.2500   14.5100 C.3       3 GLY6        0.0000 
     30 CA        -18.2600   21.8400   13.3100 C.3       3 GLY6        0.0000 
     31 CA        -16.6600   21.0200   10.9100 C.3       3 GLY6        0.0000 
     32 CA        -17.9100   20.7600   17.6600 C.3       3 GLY6        0.0000 
     33 CA        -16.3100   19.9400   15.2600 C.3       3 GLY6        0.0000 
     34 CA        -15.5100   19.5300   14.0600 C.3       3 GLY6        0.0000 
     35 CA        -17.4800   21.6300   15.7800 C.3       3 GLY6        0.0000 
     36 CA        -14.3600   18.0300   17.2200 C.3       3 GLY6        0.0000 
     37 CA        -15.5300   19.7300   17.7300 C.3       3 GLY6        0.0000 
     38 CA        -14.7300   19.3200   16.5300 C.3       3 GLY6        0.0000 
     39 CA        -17.5000   21.8300   19.4500 C.3       3 GLY6        0.0000 
     40 CA        -16.7000   21.4200   18.2500 C.3       3 GLY6        0.0000 
     41 CA        -15.9000   21.0100   17.0500 C.3       3 GLY6        0.0000 
     42 CA        -15.1000   20.6000   15.8500 C.3       3 GLY6        0.0000 
     43 CA        -13.1500   18.6900   17.8000 C.3       3 GLY6        0.0000 
     44 CA        -12.3500   18.2800   16.6000 C.3       3 GLY6        0.0000 
     45 CA        -12.7200   19.5600   15.9200 C.3       3 GLY6        0.0000 
     46 CA        -15.4900   22.0800   18.8300 C.3       3 GLY6        0.0000 
     47 CA        -15.8500   23.3600   18.1500 C.3       3 GLY6        0.0000 
     48 CA        -13.1000   21.0500   18.9000 C.3       3 GLY6        0.0000 
     49 CA        -14.2700   22.7400   19.4100 C.3       3 GLY6        0.0000 
     50 CA        -13.4700   22.3300   18.2100 C.3       3 GLY6        0.0000 
     51 CA        -14.6400   24.0200   18.7300 C.3       3 GLY6        0.0000 
     52 CA        -13.8400   23.6100   17.5300 C.3       3 GLY6        0.0000 
     53 CA        -13.0400   23.2000   16.3300 C.3       3 GLY6        0.0000 
     54 CA        -12.2600   22.9900   18.8000 C.3       3 GLY6        0.0000 
     55 DU        -17.0300   22.3000   10.2200 H         4 CUB7        0.0000 
     56 DU        -17.8500   22.9100   15.0900 H         4 CUB7        0.0000 
     57 DU        -17.0700   22.7000   17.5600 H         4 CUB7        0.0000 
     58 DU        -16.2700   22.2900   16.3600 H         4 CUB7        0.0000 
     59 DU        -13.5200   19.9800   17.1200 H         4 CUB7        0.0000 
     60 DU        -14.6800   21.6700   17.6300 H         4 CUB7        0.0000 
@<TRIPOS>BOND
@<TRIPOS>SUBSTRUCTURE
     1 ALA2        1 GROUP   
     2 LYS4       23 GROUP   
     3 GLY6       26 GROUP   
     4 CUB7       55 GROUP   
@<TRIPOS>SET

