#    Name: 5y28_1_ALA_ALA_ALA_ALA
#    Modification time : Fri May 22 19:22:02 2020

@<TRIPOS>MOLECULE
5y28_1_ALA_ALA_ALA_ALA
   20    19     4     0     0
SMALL
NO_CHARGES


@<TRIPOS>ATOM
      1 N         -13.6300   20.3690    4.5210 N.4       1 ALA1        0.0000 
      2 CA        -12.5800   21.3450    4.7850 C.3       1 ALA1        0.0000 
      3 C         -12.9720   22.2790    5.9250 C.2       1 ALA1        0.0000 
      4 O         -12.2050   23.1670    6.3010 O.2       1 ALA1        0.0000 
      5 CB        -12.2690   22.1440    3.5280 C.3       1 ALA1        0.0000 
      6 N         -14.1680   22.0730    6.4730 N.am      2 ALA2        0.0000 
      7 CA        -14.6670   22.9050    7.5580 C.3       2 ALA2        0.0000 
      8 C         -15.6650   22.1080    8.3840 C.2       2 ALA2        0.0000 
      9 O         -16.2480   21.1300    7.9110 O.2       2 ALA2        0.0000 
     10 CB        -15.3120   24.1930    7.0320 C.3       2 ALA2        0.0000 
     11 N         -15.8530   22.5440    9.6330 N.am      3 ALA3        0.0000 
     12 CA        -16.8010   21.9220   10.5520 C.3       3 ALA3        0.0000 
     13 C         -16.9650   22.7550   11.8170 C.2       3 ALA3        0.0000 
     14 O         -16.7960   23.9780   11.7910 O.2       3 ALA3        0.0000 
     15 CB        -16.3540   20.5060   10.9200 C.3       3 ALA3        0.0000 
     16 N         -17.2920   22.0990   12.9260 N.am      4 ALA4        0.0000 
     17 CA        -17.4230   22.7710   14.2150 C.3       4 ALA4        0.0000 
     18 C         -17.2130   21.7870   15.3620 C.2       4 ALA4        0.0000 
     19 O         -16.3010   20.9600   15.3260 O.2       4 ALA4        0.0000 
     20 CB        -18.7820   23.4430   14.3330 C.3       4 ALA4        0.0000 
@<TRIPOS>BOND
     1    1    2 1    
     2    2    3 1    
     3    2    5 1    
     4    3    4 2    
     5    3    6 am   
     6    6    7 1    
     7    7    8 1    
     8    7   10 1    
     9    8    9 2    
    10    8   11 am   
    11   11   12 1    
    12   12   13 1    
    13   12   15 1    
    14   13   14 2    
    15   13   16 am   
    16   16   17 1    
    17   17   18 1    
    18   17   20 1    
    19   18   19 2    
@<TRIPOS>SUBSTRUCTURE
     1 ALA1        1 RESIDUE 
     2 ALA2        6 RESIDUE 
     3 ALA3       11 RESIDUE 
     4 ALA4       16 RESIDUE 
@<TRIPOS>SET

