#    Name: 6ikg_2_MET_ALA_ALA_CAVITY_N1_4
#    Modification time : Fri May 22 19:31:25 2020

@<TRIPOS>MOLECULE
6ikg_2_MET_ALA_ALA_CAVITY_N1_4
   85     0     6     0     0
SMALL
NO_CHARGES


@<TRIPOS>ATOM
      1 OG         62.1700    6.6200  100.1500 O.3       1 SER1        0.0000 
      2 OG         61.8300    7.9900  104.4200 O.3       1 SER1        0.0000 
      3 OG         60.7200    7.8900  105.4200 O.3       1 SER1        0.0000 
      4 OG         60.4700    6.9200  107.2900 O.3       1 SER1        0.0000 
      5 OG         59.6100    7.7800  106.4200 O.3       1 SER1        0.0000 
      6 OG         62.3500    9.2100  105.1200 O.3       1 SER1        0.0000 
      7 O          57.3000    1.9300  105.4900 O.2       2 ALA2        0.0000 
      8 O          56.1900    1.8200  106.4900 O.2       2 ALA2        0.0000 
      9 N          58.9300    3.2500  105.1900 N.am      2 ALA2        0.0000 
     10 N          57.8100    3.1500  106.1900 N.am      2 ALA2        0.0000 
     11 N          59.4400    4.4700  105.8900 N.am      2 ALA2        0.0000 
     12 N          59.1900    3.5100  107.7600 N.am      2 ALA2        0.0000 
     13 N          58.3300    4.3700  106.8900 N.am      2 ALA2        0.0000 
     14 O          63.8000    7.9500   99.8500 O.2       2 ALA2        0.0000 
     15 O          63.5500    6.9800  101.7200 O.2       2 ALA2        0.0000 
     16 O          62.6800    7.8400  100.8500 O.2       2 ALA2        0.0000 
     17 O          61.3200    6.7700  103.7200 O.2       2 ALA2        0.0000 
     18 N          62.8000    4.0700  107.3300 N.am      2 ALA2        0.0000 
     19 N          61.9300    4.9400  106.4600 N.am      2 ALA2        0.0000 
     20 O          61.0700    5.8000  105.5900 O.2       2 ALA2        0.0000 
     21 N          61.6800    3.9700  108.3300 N.am      2 ALA2        0.0000 
     22 N          60.8200    4.8300  107.4600 N.am      2 ALA2        0.0000 
     23 N          59.9600    5.7000  106.5900 N.am      2 ALA2        0.0000 
     24 O          65.1700    8.3100  101.4200 O.2       2 ALA2        0.0000 
     25 O          64.0600    8.2000  102.4200 O.2       2 ALA2        0.0000 
     26 N          62.2000    5.1900  109.0400 N.am      2 ALA2        0.0000 
     27 OD1        57.4600    5.2300  106.0200 O.co2     3 ASP3        0.0000 
     28 OD1        57.2100    4.2600  107.8900 O.co2     3 ASP3        0.0000 
     29 OD1        56.3500    5.1300  107.0200 O.co2     3 ASP3        0.0000 
     30 OD1        61.8200    8.7100   99.9800 O.co2     3 ASP3        0.0000 
     31 OD1        61.5700    7.7400  101.8500 O.co2     3 ASP3        0.0000 
     32 OD1        60.7100    8.6000  100.9800 O.co2     3 ASP3        0.0000 
     33 OD1        59.5900    8.5000  101.9800 O.co2     3 ASP3        0.0000 
     34 OD1        58.8400    5.5900  107.5900 O.co2     3 ASP3        0.0000 
     35 OD1        57.9800    6.4500  106.7200 O.co2     3 ASP3        0.0000 
     36 OD1        64.3100    9.1700  100.5500 O.co2     3 ASP3        0.0000 
     37 OD1        63.2000    9.0700  101.5500 O.co2     3 ASP3        0.0000 
     38 OD1        62.0800    8.9600  102.5500 O.co2     3 ASP3        0.0000 
     39 OD1        60.9700    8.8600  103.5500 O.co2     3 ASP3        0.0000 
     40 OD1        59.8600    8.7500  104.5500 O.co2     3 ASP3        0.0000 
     41 OD1        58.9900    9.6100  103.6800 O.co2     3 ASP3        0.0000 
     42 OD1        58.4900    7.6800  107.4200 O.co2     3 ASP3        0.0000 
     43 OD1        57.6300    8.5400  106.5500 O.co2     3 ASP3        0.0000 
     44 OD1        64.8200   10.3900  101.2600 O.co2     3 ASP3        0.0000 
     45 OD1        63.4600    9.3200  104.1300 O.co2     3 ASP3        0.0000 
     46 CZ         58.6800    2.2800  107.0600 C.ar      4 PHE5        0.0000 
     47 CZ         56.7000    3.0400  107.1900 C.ar      4 PHE5        0.0000 
     48 CZ         62.5500    3.1100  109.2000 C.ar      4 PHE5        0.0000 
     49 CZ         60.5700    3.8600  109.3300 C.ar      4 PHE5        0.0000 
     50 CZ         58.7400    8.6500  105.5500 C.ar      4 PHE5        0.0000 
     51 CA         58.5600    6.0500  100.5800 C.3       5 GLY6        0.0000 
     52 CA         58.3100    5.0800  102.4500 C.3       5 GLY6        0.0000 
     53 CA         61.9200    5.6500  102.0200 C.3       5 GLY6        0.0000 
     54 CA         61.0500    6.5200  101.1500 C.3       5 GLY6        0.0000 
     55 CA         60.1900    7.3800  100.2800 C.3       5 GLY6        0.0000 
     56 CA         60.8000    5.5500  103.0200 C.3       5 GLY6        0.0000 
     57 CA         59.9400    6.4100  102.1500 C.3       5 GLY6        0.0000 
     58 CA         59.0800    7.2800  101.2800 C.3       5 GLY6        0.0000 
     59 CA         59.6900    5.4400  104.0200 C.3       5 GLY6        0.0000 
     60 CA         58.0800    3.4000  108.7600 C.3       5 GLY6        0.0000 
     61 CA         62.4300    6.8800  102.7200 C.3       5 GLY6        0.0000 
     62 CA         59.7100    4.7300  108.4600 C.3       5 GLY6        0.0000 
     63 CA         63.8100    7.2300  104.2900 C.3       5 GLY6        0.0000 
     64 CA         62.9500    8.1000  103.4200 C.3       5 GLY6        0.0000 
     65 CA         62.7000    7.1300  105.2900 C.3       5 GLY6        0.0000 
     66 CA         63.3100    5.3000  108.0400 C.3       5 GLY6        0.0000 
     67 CA         61.5800    7.0200  106.2900 C.3       5 GLY6        0.0000 
     68 CA         63.0600    4.3300  109.9100 C.3       5 GLY6        0.0000 
     69 CA         61.3300    6.0500  108.1600 C.3       5 GLY6        0.0000 
     70 CA         61.0800    5.0900  110.0300 C.3       5 GLY6        0.0000 
     71 CA         60.2200    5.9500  109.1600 C.3       5 GLY6        0.0000 
     72 CA         59.3600    6.8100  108.2900 C.3       5 GLY6        0.0000 
     73 DU         56.4400    2.7900  104.6200 H         6 CUB7        0.0000 
     74 DU         58.0600    4.1200  104.3200 H         6 CUB7        0.0000 
     75 DU         56.9500    4.0100  105.3200 H         6 CUB7        0.0000 
     76 DU         58.8300    6.3100  103.1500 H         6 CUB7        0.0000 
     77 DU         57.9600    7.1700  102.2800 H         6 CUB7        0.0000 
     78 DU         58.5800    5.3400  105.0200 H         6 CUB7        0.0000 
     79 DU         57.7100    6.2000  104.1500 H         6 CUB7        0.0000 
     80 DU         60.4600    7.6300  102.8500 H         6 CUB7        0.0000 
     81 DU         60.2100    6.6700  104.7200 H         6 CUB7        0.0000 
     82 DU         59.3400    7.5300  103.8500 H         6 CUB7        0.0000 
     83 DU         58.4800    8.3900  102.9800 H         6 CUB7        0.0000 
     84 DU         59.0900    6.5600  105.7200 H         6 CUB7        0.0000 
     85 DU         58.2300    7.4200  104.8500 H         6 CUB7        0.0000 
@<TRIPOS>BOND
@<TRIPOS>SUBSTRUCTURE
     1 SER1        1 GROUP   
     2 ALA2        7 GROUP   
     3 ASP3       27 GROUP   
     4 PHE5       46 GROUP   
     5 GLY6       51 GROUP   
     6 CUB7       73 GROUP   
@<TRIPOS>SET

