#    Name: 6ikg_1_MET_ALA_ALA
#    Modification time : Fri May 22 19:31:14 2020

@<TRIPOS>MOLECULE
6ikg_1_MET_ALA_ALA
   19    18     3     0     0
SMALL
NO_CHARGES


@<TRIPOS>ATOM
      1 N          72.8210   14.9950  141.7950 N.4       1 MET1        0.0000 
      2 CA         72.9890   15.0250  140.3480 C.3       1 MET1        0.0000 
      3 C          71.7050   14.6040  139.6390 C.2       1 MET1        0.0000 
      4 O          71.0410   15.4300  139.0100 O.2       1 MET1        0.0000 
      5 CB         74.1520   14.1220  139.9290 C.3       1 MET1        0.0000 
      6 CG         75.5260   14.7380  140.1620 C.3       1 MET1        0.0000 
      7 SD         75.7690   16.2690  139.2380 S.3       1 MET1        0.0000 
      8 CE         75.8050   17.4830  140.5500 C.3       1 MET1        0.0000 
      9 N          71.3580   13.3250  139.7320 N.am      2 ALA2        0.0000 
     10 CA         70.0460   12.8540  139.2940 C.3       2 ALA2        0.0000 
     11 C          69.1200   12.8040  140.5070 C.2       2 ALA2        0.0000 
     12 O          68.7410   11.7430  141.0070 O.2       2 ALA2        0.0000 
     13 CB         70.1690   11.4930  138.6090 C.3       2 ALA2        0.0000 
     14 N          68.7450   13.9940  140.9690 N.am      3 ALA3        0.0000 
     15 CA         68.0730   14.1380  142.2610 C.3       3 ALA3        0.0000 
     16 C          66.7500   14.8920  142.1630 C.2       3 ALA3        0.0000 
     17 O          66.4920   15.6380  141.2210 O.2       3 ALA3        0.0000 
     18 CB         68.9960   14.8330  143.2490 C.3       3 ALA3        0.0000 
     19 OXT        65.9010   14.7640  143.0470 O.2       3 ALA3        0.0000 
@<TRIPOS>BOND
     1    1    2 1    
     2    2    3 1    
     3    2    5 1    
     4    3    4 2    
     5    3    9 am   
     6    5    6 1    
     7    6    7 1    
     8    7    8 1    
     9    9   10 1    
    10   10   11 1    
    11   10   13 1    
    12   11   12 2    
    13   11   14 am   
    14   14   15 1    
    15   15   16 1    
    16   15   18 1    
    17   16   17 2    
    18   16   19 2    
@<TRIPOS>SUBSTRUCTURE
     1 MET1        1 RESIDUE 
     2 ALA2        9 RESIDUE 
     3 ALA3       14 RESIDUE 
@<TRIPOS>SET

