#    Name: 6ikg_2_MET_ALA_ALA
#    Modification time : Fri May 22 19:31:24 2020

@<TRIPOS>MOLECULE
6ikg_2_MET_ALA_ALA
   19    18     3     0     0
SMALL
NO_CHARGES


@<TRIPOS>ATOM
      1 N          58.1710    4.0960  105.1160 N.4       1 MET1        0.0000 
      2 CA         57.7640    4.4210  106.4810 C.3       1 MET1        0.0000 
      3 C          58.8560    5.2220  107.1740 C.2       1 MET1        0.0000 
      4 O          58.6730    6.3980  107.4900 O.2       1 MET1        0.0000 
      5 CB         57.4500    3.1530  107.2620 C.3       1 MET1        0.0000 
      6 CG         56.1110    2.5720  106.8830 C.3       1 MET1        0.0000 
      7 SD         54.8220    3.8160  107.0800 S.3       1 MET1        0.0000 
      8 CE         53.8620    3.1250  108.4190 C.3       1 MET1        0.0000 
      9 N          59.9770    4.5600  107.4230 N.am      2 ALA2        0.0000 
     10 CA         61.1960    5.2520  107.8490 C.3       2 ALA2        0.0000 
     11 C          61.9780    5.5790  106.5790 C.2       2 ALA2        0.0000 
     12 O          62.9720    4.9450  106.2280 O.2       2 ALA2        0.0000 
     13 CB         61.9970    4.3950  108.8190 C.3       2 ALA2        0.0000 
     14 N          61.4640    6.5810  105.8660 N.am      3 ALA3        0.0000 
     15 CA         61.9110    6.8920  104.5110 C.3       3 ALA3        0.0000 
     16 C          62.3470    8.3510  104.3740 C.2       3 ALA3        0.0000 
     17 O          61.9880    9.2090  105.1780 O.2       3 ALA3        0.0000 
     18 CB         60.8070    6.5740  103.5090 C.3       3 ALA3        0.0000 
     19 OXT        63.0840    8.7070  103.4540 O.2       3 ALA3        0.0000 
@<TRIPOS>BOND
     1    1    2 1    
     2    2    3 1    
     3    2    5 1    
     4    3    4 2    
     5    3    9 am   
     6    5    6 1    
     7    6    7 1    
     8    7    8 1    
     9    9   10 1    
    10   10   11 1    
    11   10   13 1    
    12   11   12 2    
    13   11   14 am   
    14   14   15 1    
    15   15   16 1    
    16   15   18 1    
    17   16   17 2    
    18   16   19 2    
@<TRIPOS>SUBSTRUCTURE
     1 MET1        1 RESIDUE 
     2 ALA2        9 RESIDUE 
     3 ALA3       14 RESIDUE 
@<TRIPOS>SET

