#    Name: 6ikg_1_MET_ALA_ALA_CAVITY_N1_6
#    Modification time : Fri May 22 19:31:15 2020

@<TRIPOS>MOLECULE
6ikg_1_MET_ALA_ALA_CAVITY_N1_6
  110     0     7     0     0
SMALL
NO_CHARGES


@<TRIPOS>ATOM
      1 OG         68.7900   14.1900  139.8400 O.3       1 SER1        0.0000 
      2 OG         69.3000   15.4100  140.5400 O.3       1 SER1        0.0000 
      3 OG         68.1900   15.3100  141.5400 O.3       1 SER1        0.0000 
      4 OG         67.3300   16.1700  140.6700 O.3       1 SER1        0.0000 
      5 OG         68.2100   14.5900  145.9800 O.3       1 SER1        0.0000 
      6 N          68.8800   11.8500  137.4300 N.am      2 ALA2        0.0000 
      7 N          70.2500   12.2100  139.0100 N.am      2 ALA2        0.0000 
      8 N          69.1400   12.1100  140.0100 N.am      2 ALA2        0.0000 
      9 N          70.7700   13.4300  139.7100 N.am      2 ALA2        0.0000 
     10 N          69.6500   13.3300  140.7100 N.am      2 ALA2        0.0000 
     11 O          68.5400   13.2200  141.7100 O.2       2 ALA2        0.0000 
     12 O          67.4300   13.1200  142.7100 O.2       2 ALA2        0.0000 
     13 O          64.0900   12.8000  145.7100 O.2       2 ALA2        0.0000 
     14 O          76.3500   13.2500  139.1500 O.2       2 ALA2        0.0000 
     15 N          74.1200   13.0300  141.1500 N.am      2 ALA2        0.0000 
     16 N          73.2600   13.9000  140.2800 N.am      2 ALA2        0.0000 
     17 N          72.1500   13.7900  141.2800 N.am      2 ALA2        0.0000 
     18 N          71.2800   14.6600  140.4100 N.am      2 ALA2        0.0000 
     19 O          69.0500   14.4500  142.4100 O.2       2 ALA2        0.0000 
     20 O          67.9400   14.3400  143.4100 O.2       2 ALA2        0.0000 
     21 O          66.5800   13.2700  146.2800 O.2       2 ALA2        0.0000 
     22 O          65.7100   14.1300  145.4100 O.2       2 ALA2        0.0000 
     23 O          64.6000   14.0200  146.4100 O.2       2 ALA2        0.0000 
     24 N          77.9800   14.5700  138.8600 N.am      2 ALA2        0.0000 
     25 N          76.8600   14.4700  139.8600 N.am      2 ALA2        0.0000 
     26 N          76.0000   15.3300  138.9800 N.am      2 ALA2        0.0000 
     27 O          75.7500   14.3600  140.8500 O.2       2 ALA2        0.0000 
     28 N          76.5100   16.5500  139.6900 N.am      2 ALA2        0.0000 
     29 N          76.2600   15.5800  141.5600 N.am      2 ALA2        0.0000 
     30 OD1        65.4500   13.8800  142.8400 O.co2     3 ASP3        0.0000 
     31 OD1        63.2200   13.6700  144.8400 O.co2     3 ASP3        0.0000 
     32 OD1        72.4000   14.7600  139.4100 O.co2     3 ASP3        0.0000 
     33 OD1        70.4200   15.5200  139.5400 O.co2     3 ASP3        0.0000 
     34 OD1        69.5500   16.3800  138.6700 O.co2     3 ASP3        0.0000 
     35 OD1        67.0800   15.2000  142.5400 O.co2     3 ASP3        0.0000 
     36 OD1        66.2100   16.0700  141.6700 O.co2     3 ASP3        0.0000 
     37 OD1        65.9600   15.1000  143.5400 O.co2     3 ASP3        0.0000 
     38 OD1        64.8500   14.9900  144.5400 O.co2     3 ASP3        0.0000 
     39 OD1        63.7400   14.8900  145.5400 O.co2     3 ASP3        0.0000 
     40 OD1        75.1400   16.1900  138.1100 O.co2     3 ASP3        0.0000 
     41 OD1        74.0200   16.0900  139.1100 O.co2     3 ASP3        0.0000 
     42 OD1        72.9100   15.9800  140.1100 O.co2     3 ASP3        0.0000 
     43 OD1        71.8000   15.8800  141.1100 O.co2     3 ASP3        0.0000 
     44 OD1        70.9300   16.7400  140.2400 O.co2     3 ASP3        0.0000 
     45 OD1        70.0700   17.6100  139.3700 O.co2     3 ASP3        0.0000 
     46 OD1        69.2100   18.4700  138.5000 O.co2     3 ASP3        0.0000 
     47 OD1        67.8400   17.3900  141.3700 O.co2     3 ASP3        0.0000 
     48 OD1        67.5900   16.4300  143.2400 O.co2     3 ASP3        0.0000 
     49 OD1        66.4800   16.3200  144.2400 O.co2     3 ASP3        0.0000 
     50 OD1        66.2300   15.3500  146.1100 O.co2     3 ASP3        0.0000 
     51 OD1        68.1100   17.6500  143.9400 O.co2     3 ASP3        0.0000 
     52 OD1        66.9900   17.5400  144.9400 O.co2     3 ASP3        0.0000 
     53 OD1        65.8800   17.4400  145.9400 O.co2     3 ASP3        0.0000 
     54 OD1        67.5100   18.7600  145.6400 O.co2     3 ASP3        0.0000 
     55 NZ         68.0900   18.3600  139.5000 N.4       4 LYS4        0.0000 
     56 NZ         68.3600   18.6200  142.0700 N.4       4 LYS4        0.0000 
     57 CZ         70.8500   11.1000  137.3100 C.ar      5 PHE5        0.0000 
     58 CZ         71.3700   12.3200  138.0100 C.ar      5 PHE5        0.0000 
     59 CZ         72.7400   12.6800  139.5800 C.ar      5 PHE5        0.0000 
     60 CZ         75.2400   13.1400  140.1500 C.ar      5 PHE5        0.0000 
     61 CZ         74.3700   14.0000  139.2800 C.ar      5 PHE5        0.0000 
     62 CZ         68.4400   16.2800  139.6700 C.ar      5 PHE5        0.0000 
     63 CZ         77.1100   15.4400  137.9800 C.ar      5 PHE5        0.0000 
     64 CZ         68.9600   17.5000  140.3700 C.ar      5 PHE5        0.0000 
     65 CA         69.7400   10.9900  138.3100 C.3       6 GLY6        0.0000 
     66 CA         70.5000   13.1800  137.1400 C.3       6 GLY6        0.0000 
     67 CA         69.3900   13.0800  138.1400 C.3       6 GLY6        0.0000 
     68 CA         68.2800   12.9700  139.1400 C.3       6 GLY6        0.0000 
     69 CA         71.8800   13.5400  138.7100 C.3       6 GLY6        0.0000 
     70 CA         71.0200   14.4000  137.8400 C.3       6 GLY6        0.0000 
     71 CA         69.9000   14.3000  138.8400 C.3       6 GLY6        0.0000 
     72 CA         67.6800   14.0900  140.8400 C.3       6 GLY6        0.0000 
     73 CA         66.5600   13.9800  141.8400 C.3       6 GLY6        0.0000 
     74 CA         75.4900   14.1100  138.2800 C.3       6 GLY6        0.0000 
     75 CA         73.5100   14.8700  138.4100 C.3       6 GLY6        0.0000 
     76 CA         71.0300   13.6900  142.2800 C.3       6 GLY6        0.0000 
     77 CA         70.1700   14.5500  141.4100 C.3       6 GLY6        0.0000 
     78 CA         66.8300   14.2300  144.4100 C.3       6 GLY6        0.0000 
     79 CA         71.5500   14.9100  142.9800 C.3       6 GLY6        0.0000 
     80 CA         70.4300   14.8000  143.9800 C.3       6 GLY6        0.0000 
     81 CA         68.4600   15.5600  144.1100 C.3       6 GLY6        0.0000 
     82 CA         65.1200   15.2500  147.1100 C.3       6 GLY6        0.0000 
     83 CA         72.0600   16.1300  143.6800 C.3       6 GLY6        0.0000 
     84 CA         68.9700   16.7800  144.8100 C.3       6 GLY6        0.0000 
     85 CA         68.7200   15.8200  146.6800 C.3       6 GLY6        0.0000 
     86 CA         66.7400   16.5700  146.8100 C.3       6 GLY6        0.0000 
     87 CA         70.3500   17.1400  146.3800 C.3       6 GLY6        0.0000 
     88 CA         69.2300   17.0400  147.3800 C.3       6 GLY6        0.0000 
     89 CA         68.1200   16.9300  148.3800 C.3       6 GLY6        0.0000 
     90 CA         67.2600   17.8000  147.5100 C.3       6 GLY6        0.0000 
     91 CA         66.3900   18.6600  146.6400 C.3       6 GLY6        0.0000 
     92 DU         74.8900   15.2300  139.9800 H         7 CUB7        0.0000 
     93 DU         74.6400   14.2600  141.8500 H         7 CUB7        0.0000 
     94 DU         73.7700   15.1200  140.9800 H         7 CUB7        0.0000 
     95 DU         72.6600   15.0100  141.9800 H         7 CUB7        0.0000 
     96 DU         70.6800   15.7700  142.1100 H         7 CUB7        0.0000 
     97 DU         69.8200   16.6400  141.2400 H         7 CUB7        0.0000 
     98 DU         69.5700   15.6700  143.1100 H         7 CUB7        0.0000 
     99 DU         68.7100   16.5300  142.2400 H         7 CUB7        0.0000 
    100 DU         67.3400   15.4600  145.1100 H         7 CUB7        0.0000 
    101 DU         75.4000   16.4500  140.6900 H         7 CUB7        0.0000 
    102 DU         75.1500   15.4800  142.5600 H         7 CUB7        0.0000 
    103 DU         74.2900   16.3400  141.6800 H         7 CUB7        0.0000 
    104 DU         72.3100   17.1000  141.8100 H         7 CUB7        0.0000 
    105 DU         71.2000   16.9900  142.8100 H         7 CUB7        0.0000 
    106 DU         70.3300   17.8600  141.9400 H         7 CUB7        0.0000 
    107 DU         70.0800   16.8900  143.8100 H         7 CUB7        0.0000 
    108 DU         69.2200   17.7500  142.9400 H         7 CUB7        0.0000 
    109 DU         67.8600   16.6800  145.8100 H         7 CUB7        0.0000 
    110 DU         68.3700   17.9000  146.5100 H         7 CUB7        0.0000 
@<TRIPOS>BOND
@<TRIPOS>SUBSTRUCTURE
     1 SER1        1 GROUP   
     2 ALA2        6 GROUP   
     3 ASP3       30 GROUP   
     4 LYS4       55 GROUP   
     5 PHE5       57 GROUP   
     6 GLY6       65 GROUP   
     7 CUB7       92 GROUP   
@<TRIPOS>SET

