#    Name: 5zpu_1_GTP_CAVITY_N1_ALL
#    Modification time : Fri May 22 19:25:34 2020

@<TRIPOS>MOLECULE
5zpu_1_GTP_CAVITY_N1_ALL
   85     0     7     0     0
SMALL
NO_CHARGES


@<TRIPOS>ATOM
      1 OG          2.6600   41.6100   23.1700 O.3       1 SER1        0.0000 
      2 OG          1.0500   43.0000   23.0900 O.3       1 SER1        0.0000 
      3 OG          4.6500   42.3100   23.4100 O.3       1 SER1        0.0000 
      4 OG          3.6800   41.2900   25.0000 O.3       1 SER1        0.0000 
      5 OG          2.0800   42.6700   24.9200 O.3       1 SER1        0.0000 
      6 OG          1.7600   43.8800   24.0800 O.3       1 SER1        0.0000 
      7 OG          0.4700   44.0600   24.8400 O.3       1 SER1        0.0000 
      8 OG          5.6700   41.9900   25.2400 O.3       1 SER1        0.0000 
      9 N           0.9200   41.0600   20.3600 N.am      2 ALA2        0.0000 
     10 N           1.6300   41.9400   21.3500 N.am      2 ALA2        0.0000 
     11 N           1.3100   43.1400   20.5100 N.am      2 ALA2        0.0000 
     12 N           0.9800   44.3400   19.6700 N.am      2 ALA2        0.0000 
     13 N           3.9400   41.4300   22.4200 N.am      2 ALA2        0.0000 
     14 N           3.6200   42.6300   21.5800 N.am      2 ALA2        0.0000 
     15 N           2.3300   42.8200   22.3400 N.am      2 ALA2        0.0000 
     16 N           2.0100   44.0200   21.5000 N.am      2 ALA2        0.0000 
     17 N           1.6900   45.2200   20.6600 N.am      2 ALA2        0.0000 
     18 N           1.7000   40.5900   24.7700 N.am      2 ALA2        0.0000 
     19 O           2.7200   40.2700   26.5900 O.2       2 ALA2        0.0000 
     20 O          -0.8100   44.2400   25.5900 O.2       2 ALA2        0.0000 
     21 N           8.2400   41.6300   23.7300 N.am      2 ALA2        0.0000 
     22 N           7.9200   42.8300   22.8900 N.am      2 ALA2        0.0000 
     23 N           6.9600   41.8100   24.4800 N.am      2 ALA2        0.0000 
     24 N           6.6400   43.0100   23.6500 N.am      2 ALA2        0.0000 
     25 O           7.3400   43.8900   24.6400 O.2       2 ALA2        0.0000 
     26 OD1        -0.3600   41.2400   21.1100 O.co2     3 ASP3        0.0000 
     27 OD1        -1.6400   41.4200   21.8700 O.co2     3 ASP3        0.0000 
     28 OD1        -2.6100   45.0300   19.3500 O.co2     3 ASP3        0.0000 
     29 OD1        -2.9300   41.6000   22.6200 O.co2     3 ASP3        0.0000 
     30 OD1        -3.8900   45.2100   20.1100 O.co2     3 ASP3        0.0000 
     31 OD1         0.9900   39.7100   23.7800 O.co2     3 ASP3        0.0000 
     32 OD1         0.6700   40.9200   22.9400 O.co2     3 ASP3        0.0000 
     33 OD1         0.3500   42.1200   22.1000 O.co2     3 ASP3        0.0000 
     34 OD1        -0.9400   42.3000   22.8600 O.co2     3 ASP3        0.0000 
     35 OD1         1.3700   41.7900   23.9300 O.co2     3 ASP3        0.0000 
     36 OD1        -0.2300   43.1800   23.8500 O.co2     3 ASP3        0.0000 
     37 OD1        10.2300   42.3200   23.9700 O.co2     3 ASP3        0.0000 
     38 OD1         8.6300   43.7100   23.8800 O.co2     3 ASP3        0.0000 
     39 NZ         -4.1500   45.0700   22.6900 N.4       4 LYS4        0.0000 
     40 NZ         -3.4500   45.9400   23.6800 N.4       4 LYS4        0.0000 
     41 CZ          2.6000   38.3300   23.8600 C.ar      5 PHE5        0.0000 
     42 CZ         -0.3000   44.5200   20.4300 C.ar      5 PHE5        0.0000 
     43 CZ         -1.5800   44.7000   21.1800 C.ar      5 PHE5        0.0000 
     44 CZ          3.3000   39.2100   24.8500 C.ar      5 PHE5        0.0000 
     45 CZ          2.9800   40.4100   24.0100 C.ar      5 PHE5        0.0000 
     46 CZ          0.7300   44.2000   22.2500 C.ar      5 PHE5        0.0000 
     47 CZ         -0.5600   44.3800   23.0100 C.ar      5 PHE5        0.0000 
     48 CZ         -2.1600   45.7600   22.9300 C.ar      5 PHE5        0.0000 
     49 CZ          4.9700   41.1100   24.2500 C.ar      5 PHE5        0.0000 
     50 CZ          4.0100   40.0900   25.8400 C.ar      5 PHE5        0.0000 
     51 CZ          0.1500   45.2600   24.0000 C.ar      5 PHE5        0.0000 
     52 CZ         -1.1300   45.4400   24.7500 C.ar      5 PHE5        0.0000 
     53 CZ         -1.4600   46.6400   23.9200 C.ar      5 PHE5        0.0000 
     54 CA         -4.9200   40.9000   22.3800 C.3       6 GLY6        0.0000 
     55 CA          2.5300   39.6800   20.4400 C.3       6 GLY6        0.0000 
     56 CA         -3.2500   42.8000   21.7800 C.3       6 GLY6        0.0000 
     57 CA         -3.5700   44.0100   20.9500 C.3       6 GLY6        0.0000 
     58 CA         -4.5300   42.9900   22.5400 C.3       6 GLY6        0.0000 
     59 CA          3.2400   40.5500   21.4300 C.3       6 GLY6        0.0000 
     60 CA          2.2700   39.5300   23.0200 C.3       6 GLY6        0.0000 
     61 CA          1.9500   40.7400   22.1800 C.3       6 GLY6        0.0000 
     62 CA         -2.5400   43.6800   22.7700 C.3       6 GLY6        0.0000 
     63 CA         -2.8700   44.8900   21.9400 C.3       6 GLY6        0.0000 
     64 CA         -3.8300   43.8600   23.5300 C.3       6 GLY6        0.0000 
     65 CA          4.2600   40.2300   23.2600 C.3       6 GLY6        0.0000 
     66 CA         -1.5200   43.3600   24.6000 C.3       6 GLY6        0.0000 
     67 CA         -1.8400   44.5600   23.7600 C.3       6 GLY6        0.0000 
     68 CA         -3.1200   44.7400   24.5200 C.3       6 GLY6        0.0000 
     69 CA          6.2500   40.9300   23.4900 C.3       6 GLY6        0.0000 
     70 CA          4.3300   38.8900   26.6800 C.3       6 GLY6        0.0000 
     71 CA          2.4000   41.4700   25.7600 C.3       6 GLY6        0.0000 
     72 CA          1.4300   45.0800   23.2400 C.3       6 GLY6        0.0000 
     73 CA          0.7900   42.8500   25.6700 C.3       6 GLY6        0.0000 
     74 CA         -2.4200   45.6200   25.5100 C.3       6 GLY6        0.0000 
     75 CA         -2.7400   46.8200   24.6700 C.3       6 GLY6        0.0000 
     76 CA          6.0000   40.7900   26.0800 C.3       6 GLY6        0.0000 
     77 CA          1.1800   44.9400   25.8300 C.3       6 GLY6        0.0000 
     78 CA         -0.4300   46.3200   25.7400 C.3       6 GLY6        0.0000 
     79 CA          8.9500   42.5000   24.7200 C.3       6 GLY6        0.0000 
     80 CA          7.6600   42.6800   25.4700 C.3       6 GLY6        0.0000 
     81 DU         -0.6800   42.4400   20.2700 H         7 CUB7        0.0000 
     82 DU         -1.9700   42.6200   21.0300 H         7 CUB7        0.0000 
     83 DU         -2.2900   43.8300   20.1900 H         7 CUB7        0.0000 
     84 DU          0.0200   43.3200   21.2600 H         7 CUB7        0.0000 
     85 DU         -1.2600   43.5000   22.0200 H         7 CUB7        0.0000 
@<TRIPOS>BOND
@<TRIPOS>SUBSTRUCTURE
     1 SER1        1 GROUP   
     2 ALA2        9 GROUP   
     3 ASP3       26 GROUP   
     4 LYS4       39 GROUP   
     5 PHE5       41 GROUP   
     6 GLY6       54 GROUP   
     7 CUB7       81 GROUP   
@<TRIPOS>SET

