#    Name: 5zpu_1_GTP
#    Modification time : Fri May 22 19:25:31 2020

@<TRIPOS>MOLECULE
5zpu_1_GTP
   32    34     1     0     1
SMALL
NO_CHARGES


@<TRIPOS>ATOM
      1 PG          6.5750   37.1650   28.7340 P.3       1 GTP301      0.0000 
      2 O1G         6.4440   35.7820   28.1540 O.co2     1 GTP301      0.0000 
      3 O2G         7.7400   37.9590   28.2010 O.co2     1 GTP301      0.0000 
      4 O3G         6.4440   37.1730   30.2150 O.co2     1 GTP301      0.0000 
      5 O3B         5.2870   37.9640   28.1890 O.3       1 GTP301      0.0000 
      6 PB          5.0280   39.5480   28.4010 P.3       1 GTP301      0.0000 
      7 O1B         6.3130   40.3130   28.5510 O.co2     1 GTP301      0.0000 
      8 O2B         3.9980   39.6910   29.4900 O.co2     1 GTP301      0.0000 
      9 O3A         4.3550   39.9240   27.0060 O.3       1 GTP301      0.0000 
     10 PA          4.8660   41.1290   26.0880 P.3       1 GTP301      0.0000 
     11 O1A         6.2640   40.8480   25.6020 O.co2     1 GTP301      0.0000 
     12 O2A         4.5700   42.4680   26.7050 O.co2     1 GTP301      0.0000 
     13 O5'         3.9430   40.9440   24.8000 O.3       1 GTP301      0.0000 
     14 C5'         2.5350   41.0620   24.9000 C.3       1 GTP301      0.0000 
     15 C4'         1.8970   41.0030   23.5280 C.3       1 GTP301      0.0000 
     16 O4'         0.5640   41.4920   23.6550 O.3       1 GTP301      0.0000 
     17 C3'         2.5920   41.9210   22.5220 C.3       1 GTP301      0.0000 
     18 O3'         2.4760   41.3650   21.2100 O.3       1 GTP301      0.0000 
     19 C2'         1.8540   43.2320   22.6610 C.3       1 GTP301      0.0000 
     20 O2'         1.7690   43.9540   21.4410 O.3       1 GTP301      0.0000 
     21 C1'         0.4660   42.8280   23.1330 C.3       1 GTP301      0.0000 
     22 N9         -0.0380   43.8030   24.1380 N.pl3     1 GTP301      0.0000 
     23 C8          0.5740   44.2590   25.2580 C.2       1 GTP301      0.0000 
     24 N7         -0.1930   45.1500   25.9300 N.2       1 GTP301      0.0000 
     25 C5         -1.3220   45.2790   25.2320 C.2       1 GTP301      0.0000 
     26 C6         -2.5670   46.0590   25.3810 C.2       1 GTP301      0.0000 
     27 O6         -2.7400   46.8340   26.3420 O.2       1 GTP301      0.0000 
     28 N1         -3.5080   45.9100   24.4450 N.am      1 GTP301      0.0000 
     29 C2         -3.3580   45.0820   23.3880 C.2       1 GTP301      0.0000 
     30 N2         -4.3650   44.9980   22.4950 N.pl3     1 GTP301      0.0000 
     31 N3         -2.2410   44.3230   23.1780 N.2       1 GTP301      0.0000 
     32 C4         -1.2190   44.3890   24.0570 C.2       1 GTP301      0.0000 
@<TRIPOS>BOND
     1    1    2 ar   
     2    1    3 ar   
     3    1    4 ar   
     4    1    5 1    
     5    5    6 1    
     6    6    7 ar   
     7    6    8 ar   
     8    6    9 1    
     9    9   10 1    
    10   10   11 ar   
    11   10   12 ar   
    12   10   13 1    
    13   13   14 1    
    14   14   15 1    
    15   15   16 1    
    16   15   17 1    
    17   16   21 1    
    18   17   18 1    
    19   17   19 1    
    20   19   20 1    
    21   19   21 1    
    22   21   22 1    
    23   22   23 1    
    24   22   32 1    
    25   23   24 2    
    26   24   25 1    
    27   25   26 1    
    28   25   32 2    
    29   26   27 2    
    30   26   28 am   
    31   28   29 1    
    32   29   30 1    
    33   29   31 2    
    34   31   32 1    
@<TRIPOS>SUBSTRUCTURE
     1 GTP301      1 GROUP   
@<TRIPOS>SET
ATOM$ORANGE STATIC     ATOMS   COLORGROUP SYSTEM 
20 14 14 15 15 17 17 19 19 21 21 23 23 25 25 26 26 29 \
29 32 32 

