#    Name: 5zbc_1_FAD
#    Modification time : Fri May 22 19:23:37 2020

@<TRIPOS>MOLECULE
5zbc_1_FAD
   53    58     1     0     1
SMALL
NO_CHARGES


@<TRIPOS>ATOM
      1 PA         56.1310    0.7460   13.1100 P.3       1 FAD500      0.0000 
      2 O1A        54.9220   -0.0940   13.2960 O.co2     1 FAD500      0.0000 
      3 O2A        56.2170    2.1760   13.4820 O.co2     1 FAD500      0.0000 
      4 O5B        56.4470    0.7500   11.5400 O.3       1 FAD500      0.0000 
      5 C5B        56.3730   -0.3950   10.6730 C.3       1 FAD500      0.0000 
      6 C4B        56.0000    0.0450    9.2440 C.3       1 FAD500      0.0000 
      7 O4B        55.9060   -1.0720    8.4110 O.3       1 FAD500      0.0000 
      8 C3B        54.6820    0.8350    9.0930 C.3       1 FAD500      0.0000 
      9 O3B        54.9400    2.1350    8.4880 O.3       1 FAD500      0.0000 
     10 C2B        53.7820   -0.0660    8.2460 C.3       1 FAD500      0.0000 
     11 O2B        53.0740    0.6400    7.2490 O.3       1 FAD500      0.0000 
     12 C1B        54.8060   -0.9110    7.5010 C.3       1 FAD500      0.0000 
     13 N9A        54.3790   -2.2470    7.0490 N.pl3     1 FAD500      0.0000 
     14 C8A        53.9420   -3.3040    7.7810 C.2       1 FAD500      0.0000 
     15 N7A        53.6800   -4.4280    7.0350 N.2       1 FAD500      0.0000 
     16 C5A        53.9930   -4.0720    5.7880 C.ar      1 FAD500      0.0000 
     17 C6A        53.9680   -4.7080    4.4880 C.ar      1 FAD500      0.0000 
     18 N6A        53.5600   -5.9710    4.3900 N.pl3     1 FAD500      0.0000 
     19 N1A        54.3890   -4.0110    3.4420 N.ar      1 FAD500      0.0000 
     20 C2A        54.7720   -2.7080    3.4960 C.ar      1 FAD500      0.0000 
     21 N3A        54.8130   -2.0910    4.6520 N.ar      1 FAD500      0.0000 
     22 C4A        54.4550   -2.6620    5.7980 C.ar      1 FAD500      0.0000 
     23 N1         56.5900    4.8960   21.9930 N.2       1 FAD500      0.0000 
     24 C2         57.1990    5.8070   22.7890 C.2       1 FAD500      0.0000 
     25 O2         58.4640    5.7660   22.8710 O.2       1 FAD500      0.0000 
     26 N3         56.4940    6.6710   23.5500 N.am      1 FAD500      0.0000 
     27 C4         55.1730    6.7910   23.5120 C.2       1 FAD500      0.0000 
     28 O4         54.5680    7.6380   24.2010 O.2       1 FAD500      0.0000 
     29 C4X        54.4560    5.8560   22.6640 C.2       1 FAD500      0.0000 
     30 N5         53.1250    5.8920   22.5820 N.2       1 FAD500      0.0000 
     31 C5X        52.4460    5.1990   21.6690 C.ar      1 FAD500      0.0000 
     32 C6         51.0860    5.3580   21.5960 C.ar      1 FAD500      0.0000 
     33 C7         50.3680    4.6000   20.7050 C.ar      1 FAD500      0.0000 
     34 C7M        48.8830    4.7600   20.6090 C.3       1 FAD500      0.0000 
     35 C8         51.1120    3.6630   19.8510 C.ar      1 FAD500      0.0000 
     36 C8M        50.4360    2.7780   18.8580 C.3       1 FAD500      0.0000 
     37 C9         52.4700    3.4960   19.9610 C.ar      1 FAD500      0.0000 
     38 C9A        53.1840    4.2390   20.8390 C.ar      1 FAD500      0.0000 
     39 N10        54.6010    4.0860   20.9870 N.pl3     1 FAD500      0.0000 
     40 C10        55.2500    4.9220   21.8670 C.2       1 FAD500      0.0000 
     41 C1'        55.4050    3.0920   20.2520 C.3       1 FAD500      0.0000 
     42 C2'        56.1010    3.4440   18.9900 C.3       1 FAD500      0.0000 
     43 O2'        55.0800    3.9940   18.2030 O.3       1 FAD500      0.0000 
     44 C3'        56.7660    2.1660   18.4350 C.3       1 FAD500      0.0000 
     45 O3'        57.5950    1.5680   19.4300 O.3       1 FAD500      0.0000 
     46 C4'        57.5990    2.5350   17.2350 C.3       1 FAD500      0.0000 
     47 O4'        56.9320    3.6380   16.5880 O.3       1 FAD500      0.0000 
     48 C5'        57.7070    1.3170   16.3500 C.3       1 FAD500      0.0000 
     49 O5'        58.5120    1.6400   15.2050 O.3       1 FAD500      0.0000 
     50 P          58.8190    0.5130   14.1160 P.3       1 FAD500      0.0000 
     51 O1P        59.4340    1.2530   12.9730 O.co2     1 FAD500      0.0000 
     52 O2P        59.4460   -0.6680   14.7350 O.co2     1 FAD500      0.0000 
     53 O3P        57.3930   -0.0910   13.7200 O.3       1 FAD500      0.0000 
@<TRIPOS>BOND
     1    1   53 1    
     2    1    2 ar   
     3    1    3 ar   
     4    1    4 1    
     5    4    5 1    
     6    5    6 1    
     7    6    7 1    
     8    6    8 1    
     9    7   12 1    
    10    8    9 1    
    11    8   10 1    
    12   10   12 1    
    13   10   11 1    
    14   12   13 1    
    15   13   14 1    
    16   13   22 1    
    17   14   15 2    
    18   15   16 1    
    19   16   17 ar   
    20   16   22 ar   
    21   17   18 1    
    22   17   19 ar   
    23   19   20 ar   
    24   20   21 ar   
    25   21   22 ar   
    26   23   24 1    
    27   23   40 2    
    28   24   25 2    
    29   24   26 am   
    30   26   27 am   
    31   27   28 2    
    32   27   29 1    
    33   29   30 2    
    34   29   40 1    
    35   30   31 1    
    36   31   32 ar   
    37   31   38 ar   
    38   32   33 ar   
    39   33   34 1    
    40   33   35 ar   
    41   35   36 1    
    42   35   37 ar   
    43   37   38 ar   
    44   38   39 1    
    45   39   40 1    
    46   39   41 1    
    47   41   42 1    
    48   42   43 1    
    49   42   44 1    
    50   44   45 1    
    51   44   46 1    
    52   46   47 1    
    53   46   48 1    
    54   48   49 1    
    55   49   50 1    
    56   50   51 ar   
    57   50   52 ar   
    58   50   53 1    
@<TRIPOS>SUBSTRUCTURE
     1 FAD500      1 GROUP   
@<TRIPOS>SET
ATOM$ORANGE STATIC     ATOMS   COLORGROUP SYSTEM 
54 5 5 6 6 8 8 10 10 12 12 14 14 16 16 17 17 20 \
20 22 22 24 24 27 27 29 29 31 31 32 32 33 33 34 34 35 \
35 36 36 37 37 38 38 40 40 41 41 42 42 44 44 46 46 48 \
48 

