#    Name: 5zbc_2_FAD
#    Modification time : Fri May 22 19:23:42 2020

@<TRIPOS>MOLECULE
5zbc_2_FAD
   53    58     1     0     1
SMALL
NO_CHARGES


@<TRIPOS>ATOM
      1 PA         32.0410    4.5280   -8.6050 P.3       1 FAD500      0.0000 
      2 O1A        33.0930    3.6480   -9.1700 O.co2     1 FAD500      0.0000 
      3 O2A        32.1850    6.0400   -8.7960 O.co2     1 FAD500      0.0000 
      4 O5B        31.6450    4.2270   -7.0860 O.3       1 FAD500      0.0000 
      5 C5B        31.7690    2.9330   -6.5190 C.3       1 FAD500      0.0000 
      6 C4B        32.1100    3.1060   -5.0500 C.3       1 FAD500      0.0000 
      7 O4B        32.0990    1.7890   -4.3990 O.3       1 FAD500      0.0000 
      8 C3B        33.4940    3.7010   -4.8020 C.3       1 FAD500      0.0000 
      9 O3B        33.3530    4.9010   -3.9990 O.3       1 FAD500      0.0000 
     10 C2B        34.2530    2.5740   -4.0990 C.3       1 FAD500      0.0000 
     11 O2B        35.0450    3.0050   -3.0010 O.3       1 FAD500      0.0000 
     12 C1B        33.1390    1.7230   -3.4750 C.3       1 FAD500      0.0000 
     13 N9A        33.4130    0.2690   -3.2980 N.pl3     1 FAD500      0.0000 
     14 C8A        33.7820   -0.6280   -4.2180 C.2       1 FAD500      0.0000 
     15 N7A        33.9110   -1.8640   -3.6760 N.2       1 FAD500      0.0000 
     16 C5A        33.5330   -1.7410   -2.4180 C.ar      1 FAD500      0.0000 
     17 C6A        33.4980   -2.6340   -1.2970 C.ar      1 FAD500      0.0000 
     18 N6A        33.7900   -3.9380   -1.4650 N.pl3     1 FAD500      0.0000 
     19 N1A        33.1450   -2.1160   -0.1280 N.ar      1 FAD500      0.0000 
     20 C2A        32.8850   -0.7920    0.0650 C.ar      1 FAD500      0.0000 
     21 N3A        32.9060    0.1020   -0.9070 N.ar      1 FAD500      0.0000 
     22 C4A        33.2290   -0.3450   -2.1470 C.ar      1 FAD500      0.0000 
     23 N1         32.0610   10.2080  -16.5620 N.2       1 FAD500      0.0000 
     24 C2         31.5140   11.2970  -17.1750 C.2       1 FAD500      0.0000 
     25 O2         30.2610   11.4100  -17.2130 O.2       1 FAD500      0.0000 
     26 N3         32.2430   12.2360  -17.7260 N.am      1 FAD500      0.0000 
     27 C4         33.5750   12.2440  -17.7290 C.2       1 FAD500      0.0000 
     28 O4         34.2860   13.1770  -18.2200 O.2       1 FAD500      0.0000 
     29 C4X        34.2510   11.1140  -17.0930 C.2       1 FAD500      0.0000 
     30 N5         35.6100   11.0780  -17.0310 N.2       1 FAD500      0.0000 
     31 C5X        36.1940   10.0970  -16.3320 C.ar      1 FAD500      0.0000 
     32 C6         37.5640   10.0980  -16.2520 C.ar      1 FAD500      0.0000 
     33 C7         38.1880    9.1210  -15.5030 C.ar      1 FAD500      0.0000 
     34 C7M        39.6920    9.1160  -15.3650 C.3       1 FAD500      0.0000 
     35 C8         37.3720    8.0870  -14.8670 C.ar      1 FAD500      0.0000 
     36 C8M        37.9980    6.9630  -14.0750 C.3       1 FAD500      0.0000 
     37 C9         36.0010    8.0740  -14.9810 C.ar      1 FAD500      0.0000 
     38 C9A        35.3620    9.0490  -15.6740 C.ar      1 FAD500      0.0000 
     39 N10        33.9410    9.0700  -15.7570 N.pl3     1 FAD500      0.0000 
     40 C10        33.3770   10.1130  -16.4610 C.2       1 FAD500      0.0000 
     41 C1'        33.0210    8.0240  -15.2440 C.3       1 FAD500      0.0000 
     42 C2'        32.3900    8.3060  -13.9530 C.3       1 FAD500      0.0000 
     43 O2'        33.4830    8.7270  -13.1530 O.3       1 FAD500      0.0000 
     44 C3'        31.6540    7.0550  -13.5670 C.3       1 FAD500      0.0000 
     45 O3'        30.8000    6.5970  -14.6110 O.3       1 FAD500      0.0000 
     46 C4'        30.7810    7.2420  -12.3360 C.3       1 FAD500      0.0000 
     47 O4'        31.4620    8.0890  -11.4080 O.3       1 FAD500      0.0000 
     48 C5'        30.5190    5.8910  -11.6670 C.3       1 FAD500      0.0000 
     49 O5'        29.8230    6.1150  -10.4340 O.3       1 FAD500      0.0000 
     50 P          29.4000    4.8400   -9.5940 P.3       1 FAD500      0.0000 
     51 O1P        28.8340    5.3990   -8.3790 O.co2     1 FAD500      0.0000 
     52 O2P        28.5410    3.8880  -10.3900 O.co2     1 FAD500      0.0000 
     53 O3P        30.7610    3.9480   -9.4020 O.3       1 FAD500      0.0000 
@<TRIPOS>BOND
     1    1    2 ar   
     2    1    3 ar   
     3    1    4 1    
     4    1   53 1    
     5    4    5 1    
     6    5    6 1    
     7    6    7 1    
     8    6    8 1    
     9    7   12 1    
    10    8    9 1    
    11    8   10 1    
    12   10   11 1    
    13   10   12 1    
    14   12   13 1    
    15   13   14 1    
    16   13   22 1    
    17   14   15 2    
    18   15   16 1    
    19   16   17 ar   
    20   16   22 ar   
    21   17   18 1    
    22   17   19 ar   
    23   19   20 ar   
    24   20   21 ar   
    25   21   22 ar   
    26   23   24 1    
    27   23   40 2    
    28   24   25 2    
    29   24   26 am   
    30   26   27 am   
    31   27   28 2    
    32   27   29 1    
    33   29   30 2    
    34   29   40 1    
    35   30   31 1    
    36   31   32 ar   
    37   31   38 ar   
    38   32   33 ar   
    39   33   34 1    
    40   33   35 ar   
    41   35   36 1    
    42   35   37 ar   
    43   37   38 ar   
    44   38   39 1    
    45   39   40 1    
    46   39   41 1    
    47   41   42 1    
    48   42   43 1    
    49   42   44 1    
    50   44   45 1    
    51   44   46 1    
    52   46   47 1    
    53   46   48 1    
    54   48   49 1    
    55   49   50 1    
    56   50   51 ar   
    57   50   52 ar   
    58   50   53 1    
@<TRIPOS>SUBSTRUCTURE
     1 FAD500      1 GROUP   
@<TRIPOS>SET
ATOM$ORANGE STATIC     ATOMS   COLORGROUP SYSTEM 
54 5 5 6 6 8 8 10 10 12 12 14 14 16 16 17 17 20 \
20 22 22 24 24 27 27 29 29 31 31 32 32 33 33 34 34 35 \
35 36 36 37 37 38 38 40 40 41 41 42 42 44 44 46 46 48 \
48 

