#    Name: 5win_1_SKE
#    Modification time : Fri May 22 19:13:15 2020

@<TRIPOS>MOLECULE
5win_1_SKE
   39    41     1     0     0
SMALL
NO_CHARGES


@<TRIPOS>ATOM
      1 S          -4.2940  -10.9370    5.8560 S.o2      1 SKE901      0.0000 
      2 C1         -1.2330   -5.0490    0.1550 C.2       1 SKE901      0.0000 
      3 F1         -3.5320   -8.2830   -0.5130 F         1 SKE901      0.0000 
      4 N1         -0.6330   -4.2090   -0.7880 N.pl3     1 SKE901      0.0000 
      5 O1         -5.5030  -10.5010    6.3300 O.2       1 SKE901      0.0000 
      6 C2         -1.5510   -6.1730    1.9140 C.2       1 SKE901      0.0000 
      7 F2         -5.8490   -4.3800   -1.5660 F         1 SKE901      0.0000 
      8 N2         -0.7400   -5.3480    1.2740 N.2       1 SKE901      0.0000 
      9 O2         -4.8180  -11.9150    5.0270 O.2       1 SKE901      0.0000 
     10 C3         -2.0170   -7.7280    3.7730 C.ar      1 SKE901      0.0000 
     11 N3         -1.2630   -6.6950    3.1830 N.pl3     1 SKE901      0.0000 
     12 O3         -2.9760   -4.9590   -1.9560 O.2       1 SKE901      0.0000 
     13 C4         -2.8480   -8.5150    3.0620 C.ar      1 SKE901      0.0000 
     14 N4         -3.5540  -11.4160    7.2360 N.pl3     1 SKE901      0.0000 
     15 C5         -3.5310   -9.4960    3.6880 C.ar      1 SKE901      0.0000 
     16 N5         -2.5630   -6.3630    1.1530 N.2       1 SKE901      0.0000 
     17 C6         -3.3980   -9.6670    5.0230 C.ar      1 SKE901      0.0000 
     18 N6         -2.3920   -5.6680    0.0540 N.am      1 SKE901      0.0000 
     19 C7         -2.5550   -8.8850    5.7300 C.ar      1 SKE901      0.0000 
     20 C8         -1.8650   -7.9150    5.0950 C.ar      1 SKE901      0.0000 
     21 C9         -3.2590   -5.5920   -1.0590 C.2       1 SKE901      0.0000 
     22 C10        -4.5740   -6.3160   -1.0590 C.ar      1 SKE901      0.0000 
     23 C11        -4.6300   -7.6310   -0.7700 C.ar      1 SKE901      0.0000 
     24 C12        -5.7860   -8.3250   -0.7130 C.ar      1 SKE901      0.0000 
     25 C13        -6.9540   -7.6960   -0.9540 C.ar      1 SKE901      0.0000 
     26 C14        -6.9190   -6.3690   -1.2320 C.ar      1 SKE901      0.0000 
     27 C15        -5.7540   -5.6660   -1.2770 C.ar      1 SKE901      0.0000 
     28 HN1        -0.9910   -3.4510   -0.9770 H         1 SKE901      0.0000 
     29 HN1A        0.0940   -4.4510   -1.1780 H         1 SKE901      0.0000 
     30 HN3        -0.5970   -6.3700    3.6200 H         1 SKE901      0.0000 
     31 H4         -2.9510   -8.4040    2.1480 H         1 SKE901      0.0000 
     32 HN4        -3.8230  -10.9030    7.9120 H         1 SKE901      0.0000 
     33 HN4A       -3.7630  -12.2640    7.4060 H         1 SKE901      0.0000 
     34 H5         -4.1140  -10.0370    3.2060 H         1 SKE901      0.0000 
     35 H7         -2.4580   -9.0060    6.6470 H         1 SKE901      0.0000 
     36 H8         -1.2930   -7.3630    5.5770 H         1 SKE901      0.0000 
     37 H12        -5.7760   -9.2350   -0.5200 H         1 SKE901      0.0000 
     38 H13        -7.7600   -8.1580   -0.9310 H         1 SKE901      0.0000 
     39 H14        -7.7180   -5.9250   -1.4040 H         1 SKE901      0.0000 
@<TRIPOS>BOND
     1    1    5 2    
     2    1    9 2    
     3    1   14 1    
     4    1   17 1    
     5    2    4 1    
     6    2    8 2    
     7    2   18 1    
     8    3   23 1    
     9    6    8 1    
    10    4   28 1    
    11    4   29 1    
    12    6   11 1    
    13    6   16 2    
    14    7   27 1    
    15   10   11 1    
    16   10   13 ar   
    17   10   20 ar   
    18   12   21 2    
    19   11   30 1    
    20   13   15 ar   
    21   15   17 ar   
    22   13   31 1    
    23   14   32 1    
    24   14   33 1    
    25   16   18 1    
    26   15   34 1    
    27   17   19 ar   
    28   18   21 am   
    29   19   20 ar   
    30   21   22 1    
    31   19   35 1    
    32   20   36 1    
    33   22   23 ar   
    34   22   27 ar   
    35   23   24 ar   
    36   24   25 ar   
    37   25   26 ar   
    38   24   37 1    
    39   26   27 ar   
    40   25   38 1    
    41   26   39 1    
@<TRIPOS>SUBSTRUCTURE
     1 SKE901      1 GROUP   
@<TRIPOS>SET

