#    Name: 6v11_4_ADP
#    Modification time : Fri May 22 19:27:04 2020

@<TRIPOS>MOLECULE
6v11_4_ADP
   27    29     1     0     1
SMALL
NO_CHARGES


@<TRIPOS>ATOM
      1 PB        179.4920  127.8410  113.6360 P.3       1 ADP800      0.0000 
      2 O1B       180.7530  127.4500  114.3470 O.co2     1 ADP800      0.0000 
      3 O2B       179.5570  129.1650  112.9200 O.co2     1 ADP800      0.0000 
      4 O3B       178.2400  127.6220  114.4430 O.co2     1 ADP800      0.0000 
      5 PA        179.3870  125.2100  112.7100 P.3       1 ADP800      0.0000 
      6 O1A       180.7110  124.7840  113.2740 O.co2     1 ADP800      0.0000 
      7 O2A       178.1310  124.8650  113.4630 O.co2     1 ADP800      0.0000 
      8 O3A       179.4160  126.7870  112.4310 O.3       1 ADP800      0.0000 
      9 O5'       179.2820  124.6010  111.2310 O.3       1 ADP800      0.0000 
     10 C5'       180.4490  124.1700  110.5480 C.3       1 ADP800      0.0000 
     11 C4'       180.0450  123.2330  109.4250 C.3       1 ADP800      0.0000 
     12 O4'       180.9900  123.3190  108.3680 O.3       1 ADP800      0.0000 
     13 C3'       180.0300  121.8010  109.9050 C.3       1 ADP800      0.0000 
     14 O3'       178.6960  121.3000  109.8630 O.3       1 ADP800      0.0000 
     15 C2'       180.9090  121.0250  108.9550 C.3       1 ADP800      0.0000 
     16 O2'       180.1050  120.1360  108.1860 O.3       1 ADP800      0.0000 
     17 C1'       181.5050  122.0410  108.0140 C.3       1 ADP800      0.0000 
     18 N9        182.9670  122.0860  108.2000 N.pl3     1 ADP800      0.0000 
     19 C8        183.6300  122.9420  108.9920 C.2       1 ADP800      0.0000 
     20 N7        184.9670  122.7320  108.9330 N.2       1 ADP800      0.0000 
     21 C5        185.1660  121.7200  108.0770 C.ar      1 ADP800      0.0000 
     22 C6        186.3270  120.9790  107.5480 C.ar      1 ADP800      0.0000 
     23 N6        187.5900  121.2780  107.9230 N.pl3     1 ADP800      0.0000 
     24 N1        186.0970  119.9880  106.6770 N.ar      1 ADP800      0.0000 
     25 C2        184.8540  119.6680  106.3000 C.ar      1 ADP800      0.0000 
     26 N3        183.7560  120.2990  106.7250 N.ar      1 ADP800      0.0000 
     27 C4        183.8470  121.3050  107.6020 C.ar      1 ADP800      0.0000 
@<TRIPOS>BOND
     1    1    2 ar   
     2    1    3 ar   
     3    1    4 ar   
     4    1    8 1    
     5    5    6 ar   
     6    5    7 ar   
     7    5    8 1    
     8    5    9 1    
     9    9   10 1    
    10   10   11 1    
    11   11   12 1    
    12   11   13 1    
    13   12   17 1    
    14   13   14 1    
    15   13   15 1    
    16   15   16 1    
    17   15   17 1    
    18   17   18 1    
    19   18   19 1    
    20   18   27 1    
    21   19   20 2    
    22   20   21 1    
    23   21   22 ar   
    24   21   27 ar   
    25   22   23 1    
    26   22   24 ar   
    27   24   25 ar   
    28   25   26 ar   
    29   26   27 ar   
@<TRIPOS>SUBSTRUCTURE
     1 ADP800      1 GROUP   
@<TRIPOS>SET
ATOM$ORANGE STATIC     ATOMS   COLORGROUP SYSTEM 
20 10 10 11 11 13 13 15 15 17 17 19 19 21 21 22 22 25 \
25 27 27 

