#    Name: 6v11_3_ADP
#    Modification time : Fri May 22 19:26:57 2020

@<TRIPOS>MOLECULE
6v11_3_ADP
   27    29     1     0     1
SMALL
NO_CHARGES


@<TRIPOS>ATOM
      1 PB        149.9180  155.3000  185.2530 P.3       1 ADP800      0.0000 
      2 O1B       149.7150  156.6080  184.5490 O.co2     1 ADP800      0.0000 
      3 O2B       148.6920  154.4290  185.3330 O.co2     1 ADP800      0.0000 
      4 O3B       151.1680  154.6010  184.7970 O.co2     1 ADP800      0.0000 
      5 PA        150.2790  157.2370  187.1980 P.3       1 ADP800      0.0000 
      6 O1A       151.4400  157.8230  186.4520 O.co2     1 ADP800      0.0000 
      7 O2A       148.9020  157.8190  187.0570 O.co2     1 ADP800      0.0000 
      8 O3A       150.2290  155.6930  186.7810 O.3       1 ADP800      0.0000 
      9 O5'       150.6510  157.2870  188.7560 O.3       1 ADP800      0.0000 
     10 C5'       150.7390  158.5790  189.3410 C.3       1 ADP800      0.0000 
     11 C4'       151.5960  158.5940  190.5980 C.3       1 ADP800      0.0000 
     12 O4'       152.2060  159.8770  190.7220 O.3       1 ADP800      0.0000 
     13 C3'       150.7460  158.3940  191.8270 C.3       1 ADP800      0.0000 
     14 O3'       151.4480  157.5380  192.7180 O.3       1 ADP800      0.0000 
     15 C2'       150.6340  159.7610  192.4500 C.3       1 ADP800      0.0000 
     16 O2'       150.7430  159.6830  193.8660 O.3       1 ADP800      0.0000 
     17 C1'       151.8020  160.5450  191.9110 C.3       1 ADP800      0.0000 
     18 N9        151.3220  161.8940  191.5650 N.pl3     1 ADP800      0.0000 
     19 C8        151.1720  162.3940  190.3320 C.2       1 ADP800      0.0000 
     20 N7        150.7050  163.6640  190.3630 N.2       1 ADP800      0.0000 
     21 C5        150.5530  163.9880  191.6470 C.ar      1 ADP800      0.0000 
     22 C6        150.0980  165.1650  192.3930 C.ar      1 ADP800      0.0000 
     23 N6        149.7040  166.2900  191.7720 N.pl3     1 ADP800      0.0000 
     24 N1        150.0900  165.0860  193.7300 N.ar      1 ADP800      0.0000 
     25 C2        150.4800  163.9800  194.3760 C.ar      1 ADP800      0.0000 
     26 N3        150.8940  162.8720  193.7620 N.ar      1 ADP800      0.0000 
     27 C4        150.9540  162.8200  192.4260 C.ar      1 ADP800      0.0000 
@<TRIPOS>BOND
     1    1    2 ar   
     2    1    3 ar   
     3    1    4 ar   
     4    1    8 1    
     5    5    6 ar   
     6    5    7 ar   
     7    5    8 1    
     8    5    9 1    
     9    9   10 1    
    10   10   11 1    
    11   11   12 1    
    12   11   13 1    
    13   12   17 1    
    14   13   14 1    
    15   13   15 1    
    16   15   16 1    
    17   15   17 1    
    18   17   18 1    
    19   18   19 1    
    20   18   27 1    
    21   19   20 2    
    22   20   21 1    
    23   21   22 ar   
    24   21   27 ar   
    25   22   23 1    
    26   22   24 ar   
    27   24   25 ar   
    28   25   26 ar   
    29   26   27 ar   
@<TRIPOS>SUBSTRUCTURE
     1 ADP800      1 GROUP   
@<TRIPOS>SET
ATOM$ORANGE STATIC     ATOMS   COLORGROUP SYSTEM 
20 10 10 11 11 13 13 15 15 17 17 19 19 21 21 22 22 25 \
25 27 27 

