#    Name: 6v11_1_ADP
#    Modification time : Fri May 22 19:26:36 2020

@<TRIPOS>MOLECULE
6v11_1_ADP
   27    29     1     0     1
SMALL
NO_CHARGES


@<TRIPOS>ATOM
      1 PB        124.5260  153.1440  128.3000 P.3       1 ADP800      0.0000 
      2 O1B       124.2120  153.2090  129.7690 O.co2     1 ADP800      0.0000 
      3 O2B       125.6020  154.0870  127.8380 O.co2     1 ADP800      0.0000 
      4 O3B       124.7000  151.7340  127.8260 O.co2     1 ADP800      0.0000 
      5 PA        121.7720  153.0660  127.7520 P.3       1 ADP800      0.0000 
      6 O1A       121.1060  152.8030  126.4350 O.co2     1 ADP800      0.0000 
      7 O2A       121.8720  151.9650  128.7690 O.co2     1 ADP800      0.0000 
      8 O3A       123.2270  153.7030  127.5320 O.3       1 ADP800      0.0000 
      9 O5'       120.9030  154.2640  128.3490 O.3       1 ADP800      0.0000 
     10 C5'       119.5520  153.9640  128.6550 C.3       1 ADP800      0.0000 
     11 C4'       118.5830  154.9330  128.0050 C.3       1 ADP800      0.0000 
     12 O4'       118.9850  155.3190  126.6970 O.3       1 ADP800      0.0000 
     13 C3'       117.2570  154.2270  127.8330 C.3       1 ADP800      0.0000 
     14 O3'       116.2380  155.0460  128.3940 O.3       1 ADP800      0.0000 
     15 C2'       117.0320  154.1790  126.3510 C.3       1 ADP800      0.0000 
     16 O2'       115.6570  154.3710  126.0470 O.3       1 ADP800      0.0000 
     17 C1'       117.8050  155.3830  125.9110 C.3       1 ADP800      0.0000 
     18 N9        118.1080  155.3390  124.4780 N.pl3     1 ADP800      0.0000 
     19 C8        119.3270  155.3090  123.9450 C.2       1 ADP800      0.0000 
     20 N7        119.2740  155.2960  122.5940 N.2       1 ADP800      0.0000 
     21 C5        117.9870  155.3310  122.2540 C.ar      1 ADP800      0.0000 
     22 C6        117.2380  155.3410  120.9950 C.ar      1 ADP800      0.0000 
     23 N6        117.8680  155.3110  119.8080 N.pl3     1 ADP800      0.0000 
     24 N1        115.9070  155.3830  121.0670 N.ar      1 ADP800      0.0000 
     25 C2        115.2730  155.4100  122.2450 C.ar      1 ADP800      0.0000 
     26 N3        115.8920  155.4030  123.4290 N.ar      1 ADP800      0.0000 
     27 C4        117.2270  155.3660  123.4970 C.ar      1 ADP800      0.0000 
@<TRIPOS>BOND
     1    1    2 ar   
     2    1    3 ar   
     3    1    4 ar   
     4    1    8 1    
     5    5    6 ar   
     6    5    7 ar   
     7    5    8 1    
     8    5    9 1    
     9    9   10 1    
    10   10   11 1    
    11   11   12 1    
    12   11   13 1    
    13   12   17 1    
    14   13   14 1    
    15   13   15 1    
    16   15   16 1    
    17   15   17 1    
    18   17   18 1    
    19   18   19 1    
    20   18   27 1    
    21   19   20 2    
    22   20   21 1    
    23   21   22 ar   
    24   21   27 ar   
    25   22   23 1    
    26   22   24 ar   
    27   24   25 ar   
    28   25   26 ar   
    29   26   27 ar   
@<TRIPOS>SUBSTRUCTURE
     1 ADP800      1 GROUP   
@<TRIPOS>SET
ATOM$ORANGE STATIC     ATOMS   COLORGROUP SYSTEM 
20 10 10 11 11 13 13 15 15 17 17 19 19 21 21 22 22 25 \
25 27 27 

