#    Name: 6v11_2_ADP
#    Modification time : Fri May 22 19:26:43 2020

@<TRIPOS>MOLECULE
6v11_2_ADP
   27    29     1     0     1
SMALL
NO_CHARGES


@<TRIPOS>ATOM
      1 PB        128.4420  163.8600  160.6390 P.3       1 ADP800      0.0000 
      2 O1B       128.3530  164.4050  159.2470 O.co2     1 ADP800      0.0000 
      3 O2B       129.8410  163.5470  161.0780 O.co2     1 ADP800      0.0000 
      4 O3B       127.4480  162.7880  160.9750 O.co2     1 ADP800      0.0000 
      5 PA        126.7250  165.9670  161.1240 P.3       1 ADP800      0.0000 
      6 O1A       127.1020  166.9110  160.0220 O.co2     1 ADP800      0.0000 
      7 O2A       125.5720  165.0270  160.9650 O.co2     1 ADP800      0.0000 
      8 O3A       128.0070  165.1090  161.5350 O.3       1 ADP800      0.0000 
      9 O5'       126.4700  166.8160  162.4520 O.3       1 ADP800      0.0000 
     10 C5'       125.1430  166.9860  162.9190 C.3       1 ADP800      0.0000 
     11 C4'       125.0910  168.0460  164.0080 C.3       1 ADP800      0.0000 
     12 O4'       124.9310  169.3490  163.4520 O.3       1 ADP800      0.0000 
     13 C3'       123.8730  167.8250  164.8630 C.3       1 ADP800      0.0000 
     14 O3'       124.2610  168.0550  166.2100 O.3       1 ADP800      0.0000 
     15 C2'       122.9030  168.9090  164.4840 C.3       1 ADP800      0.0000 
     16 O2'       122.1750  169.3300  165.6320 O.3       1 ADP800      0.0000 
     17 C1'       123.7940  170.0180  164.0000 C.3       1 ADP800      0.0000 
     18 N9        123.1500  170.7810  162.9140 N.pl3     1 ADP800      0.0000 
     19 C8        123.7080  170.9560  161.7170 C.2       1 ADP800      0.0000 
     20 N7        122.9390  171.6990  160.9000 N.2       1 ADP800      0.0000 
     21 C5        121.8550  172.0180  161.5840 C.ar      1 ADP800      0.0000 
     22 C6        120.6510  172.7830  161.2800 C.ar      1 ADP800      0.0000 
     23 N6        120.4770  173.3560  160.0750 N.pl3     1 ADP800      0.0000 
     24 N1        119.7390  172.8970  162.2490 N.ar      1 ADP800      0.0000 
     25 C2        119.9180  172.3280  163.4460 C.ar      1 ADP800      0.0000 
     26 N3        120.9940  171.6070  163.7850 N.ar      1 ADP800      0.0000 
     27 C4        121.9890  171.4200  162.9100 C.ar      1 ADP800      0.0000 
@<TRIPOS>BOND
     1    1    2 ar   
     2    1    3 ar   
     3    1    4 ar   
     4    1    8 1    
     5    5    6 ar   
     6    5    7 ar   
     7    5    8 1    
     8    5    9 1    
     9    9   10 1    
    10   10   11 1    
    11   11   12 1    
    12   11   13 1    
    13   12   17 1    
    14   13   14 1    
    15   13   15 1    
    16   15   16 1    
    17   15   17 1    
    18   17   18 1    
    19   18   19 1    
    20   18   27 1    
    21   19   20 2    
    22   20   21 1    
    23   21   22 ar   
    24   21   27 ar   
    25   22   23 1    
    26   22   24 ar   
    27   24   25 ar   
    28   25   26 ar   
    29   26   27 ar   
@<TRIPOS>SUBSTRUCTURE
     1 ADP800      1 GROUP   
@<TRIPOS>SET
ATOM$ORANGE STATIC     ATOMS   COLORGROUP SYSTEM 
20 10 10 11 11 13 13 15 15 17 17 19 19 21 21 22 22 25 \
25 27 27 

