#    Name: 6v11_5_ADP
#    Modification time : Fri May 22 19:27:11 2020

@<TRIPOS>MOLECULE
6v11_5_ADP
   27    29     1     0     1
SMALL
NO_CHARGES


@<TRIPOS>ATOM
      1 PB        146.1310  133.6790  109.9030 P.3       1 ADP800      0.0000 
      2 O1B       147.0330  134.5070  109.0250 O.co2     1 ADP800      0.0000 
      3 O2B       145.5400  134.4380  111.0590 O.co2     1 ADP800      0.0000 
      4 O3B       146.6800  132.3290  110.2620 O.co2     1 ADP800      0.0000 
      5 PA        145.1730  133.0640  107.4310 P.3       1 ADP800      0.0000 
      6 O1A       145.2740  134.4110  106.7870 O.co2     1 ADP800      0.0000 
      7 O2A       146.3170  132.0990  107.3430 O.co2     1 ADP800      0.0000 
      8 O3A       144.8750  133.3180  108.9760 O.3       1 ADP800      0.0000 
      9 O5'       143.8740  132.3600  106.8190 O.3       1 ADP800      0.0000 
     10 C5'       143.8860  132.1710  105.4120 C.3       1 ADP800      0.0000 
     11 C4'       142.5040  132.3990  104.8320 C.3       1 ADP800      0.0000 
     12 O4'       142.6180  132.8750  103.4980 O.3       1 ADP800      0.0000 
     13 C3'       141.7060  131.1250  104.7770 C.3       1 ADP800      0.0000 
     14 O3'       140.4230  131.3960  105.3230 O.3       1 ADP800      0.0000 
     15 C2'       141.5210  130.8200  103.3180 C.3       1 ADP800      0.0000 
     16 O2'       140.1510  130.5350  103.0650 O.3       1 ADP800      0.0000 
     17 C1'       141.8900  132.0750  102.5800 C.3       1 ADP800      0.0000 
     18 N9        142.8250  131.7550  101.4960 N.pl3     1 ADP800      0.0000 
     19 C8        144.0380  132.2920  101.3980 C.2       1 ADP800      0.0000 
     20 N7        144.6990  131.8500  100.3090 N.2       1 ADP800      0.0000 
     21 C5        143.8880  131.0060   99.6870 C.ar      1 ADP800      0.0000 
     22 C6        143.9810  130.1890   98.4780 C.ar      1 ADP800      0.0000 
     23 N6        145.0840  130.1980   97.7120 N.pl3     1 ADP800      0.0000 
     24 N1        142.9340  129.4330   98.1550 N.ar      1 ADP800      0.0000 
     25 C2        141.8350  129.4200   98.9170 C.ar      1 ADP800      0.0000 
     26 N3        141.6800  130.1400  100.0340 N.ar      1 ADP800      0.0000 
     27 C4        142.6560  130.9470  100.4650 C.ar      1 ADP800      0.0000 
@<TRIPOS>BOND
     1    1    2 ar   
     2    1    3 ar   
     3    1    4 ar   
     4    1    8 1    
     5    5    6 ar   
     6    5    7 ar   
     7    5    8 1    
     8    5    9 1    
     9    9   10 1    
    10   10   11 1    
    11   11   12 1    
    12   11   13 1    
    13   12   17 1    
    14   13   14 1    
    15   13   15 1    
    16   15   16 1    
    17   15   17 1    
    18   17   18 1    
    19   18   19 1    
    20   18   27 1    
    21   19   20 2    
    22   20   21 1    
    23   21   22 ar   
    24   21   27 ar   
    25   22   23 1    
    26   22   24 ar   
    27   24   25 ar   
    28   25   26 ar   
    29   26   27 ar   
@<TRIPOS>SUBSTRUCTURE
     1 ADP800      1 GROUP   
@<TRIPOS>SET
ATOM$ORANGE STATIC     ATOMS   COLORGROUP SYSTEM 
20 10 10 11 11 13 13 15 15 17 17 19 19 21 21 22 22 25 \
25 27 27 

