#    Name: 5ois_3_NAD
#    Modification time : Fri May 22 19:12:56 2020

@<TRIPOS>MOLECULE
5ois_3_NAD
   44    48     1     0     1
SMALL
NO_CHARGES


@<TRIPOS>ATOM
      1 PA        -19.0810   81.1860  -76.6920 P.3       1 NAD302      0.0000 
      2 O1A       -19.1400   82.5510  -77.2710 O.co2     1 NAD302      0.0000 
      3 O2A       -20.0890   80.2670  -77.3490 O.co2     1 NAD302      0.0000 
      4 O5B       -19.2740   81.1080  -75.1090 O.3       1 NAD302      0.0000 
      5 C5B       -18.9900   82.0840  -74.0830 C.3       1 NAD302      0.0000 
      6 C4B       -20.1660   82.0830  -73.1400 C.3       1 NAD302      0.0000 
      7 O4B       -19.9340   82.9690  -72.0120 O.3       1 NAD302      0.0000 
      8 C3B       -21.4970   82.5160  -73.7880 C.3       1 NAD302      0.0000 
      9 O3B       -22.5150   81.5230  -73.7140 O.3       1 NAD302      0.0000 
     10 C2B       -21.8620   83.7930  -73.0250 C.3       1 NAD302      0.0000 
     11 O2B       -23.2620   84.0310  -72.9140 O.3       1 NAD302      0.0000 
     12 C1B       -21.1840   83.5310  -71.6820 C.3       1 NAD302      0.0000 
     13 N9A       -21.0230   84.7390  -70.8850 N.pl3     1 NAD302      0.0000 
     14 C8A       -20.3370   85.8800  -71.2120 C.2       1 NAD302      0.0000 
     15 N7A       -20.4090   86.8260  -70.3060 N.2       1 NAD302      0.0000 
     16 C5A       -21.1950   86.2660  -69.3090 C.ar      1 NAD302      0.0000 
     17 C6A       -21.6580   86.7610  -68.0720 C.ar      1 NAD302      0.0000 
     18 N6A       -21.3890   87.9870  -67.6140 N.pl3     1 NAD302      0.0000 
     19 N1A       -22.4260   85.9420  -67.3140 N.ar      1 NAD302      0.0000 
     20 C2A       -22.7090   84.7160  -67.7720 C.ar      1 NAD302      0.0000 
     21 N3A       -22.3340   84.1440  -68.9210 N.ar      1 NAD302      0.0000 
     22 C4A       -21.5760   84.9770  -69.6490 C.ar      1 NAD302      0.0000 
     23 O3        -17.6510   80.5280  -76.9450 O.3       1 NAD302      0.0000 
     24 PN        -16.8910   79.1980  -76.4910 P.3       1 NAD302      0.0000 
     25 O1N       -17.8160   78.0400  -76.4600 O.co2     1 NAD302      0.0000 
     26 O2N       -15.6240   79.0930  -77.2470 O.co2     1 NAD302      0.0000 
     27 O5D       -16.4960   79.5630  -74.9890 O.3       1 NAD302      0.0000 
     28 C5D       -16.7620   78.6310  -73.9160 C.3       1 NAD302      0.0000 
     29 C4D       -15.5750   78.5160  -72.9900 C.3       1 NAD302      0.0000 
     30 O4D       -14.4920   77.7690  -73.6040 O.3       1 NAD302      0.0000 
     31 C3D       -14.9590   79.8380  -72.5440 C.3       1 NAD302      0.0000 
     32 O3D       -14.5340   79.6220  -71.2070 O.3       1 NAD302      0.0000 
     33 C2D       -13.7620   79.9700  -73.4880 C.3       1 NAD302      0.0000 
     34 O2D       -12.7570   80.8320  -72.9920 O.3       1 NAD302      0.0000 
     35 C1D       -13.3080   78.5190  -73.5090 C.3       1 NAD302      0.0000 
     36 N1N       -12.3670   78.1110  -74.6530 N.pl3     1 NAD302      0.0000 
     37 C2N       -12.5950   78.4200  -75.9440 C.ar      1 NAD302      0.0000 
     38 C3N       -11.7020   78.0240  -76.9230 C.ar      1 NAD302      0.0000 
     39 C7N       -11.9710   78.3770  -78.3640 C.2       1 NAD302      0.0000 
     40 O7N       -11.0170   78.5370  -79.1500 O.2       1 NAD302      0.0000 
     41 N7N       -13.2300   78.5040  -78.7410 N.am      1 NAD302      0.0000 
     42 C4N       -10.5710   77.3040  -76.5430 C.ar      1 NAD302      0.0000 
     43 C5N       -10.3620   76.9980  -75.2080 C.ar      1 NAD302      0.0000 
     44 C6N       -11.2800   77.4130  -74.2640 C.ar      1 NAD302      0.0000 
@<TRIPOS>BOND
     1    1    2 ar   
     2    1    3 ar   
     3    1    4 1    
     4    1   23 1    
     5    4    5 1    
     6    5    6 1    
     7    6    7 1    
     8    6    8 1    
     9    7   12 1    
    10    8    9 1    
    11    8   10 1    
    12   10   11 1    
    13   10   12 1    
    14   12   13 1    
    15   13   14 1    
    16   13   22 1    
    17   14   15 2    
    18   15   16 1    
    19   16   17 ar   
    20   16   22 ar   
    21   17   18 1    
    22   17   19 ar   
    23   19   20 ar   
    24   20   21 ar   
    25   21   22 ar   
    26   23   24 1    
    27   24   25 ar   
    28   24   26 ar   
    29   24   27 1    
    30   27   28 1    
    31   28   29 1    
    32   29   30 1    
    33   29   31 1    
    34   30   35 1    
    35   31   32 1    
    36   31   33 1    
    37   33   34 1    
    38   33   35 1    
    39   35   36 1    
    40   36   37 ar   
    41   36   44 ar   
    42   37   38 ar   
    43   38   39 1    
    44   38   42 ar   
    45   39   40 2    
    46   39   41 am   
    47   42   43 ar   
    48   43   44 ar   
@<TRIPOS>SUBSTRUCTURE
     1 NAD302      1 GROUP   
@<TRIPOS>SET
ATOM$ORANGE STATIC     ATOMS   COLORGROUP SYSTEM 
42 5 5 6 6 8 8 10 10 12 12 14 14 16 16 17 17 20 \
20 22 22 28 28 29 29 31 31 33 33 35 35 37 37 38 38 39 \
39 42 42 43 43 44 44 

