#    Name: 5ois_2_NAD
#    Modification time : Fri May 22 19:12:51 2020

@<TRIPOS>MOLECULE
5ois_2_NAD
   44    48     1     0     1
SMALL
NO_CHARGES


@<TRIPOS>ATOM
      1 PA          4.4020   45.6870  -59.3720 P.3       1 NAD302      0.0000 
      2 O1A         5.6100   45.1840  -58.6650 O.co2     1 NAD302      0.0000 
      3 O2A         3.1600   44.9140  -58.9230 O.co2     1 NAD302      0.0000 
      4 O5B         4.4470   45.6910  -60.9890 O.3       1 NAD302      0.0000 
      5 C5B         5.6360   45.8370  -61.7860 C.3       1 NAD302      0.0000 
      6 C4B         5.6100   44.7950  -62.8740 C.3       1 NAD302      0.0000 
      7 O4B         6.7710   44.9510  -63.7210 O.3       1 NAD302      0.0000 
      8 C3B         5.6080   43.3250  -62.4090 C.3       1 NAD302      0.0000 
      9 O3B         4.4540   42.6110  -62.8400 O.3       1 NAD302      0.0000 
     10 C2B         6.8680   42.7430  -63.0550 C.3       1 NAD302      0.0000 
     11 O2B         6.7260   41.3830  -63.4570 O.3       1 NAD302      0.0000 
     12 C1B         7.0410   43.6770  -64.2460 C.3       1 NAD302      0.0000 
     13 N9A         8.3680   43.6170  -64.8520 N.pl3     1 NAD302      0.0000 
     14 C8A         9.5730   43.8990  -64.2620 C.2       1 NAD302      0.0000 
     15 N7A        10.6110   43.6910  -65.0370 N.2       1 NAD302      0.0000 
     16 C5A        10.0500   43.2420  -66.2230 C.ar      1 NAD302      0.0000 
     17 C6A        10.6180   42.8220  -67.4460 C.ar      1 NAD302      0.0000 
     18 N6A        11.9350   42.7660  -67.6790 N.pl3     1 NAD302      0.0000 
     19 N1A         9.7760   42.4310  -68.4280 N.ar      1 NAD302      0.0000 
     20 C2A         8.4570   42.4570  -68.1950 C.ar      1 NAD302      0.0000 
     21 N3A         7.8070   42.8210  -67.0840 N.ar      1 NAD302      0.0000 
     22 C4A         8.6660   43.2020  -66.1270 C.ar      1 NAD302      0.0000 
     23 O3          4.2100   47.2290  -59.0210 O.3       1 NAD302      0.0000 
     24 PN          3.1980   48.3830  -59.4630 P.3       1 NAD302      0.0000 
     25 O1N         1.8890   47.7900  -59.8240 O.co2     1 NAD302      0.0000 
     26 O2N         3.2390   49.4260  -58.4140 O.co2     1 NAD302      0.0000 
     27 O5D         3.9500   48.9100  -60.7670 O.3       1 NAD302      0.0000 
     28 C5D         3.3010   49.0160  -62.0550 C.3       1 NAD302      0.0000 
     29 C4D         3.7160   50.3140  -62.6930 C.3       1 NAD302      0.0000 
     30 O4D         3.1930   51.4200  -61.9180 O.3       1 NAD302      0.0000 
     31 C3D         5.2310   50.5380  -62.7690 C.3       1 NAD302      0.0000 
     32 O3D         5.6060   51.2080  -63.9690 O.3       1 NAD302      0.0000 
     33 C2D         5.4910   51.4550  -61.5780 C.3       1 NAD302      0.0000 
     34 O2D         6.7170   52.1530  -61.7570 O.3       1 NAD302      0.0000 
     35 C1D         4.2400   52.3170  -61.6720 C.3       1 NAD302      0.0000 
     36 N1N         3.8890   53.1480  -60.4920 N.pl3     1 NAD302      0.0000 
     37 C2N         3.8490   52.6980  -59.2230 C.ar      1 NAD302      0.0000 
     38 C3N         3.5110   53.5570  -58.1910 C.ar      1 NAD302      0.0000 
     39 C7N         3.4680   53.0410  -56.7770 C.2       1 NAD302      0.0000 
     40 O7N         3.7570   53.8120  -55.8240 O.2       1 NAD302      0.0000 
     41 N7N         3.1220   51.7840  -56.5970 N.am      1 NAD302      0.0000 
     42 C4N         3.2170   54.8890  -58.4960 C.ar      1 NAD302      0.0000 
     43 C5N         3.2660   55.3210  -59.8140 C.ar      1 NAD302      0.0000 
     44 C6N         3.6070   54.4260  -60.8130 C.ar      1 NAD302      0.0000 
@<TRIPOS>BOND
     1    1    2 ar   
     2    1    3 ar   
     3    1    4 1    
     4    1   23 1    
     5    4    5 1    
     6    5    6 1    
     7    6    7 1    
     8    6    8 1    
     9    7   12 1    
    10    8    9 1    
    11    8   10 1    
    12   10   11 1    
    13   10   12 1    
    14   12   13 1    
    15   13   14 1    
    16   13   22 1    
    17   14   15 2    
    18   15   16 1    
    19   16   17 ar   
    20   16   22 ar   
    21   17   18 1    
    22   17   19 ar   
    23   19   20 ar   
    24   20   21 ar   
    25   21   22 ar   
    26   23   24 1    
    27   24   25 ar   
    28   24   26 ar   
    29   24   27 1    
    30   27   28 1    
    31   28   29 1    
    32   29   30 1    
    33   29   31 1    
    34   30   35 1    
    35   31   32 1    
    36   31   33 1    
    37   33   34 1    
    38   33   35 1    
    39   35   36 1    
    40   36   37 ar   
    41   36   44 ar   
    42   37   38 ar   
    43   38   39 1    
    44   38   42 ar   
    45   39   40 2    
    46   39   41 am   
    47   42   43 ar   
    48   43   44 ar   
@<TRIPOS>SUBSTRUCTURE
     1 NAD302      1 GROUP   
@<TRIPOS>SET
ATOM$ORANGE STATIC     ATOMS   COLORGROUP SYSTEM 
42 5 5 6 6 8 8 10 10 12 12 14 14 16 16 17 17 20 \
20 22 22 28 28 29 29 31 31 33 33 35 35 37 37 38 38 39 \
39 42 42 43 43 44 44 

