#    Name: 5ois_4_NAD
#    Modification time : Fri May 22 19:13:02 2020

@<TRIPOS>MOLECULE
5ois_4_NAD
   44    48     1     0     1
SMALL
NO_CHARGES


@<TRIPOS>ATOM
      1 PA         30.3570   69.2790  -78.4400 P.3       1 NAD302      0.0000 
      2 O1A        30.4390   68.1600  -79.4100 O.co2     1 NAD302      0.0000 
      3 O2A        31.3650   70.3650  -78.8090 O.co2     1 NAD302      0.0000 
      4 O5B        30.5880   68.8690  -76.9270 O.3       1 NAD302      0.0000 
      5 C5B        30.2020   67.6410  -76.2640 C.3       1 NAD302      0.0000 
      6 C4B        31.4010   67.1210  -75.5160 C.3       1 NAD302      0.0000 
      7 O4B        31.1200   65.8350  -74.9250 O.3       1 NAD302      0.0000 
      8 C3B        32.6780   66.9390  -76.3600 C.3       1 NAD302      0.0000 
      9 O3B        33.7090   67.8210  -75.9330 O.3       1 NAD302      0.0000 
     10 C2B        33.0910   65.4860  -76.0950 C.3       1 NAD302      0.0000 
     11 O2B        34.5010   65.3250  -75.9560 O.3       1 NAD302      0.0000 
     12 C1B        32.3710   65.2090  -74.7820 C.3       1 NAD302      0.0000 
     13 N9A        32.2220   63.7920  -74.4810 N.pl3     1 NAD302      0.0000 
     14 C8A        31.5900   62.8270  -75.2210 C.2       1 NAD302      0.0000 
     15 N7A        31.6590   61.6240  -74.7050 N.2       1 NAD302      0.0000 
     16 C5A        32.3870   61.8090  -73.5390 C.ar      1 NAD302      0.0000 
     17 C6A        32.8200   60.9180  -72.5370 C.ar      1 NAD302      0.0000 
     18 N6A        32.5810   59.6020  -72.5560 N.pl3     1 NAD302      0.0000 
     19 N1A        33.5280   61.4300  -71.5040 N.ar      1 NAD302      0.0000 
     20 C2A        33.7840   62.7430  -71.4850 C.ar      1 NAD302      0.0000 
     21 N3A        33.4350   63.6790  -72.3720 N.ar      1 NAD302      0.0000 
     22 C4A        32.7360   63.1420  -73.3840 C.ar      1 NAD302      0.0000 
     23 O3         28.9040   69.9380  -78.4290 O.3       1 NAD302      0.0000 
     24 PN         28.1400   71.0310  -77.5410 P.3       1 NAD302      0.0000 
     25 O1N        29.0700   72.0930  -77.0920 O.co2     1 NAD302      0.0000 
     26 O2N        26.9050   71.4160  -78.2610 O.co2     1 NAD302      0.0000 
     27 O5D        27.7190   70.1600  -76.2750 O.3       1 NAD302      0.0000 
     28 C5D        27.9670   70.5980  -74.9210 C.3       1 NAD302      0.0000 
     29 C4D        26.7420   70.3420  -74.0750 C.3       1 NAD302      0.0000 
     30 O4D        25.6840   71.2680  -74.4320 O.3       1 NAD302      0.0000 
     31 C3D        26.1400   68.9400  -74.2190 C.3       1 NAD302      0.0000 
     32 O3D        25.7190   68.4420  -72.9540 O.3       1 NAD302      0.0000 
     33 C2D        24.9730   69.1830  -75.1800 C.3       1 NAD302      0.0000 
     34 O2D        23.9870   68.1640  -75.1140 O.3       1 NAD302      0.0000 
     35 C1D        24.5090   70.5400  -74.6700 C.3       1 NAD302      0.0000 
     36 N1N        23.6090   71.3530  -75.6050 N.pl3     1 NAD302      0.0000 
     37 C2N        23.8630   71.5250  -76.9150 C.ar      1 NAD302      0.0000 
     38 C3N        23.0040   72.2760  -77.7010 C.ar      1 NAD302      0.0000 
     39 C7N        23.3020   72.4760  -79.1590 C.2       1 NAD302      0.0000 
     40 O7N        22.3740   72.7370  -79.9450 O.2       1 NAD302      0.0000 
     41 N7N        24.5640   72.3660  -79.5550 N.am      1 NAD302      0.0000 
     42 C4N        21.8770   72.8400  -77.1040 C.ar      1 NAD302      0.0000 
     43 C5N        21.6400   72.6470  -75.7510 C.ar      1 NAD302      0.0000 
     44 C6N        22.5260   71.8920  -75.0060 C.ar      1 NAD302      0.0000 
@<TRIPOS>BOND
     1    1    2 ar   
     2    1    3 ar   
     3    1    4 1    
     4    1   23 1    
     5    4    5 1    
     6    5    6 1    
     7    6    7 1    
     8    6    8 1    
     9    7   12 1    
    10    8    9 1    
    11    8   10 1    
    12   10   11 1    
    13   10   12 1    
    14   12   13 1    
    15   13   14 1    
    16   13   22 1    
    17   14   15 2    
    18   15   16 1    
    19   16   17 ar   
    20   16   22 ar   
    21   17   18 1    
    22   17   19 ar   
    23   19   20 ar   
    24   20   21 ar   
    25   21   22 ar   
    26   23   24 1    
    27   24   25 ar   
    28   24   26 ar   
    29   24   27 1    
    30   27   28 1    
    31   28   29 1    
    32   29   30 1    
    33   29   31 1    
    34   30   35 1    
    35   31   32 1    
    36   31   33 1    
    37   33   34 1    
    38   33   35 1    
    39   35   36 1    
    40   36   37 ar   
    41   36   44 ar   
    42   37   38 ar   
    43   38   39 1    
    44   38   42 ar   
    45   39   40 2    
    46   39   41 am   
    47   42   43 ar   
    48   43   44 ar   
@<TRIPOS>SUBSTRUCTURE
     1 NAD302      1 GROUP   
@<TRIPOS>SET
ATOM$ORANGE STATIC     ATOMS   COLORGROUP SYSTEM 
42 5 5 6 6 8 8 10 10 12 12 14 14 16 16 17 17 20 \
20 22 22 28 28 29 29 31 31 33 33 35 35 37 37 38 38 39 \
39 42 42 43 43 44 44 

