#    Name: 6h1o_1_VOR
#    Modification time : Fri May 22 19:24:28 2020

@<TRIPOS>MOLECULE
6h1o_1_VOR
   25    27     1     0     0
SMALL
NO_CHARGES


@<TRIPOS>ATOM
      1 F1          3.4550  -16.1910   28.4830 F         1 VOR502      0.0000 
      2 F2          8.4960  -17.8640   24.9750 F         1 VOR502      0.0000 
      3 F3          5.2610  -18.1270   32.4180 F         1 VOR502      0.0000 
      4 O4          5.9590  -19.0610   26.4160 O.3       1 VOR502      0.0000 
      5 N5          3.1660  -19.2110   26.5980 N.pl3     1 VOR502      0.0000 
      6 N6          7.5630  -15.2330   27.3770 N.ar      1 VOR502      0.0000 
      7 N7          3.2490  -20.4180   25.9990 N.2       1 VOR502      0.0000 
      8 N8          1.9330  -20.5940   27.6860 N.2       1 VOR502      0.0000 
      9 N9          9.8560  -15.4640   26.9860 N.ar      1 VOR502      0.0000 
     10 C10         5.2560  -17.8830   26.7600 C.3       1 VOR502      0.0000 
     11 C11         5.9100  -16.6410   26.1130 C.3       1 VOR502      0.0000 
     12 C12         3.8280  -17.9720   26.2080 C.3       1 VOR502      0.0000 
     13 C13         5.1990  -17.8670   28.2880 C.ar      1 VOR502      0.0000 
     14 C14         5.0550  -15.3610   26.2060 C.3       1 VOR502      0.0000 
     15 C15         7.3360  -16.2010   26.5170 C.ar      1 VOR502      0.0000 
     16 C16         4.3440  -17.0680   29.0540 C.ar      1 VOR502      0.0000 
     17 C17         6.0600  -18.7690   28.9100 C.ar      1 VOR502      0.0000 
     18 C18         8.3320  -16.8350   25.8820 C.ar      1 VOR502      0.0000 
     19 C19         4.3870  -17.1720   30.4380 C.ar      1 VOR502      0.0000 
     20 C20         6.0980  -18.8560   30.2860 C.ar      1 VOR502      0.0000 
     21 C21         2.3570  -19.3210   27.6320 C.2       1 VOR502      0.0000 
     22 C22         5.2570  -18.0710   31.0460 C.ar      1 VOR502      0.0000 
     23 C23         9.6210  -16.4800   26.1440 C.ar      1 VOR502      0.0000 
     24 C24         8.8420  -14.8420   27.6340 C.ar      1 VOR502      0.0000 
     25 C25         2.4930  -21.2630   26.6710 C.2       1 VOR502      0.0000 
@<TRIPOS>BOND
     1    1   16 1    
     2    2   18 1    
     3    3   22 1    
     4    4   10 1    
     5    5    7 1    
     6    5   12 1    
     7    5   21 1    
     8    6   15 ar   
     9    6   24 ar   
    10    7   25 2    
    11    8   21 2    
    12    8   25 1    
    13    9   23 ar   
    14    9   24 ar   
    15   10   11 1    
    16   10   12 1    
    17   10   13 1    
    18   11   14 1    
    19   11   15 1    
    20   13   16 ar   
    21   13   17 ar   
    22   15   18 ar   
    23   16   19 ar   
    24   17   20 ar   
    25   18   23 ar   
    26   19   22 ar   
    27   20   22 ar   
@<TRIPOS>SUBSTRUCTURE
     1 VOR502      1 GROUP   
@<TRIPOS>SET

