#    Name: 6h1o_2_VOR
#    Modification time : Fri May 22 19:24:34 2020

@<TRIPOS>MOLECULE
6h1o_2_VOR
   25    27     1     0     0
SMALL
NO_CHARGES


@<TRIPOS>ATOM
      1 F1         41.0280    8.9010   55.8130 F         1 VOR502      0.0000 
      2 F2         36.6970   12.1040   52.6180 F         1 VOR502      0.0000 
      3 F3         40.3670   11.1590   59.8590 F         1 VOR502      0.0000 
      4 O4         39.3790   12.4720   53.9240 O.3       1 VOR502      0.0000 
      5 N5         42.1710   11.7270   54.0240 N.pl3     1 VOR502      0.0000 
      6 N6         36.8350    9.3270   54.9860 N.ar      1 VOR502      0.0000 
      7 N7         42.9980   11.5660   55.0790 N.2       1 VOR502      0.0000 
      8 N8         43.5120   13.4150   54.0900 N.2       1 VOR502      0.0000 
      9 N9         34.6850   10.2650   54.7630 N.ar      1 VOR502      0.0000 
     10 C10        39.7630   11.1430   54.2300 C.3       1 VOR502      0.0000 
     11 C11        38.7430   10.1890   53.5930 C.3       1 VOR502      0.0000 
     12 C12        41.1130   10.8370   53.5690 C.3       1 VOR502      0.0000 
     13 C13        39.9370   11.0580   55.7480 C.ar      1 VOR502      0.0000 
     14 C14        39.1420    8.7060   53.6300 C.3       1 VOR502      0.0000 
     15 C15        37.2980   10.1830   54.1000 C.ar      1 VOR502      0.0000 
     16 C16        40.5360   10.0090   56.4410 C.ar      1 VOR502      0.0000 
     17 C17        39.4870   12.1710   56.4500 C.ar      1 VOR502      0.0000 
     18 C18        36.5160   11.0720   53.5090 C.ar      1 VOR502      0.0000 
     19 C19        40.6630   10.0720   57.8170 C.ar      1 VOR502      0.0000 
     20 C20        39.6130   12.2310   57.8270 C.ar      1 VOR502      0.0000 
     21 C21        42.5030   12.8530   53.4110 C.2       1 VOR502      0.0000 
     22 C22        40.2120   11.1830   58.5050 C.ar      1 VOR502      0.0000 
     23 C23        35.1990   11.1370   53.8710 C.ar      1 VOR502      0.0000 
     24 C24        35.5210    9.3650   55.3240 C.ar      1 VOR502      0.0000 
     25 C25        43.8090   12.6080   55.1190 C.2       1 VOR502      0.0000 
@<TRIPOS>BOND
     1    1   16 1    
     2    2   18 1    
     3    3   22 1    
     4    4   10 1    
     5    5    7 1    
     6    5   12 1    
     7    5   21 1    
     8    6   15 ar   
     9    6   24 ar   
    10    7   25 2    
    11    8   21 2    
    12    8   25 1    
    13    9   23 ar   
    14    9   24 ar   
    15   10   11 1    
    16   10   12 1    
    17   10   13 1    
    18   11   14 1    
    19   11   15 1    
    20   13   16 ar   
    21   13   17 ar   
    22   15   18 ar   
    23   16   19 ar   
    24   17   20 ar   
    25   18   23 ar   
    26   19   22 ar   
    27   20   22 ar   
@<TRIPOS>SUBSTRUCTURE
     1 VOR502      1 GROUP   
@<TRIPOS>SET

