#    Name: 6n8z_3_ATP
#    Modification time : Fri May 22 19:34:27 2020

@<TRIPOS>MOLECULE
6n8z_3_ATP
   31    32     1     0     1
SMALL
NO_CHARGES


@<TRIPOS>ATOM
      1 PG        147.1180  111.9380  152.0700 P.3       1 ATP1001     0.0000 
      2 O1G       145.4880  112.4170  150.9460 Du        1 ATP1001     0.0000 
      3 O2G       146.8110  112.0450  153.6400 O.co2     1 ATP1001     0.0000 
      4 O3G       148.3490  112.6470  151.7060 O.co2     1 ATP1001     0.0000 
      5 PB        147.9230  109.7280  152.7400 P.3       1 ATP1001     0.0000 
      6 O1B       147.2110  110.2590  153.9290 O.co2     1 ATP1001     0.0000 
      7 O2B       149.4160  109.7060  152.6780 O.co2     1 ATP1001     0.0000 
      8 O3B       147.2930  110.4760  151.5510 O.3       1 ATP1001     0.0000 
      9 PA        148.0510  107.7780  153.9310 P.3       1 ATP1001     0.0000 
     10 O1A       147.3330  108.6610  154.9110 O.co2     1 ATP1001     0.0000 
     11 O2A       149.5450  107.8340  153.8660 O.co2     1 ATP1001     0.0000 
     12 O3A       147.4790  108.2740  152.6000 O.3       1 ATP1001     0.0000 
     13 O5'       147.5520  106.2860  153.9510 O.3       1 ATP1001     0.0000 
     14 C5'       147.7880  105.3390  152.9350 C.3       1 ATP1001     0.0000 
     15 C4'       147.1540  104.1030  153.5210 C.3       1 ATP1001     0.0000 
     16 O4'       147.9040  102.9330  153.3010 O.3       1 ATP1001     0.0000 
     17 C3'       147.1030  104.2710  155.0060 C.3       1 ATP1001     0.0000 
     18 O3'       145.9160  103.6040  155.4390 O.3       1 ATP1001     0.0000 
     19 C2'       148.3790  103.6550  155.4890 C.3       1 ATP1001     0.0000 
     20 O2'       148.2380  103.0100  156.7360 O.3       1 ATP1001     0.0000 
     21 C1'       148.5930  102.5730  154.4850 C.3       1 ATP1001     0.0000 
     22 N9        149.9870  102.4570  154.1330 N.pl3     1 ATP1001     0.0000 
     23 C8        150.5140  102.9370  153.0100 C.2       1 ATP1001     0.0000 
     24 N7        151.8280  102.6720  152.9370 N.2       1 ATP1001     0.0000 
     25 C5        152.1390  102.0020  154.0330 C.ar      1 ATP1001     0.0000 
     26 C6        153.3630  101.4320  154.5360 C.ar      1 ATP1001     0.0000 
     27 N6        154.4690  101.5700  153.8020 N.pl3     1 ATP1001     0.0000 
     28 N1        153.2970  100.7970  155.7080 N.ar      1 ATP1001     0.0000 
     29 C2        152.1390  100.7220  156.3870 C.ar      1 ATP1001     0.0000 
     30 N3        150.9790  101.2300  155.9800 N.ar      1 ATP1001     0.0000 
     31 C4        150.9240  101.8640  154.8200 C.ar      1 ATP1001     0.0000 
@<TRIPOS>BOND
     1    1    3 ar   
     2    1    4 ar   
     3    1    8 1    
     4    5    6 ar   
     5    5    7 ar   
     6    5    8 1    
     7    5   12 1    
     8    9   10 ar   
     9    9   11 ar   
    10    9   12 1    
    11    9   13 1    
    12   13   14 1    
    13   14   15 1    
    14   15   16 1    
    15   15   17 1    
    16   16   21 1    
    17   17   18 1    
    18   17   19 1    
    19   19   20 1    
    20   19   21 1    
    21   21   22 1    
    22   22   23 1    
    23   22   31 1    
    24   23   24 2    
    25   24   25 1    
    26   25   26 ar   
    27   25   31 ar   
    28   26   27 1    
    29   26   28 ar   
    30   28   29 ar   
    31   29   30 ar   
    32   30   31 ar   
@<TRIPOS>SUBSTRUCTURE
     1 ATP1001     1 GROUP   
@<TRIPOS>SET
ATOM$ORANGE STATIC     ATOMS   COLORGROUP SYSTEM 
20 14 14 15 15 17 17 19 19 21 21 23 23 25 25 26 26 29 \
29 31 31 

