#    Name: 6n8z_5_ATP
#    Modification time : Fri May 22 19:34:56 2020

@<TRIPOS>MOLECULE
6n8z_5_ATP
   31    32     1     0     1
SMALL
NO_CHARGES


@<TRIPOS>ATOM
      1 PG        163.3620  136.5240  152.9520 P.3       1 ATP902      0.0000 
      2 O1G       162.3980  134.9350  152.0950 Du        1 ATP902      0.0000 
      3 O2G       163.6020  136.3570  154.5380 O.co2     1 ATP902      0.0000 
      4 O3G       162.8170  137.8490  152.6290 O.co2     1 ATP902      0.0000 
      5 PB        165.8700  137.0040  152.7190 P.3       1 ATP902      0.0000 
      6 O1B       165.4390  137.5240  154.0530 O.co2     1 ATP902      0.0000 
      7 O2B       166.5880  137.8060  151.6840 O.co2     1 ATP902      0.0000 
      8 O3B       164.6420  136.3120  152.0900 O.3       1 ATP902      0.0000 
      9 PA        167.5650  136.1780  154.2210 P.3       1 ATP902      0.0000 
     10 O1A       166.4630  136.2040  155.2340 O.co2     1 ATP902      0.0000 
     11 O2A       168.3880  137.4090  153.9900 O.co2     1 ATP902      0.0000 
     12 O3A       166.7870  135.8100  152.9670 O.3       1 ATP902      0.0000 
     13 O5'       168.4640  134.8890  154.2490 O.3       1 ATP902      0.0000 
     14 C5'       169.0460  134.4060  155.4370 C.3       1 ATP902      0.0000 
     15 C4'       170.2430  133.6620  154.9200 C.3       1 ATP902      0.0000 
     16 O4'       170.9130  134.3040  153.8520 O.3       1 ATP902      0.0000 
     17 C3'       171.2150  133.6040  156.0560 C.3       1 ATP902      0.0000 
     18 O3'       171.1580  132.2770  156.5660 O.3       1 ATP902      0.0000 
     19 C2'       172.5460  134.0200  155.4970 C.3       1 ATP902      0.0000 
     20 O2'       173.5440  133.0670  155.7740 O.3       1 ATP902      0.0000 
     21 C1'       172.2970  134.0350  154.0170 C.3       1 ATP902      0.0000 
     22 N9        173.0940  135.0830  153.3890 N.pl3     1 ATP902      0.0000 
     23 C8        172.7760  135.7080  152.2520 C.2       1 ATP902      0.0000 
     24 N7        173.7080  136.6140  151.9120 N.2       1 ATP902      0.0000 
     25 C5        174.6480  136.5640  152.8440 C.ar      1 ATP902      0.0000 
     26 C6        175.9030  137.2710  153.0510 C.ar      1 ATP902      0.0000 
     27 N6        176.2760  138.1850  152.1470 N.pl3     1 ATP902      0.0000 
     28 N1        176.6110  136.9490  154.1400 N.ar      1 ATP902      0.0000 
     29 C2        176.1580  136.0150  155.0020 C.ar      1 ATP902      0.0000 
     30 N3        175.0150  135.3360  154.8720 N.ar      1 ATP902      0.0000 
     31 C4        174.2370  135.5610  153.8210 C.ar      1 ATP902      0.0000 
@<TRIPOS>BOND
     1    1    3 ar   
     2    1    4 ar   
     3    1    8 1    
     4    5    6 ar   
     5    5    7 ar   
     6    5    8 1    
     7    5   12 1    
     8    9   10 ar   
     9    9   11 ar   
    10    9   12 1    
    11    9   13 1    
    12   13   14 1    
    13   14   15 1    
    14   15   16 1    
    15   15   17 1    
    16   16   21 1    
    17   17   18 1    
    18   17   19 1    
    19   19   20 1    
    20   19   21 1    
    21   21   22 1    
    22   22   23 1    
    23   22   31 1    
    24   23   24 2    
    25   24   25 1    
    26   25   26 ar   
    27   25   31 ar   
    28   26   27 1    
    29   26   28 ar   
    30   28   29 ar   
    31   29   30 ar   
    32   30   31 ar   
@<TRIPOS>SUBSTRUCTURE
     1 ATP902      1 GROUP   
@<TRIPOS>SET
ATOM$ORANGE STATIC     ATOMS   COLORGROUP SYSTEM 
20 14 14 15 15 17 17 19 19 21 21 23 23 25 25 26 26 29 \
29 31 31 

