#    Name: 6n8z_2_ATP
#    Modification time : Fri May 22 19:34:11 2020

@<TRIPOS>MOLECULE
6n8z_2_ATP
   31    32     1     0     1
SMALL
NO_CHARGES


@<TRIPOS>ATOM
      1 PG        108.7830  122.5780   96.9210 P.3       1 ATP1002     0.0000 
      2 O1G       109.0570  122.3180   94.9140 Du        1 ATP1002     0.0000 
      3 O2G       110.0110  123.2800   97.6840 O.co2     1 ATP1002     0.0000 
      4 O3G       108.3450  121.3650   97.6290 O.co2     1 ATP1002     0.0000 
      5 PB        106.4010  122.5460   96.2450 P.3       1 ATP1002     0.0000 
      6 O1B       106.4040  121.3810   97.2110 O.co2     1 ATP1002     0.0000 
      7 O2B       106.6100  122.3660   94.7750 O.co2     1 ATP1002     0.0000 
      8 O3B       107.5130  123.4770   96.7800 O.3       1 ATP1002     0.0000 
      9 PA        103.9000  122.3310   96.4320 P.3       1 ATP1002     0.0000 
     10 O1A       104.0020  121.6070   97.7550 O.co2     1 ATP1002     0.0000 
     11 O2A       103.9310  121.5200   95.1770 O.co2     1 ATP1002     0.0000 
     12 O3A       105.0850  123.3460   96.4500 O.3       1 ATP1002     0.0000 
     13 O5'       102.6780  123.3330   96.2960 O.3       1 ATP1002     0.0000 
     14 C5'       102.3150  124.4090   97.1430 C.3       1 ATP1002     0.0000 
     15 C4'       101.1600  125.0160   96.3570 C.3       1 ATP1002     0.0000 
     16 O4'       100.7060  124.2060   95.2800 O.3       1 ATP1002     0.0000 
     17 C3'        99.9910  125.1830   97.2850 C.3       1 ATP1002     0.0000 
     18 O3'        99.6920  126.5770   97.3250 O.3       1 ATP1002     0.0000 
     19 C2'        98.8730  124.3180   96.7650 C.3       1 ATP1002     0.0000 
     20 O2'        97.6490  125.0130   96.6500 O.3       1 ATP1002     0.0000 
     21 C1'        99.2910  123.9730   95.3750 C.3       1 ATP1002     0.0000 
     22 N9         99.0120  122.5510   95.1140 N.pl3     1 ATP1002     0.0000 
     23 C8         99.8800  121.7270   94.5300 C.2       1 ATP1002     0.0000 
     24 N7         99.3850  120.4860   94.3980 N.2       1 ATP1002     0.0000 
     25 C5         98.1780  120.4960   94.9050 C.ar      1 ATP1002     0.0000 
     26 C6         97.1710  119.4650   95.0520 C.ar      1 ATP1002     0.0000 
     27 N6         97.4400  118.2200   94.6060 N.pl3     1 ATP1002     0.0000 
     28 N1         96.0350  119.8450   95.6380 N.ar      1 ATP1002     0.0000 
     29 C2         95.8380  121.1200   96.0490 C.ar      1 ATP1002     0.0000 
     30 N3         96.7380  122.1070   95.9550 N.ar      1 ATP1002     0.0000 
     31 C4         97.9180  121.8570   95.3890 C.ar      1 ATP1002     0.0000 
@<TRIPOS>BOND
     1    1    3 ar   
     2    1    4 ar   
     3    1    8 1    
     4    5    6 ar   
     5    5    7 ar   
     6    5    8 1    
     7    5   12 1    
     8    9   10 ar   
     9    9   11 ar   
    10    9   12 1    
    11    9   13 1    
    12   13   14 1    
    13   14   15 1    
    14   15   16 1    
    15   15   17 1    
    16   16   21 1    
    17   17   18 1    
    18   17   19 1    
    19   19   20 1    
    20   19   21 1    
    21   21   22 1    
    22   22   23 1    
    23   22   31 1    
    24   23   24 2    
    25   24   25 1    
    26   25   26 ar   
    27   25   31 ar   
    28   26   27 1    
    29   26   28 ar   
    30   28   29 ar   
    31   29   30 ar   
    32   30   31 ar   
@<TRIPOS>SUBSTRUCTURE
     1 ATP1002     1 GROUP   
@<TRIPOS>SET
ATOM$ORANGE STATIC     ATOMS   COLORGROUP SYSTEM 
20 14 14 15 15 17 17 19 19 21 21 23 23 25 25 26 26 29 \
29 31 31 

