#    Name: 6n8z_6_ATP
#    Modification time : Fri May 22 19:35:14 2020

@<TRIPOS>MOLECULE
6n8z_6_ATP
   31    32     1     0     1
SMALL
NO_CHARGES


@<TRIPOS>ATOM
      1 PG        150.6010  163.0760  151.6280 P.3       1 ATP1001     0.0000 
      2 O1G       151.9480  161.5180  151.6020 Du        1 ATP1001     0.0000 
      3 O2G       150.5430  163.8790  153.0250 O.co2     1 ATP1001     0.0000 
      4 O3G       149.2380  162.7820  151.1740 O.co2     1 ATP1001     0.0000 
      5 PB        151.4910  165.3130  150.8760 P.3       1 ATP1001     0.0000 
      6 O1B       150.5610  165.5040  152.0370 O.co2     1 ATP1001     0.0000 
      7 O2B       151.3850  166.1450  149.6370 O.co2     1 ATP1001     0.0000 
      8 O3B       151.3020  163.8440  150.4570 O.3       1 ATP1001     0.0000 
      9 PA        153.3930  166.8080  151.6770 P.3       1 ATP1001     0.0000 
     10 O1A       153.7960  166.7840  153.1280 O.co2     1 ATP1001     0.0000 
     11 O2A       152.3320  167.7240  151.1350 O.co2     1 ATP1001     0.0000 
     12 O3A       152.9580  165.3450  151.3930 O.3       1 ATP1001     0.0000 
     13 O5'       154.6530  166.8430  150.7280 O.3       1 ATP1001     0.0000 
     14 C5'       155.3790  168.0100  150.3680 C.3       1 ATP1001     0.0000 
     15 C4'       156.6070  167.9610  151.2260 C.3       1 ATP1001     0.0000 
     16 O4'       157.7450  168.4800  150.5770 O.3       1 ATP1001     0.0000 
     17 C3'       156.3460  168.8450  152.4130 C.3       1 ATP1001     0.0000 
     18 O3'       156.4070  167.9940  153.5630 O.3       1 ATP1001     0.0000 
     19 C2'       157.3930  169.9320  152.3600 C.3       1 ATP1001     0.0000 
     20 O2'       158.4990  169.6080  153.1770 O.3       1 ATP1001     0.0000 
     21 C1'       157.9100  169.8420  150.9590 C.3       1 ATP1001     0.0000 
     22 N9        157.1690  170.7120  150.0320 N.pl3     1 ATP1001     0.0000 
     23 C8        156.5050  170.2950  148.9470 C.2       1 ATP1001     0.0000 
     24 N7        155.9230  171.3250  148.2880 N.2       1 ATP1001     0.0000 
     25 C5        156.2410  172.4250  148.9480 C.ar      1 ATP1001     0.0000 
     26 C6        155.9490  173.8420  148.7420 C.ar      1 ATP1001     0.0000 
     27 N6        155.1950  174.2100  147.6880 N.pl3     1 ATP1001     0.0000 
     28 N1        156.4510  174.6920  149.6540 N.ar      1 ATP1001     0.0000 
     29 C2        157.1980  174.2380  150.6820 C.ar      1 ATP1001     0.0000 
     30 N3        157.4880  172.9630  150.9230 N.ar      1 ATP1001     0.0000 
     31 C4        157.0490  172.0230  150.1000 C.ar      1 ATP1001     0.0000 
@<TRIPOS>BOND
     1    1    3 ar   
     2    1    4 ar   
     3    1    8 1    
     4    5    6 ar   
     5    5    7 ar   
     6    5    8 1    
     7    5   12 1    
     8    9   10 ar   
     9    9   11 ar   
    10    9   12 1    
    11    9   13 1    
    12   13   14 1    
    13   14   15 1    
    14   15   16 1    
    15   15   17 1    
    16   16   21 1    
    17   17   18 1    
    18   17   19 1    
    19   19   20 1    
    20   19   21 1    
    21   21   22 1    
    22   22   23 1    
    23   22   31 1    
    24   23   24 2    
    25   24   25 1    
    26   25   26 ar   
    27   25   31 ar   
    28   26   27 1    
    29   26   28 ar   
    30   28   29 ar   
    31   29   30 ar   
    32   30   31 ar   
@<TRIPOS>SUBSTRUCTURE
     1 ATP1001     1 GROUP   
@<TRIPOS>SET
ATOM$ORANGE STATIC     ATOMS   COLORGROUP SYSTEM 
20 14 14 15 15 17 17 19 19 21 21 23 23 25 25 26 26 29 \
29 31 31 

