#    Name: 6n8z_8_ATP
#    Modification time : Fri May 22 19:35:38 2020

@<TRIPOS>MOLECULE
6n8z_8_ATP
   31    32     1     0     1
SMALL
NO_CHARGES


@<TRIPOS>ATOM
      1 PG        146.5620  156.0870  114.2460 P.3       1 ATP901      0.0000 
      2 O1G       146.1740  156.7560  116.1400 Du        1 ATP901      0.0000 
      3 O2G       145.3780  156.4660  113.2180 O.co2     1 ATP901      0.0000 
      4 O3G       146.9480  154.6670  114.1510 O.co2     1 ATP901      0.0000 
      5 PB        147.3930  158.4010  113.9180 P.3       1 ATP901      0.0000 
      6 O1B       146.7120  158.7310  115.2120 O.co2     1 ATP901      0.0000 
      7 O2B       146.8030  158.5340  112.5770 O.co2     1 ATP901      0.0000 
      8 O3B       147.8680  156.9400  114.0810 O.3       1 ATP901      0.0000 
      9 PA        148.6670  159.9320  115.2540 P.3       1 ATP901      0.0000 
     10 O1A       148.5000  158.7950  116.2200 O.co2     1 ATP901      0.0000 
     11 O2A       147.6380  161.0260  115.1990 O.co2     1 ATP901      0.0000 
     12 O3A       148.7170  159.1750  113.9120 O.3       1 ATP901      0.0000 
     13 O5'       150.1220  160.5340  115.1860 O.3       1 ATP901      0.0000 
     14 C5'       150.6040  161.3290  114.1270 C.3       1 ATP901      0.0000 
     15 C4'       152.0980  161.2580  114.3320 C.3       1 ATP901      0.0000 
     16 O4'       152.8230  161.8530  113.2760 O.3       1 ATP901      0.0000 
     17 C3'       152.4130  162.0540  115.5640 C.3       1 ATP901      0.0000 
     18 O3'       153.3640  161.2860  116.3170 O.3       1 ATP901      0.0000 
     19 C2'       152.9010  163.3950  115.0620 C.3       1 ATP901      0.0000 
     20 O2'       154.1990  163.6860  115.5350 O.3       1 ATP901      0.0000 
     21 C1'       153.0550  163.2280  113.5770 C.3       1 ATP901      0.0000 
     22 N9        152.0780  164.0270  112.8280 N.pl3     1 ATP901      0.0000 
     23 C8        150.9960  163.5050  112.2430 C.2       1 ATP901      0.0000 
     24 N7        150.2720  164.4420  111.6050 N.2       1 ATP901      0.0000 
     25 C5        150.8920  165.5920  111.7760 C.ar      1 ATP901      0.0000 
     26 C6        150.6090  166.9410  111.3190 C.ar      1 ATP901      0.0000 
     27 N6        149.5170  167.1540  110.5540 N.pl3     1 ATP901      0.0000 
     28 N1        151.4810  167.9000  111.6930 N.ar      1 ATP901      0.0000 
     29 C2        152.5500  167.6080  112.4680 C.ar      1 ATP901      0.0000 
     30 N3        152.8790  166.3750  112.8990 N.ar      1 ATP901      0.0000 
     31 C4        152.0850  165.3360  112.5960 C.ar      1 ATP901      0.0000 
@<TRIPOS>BOND
     1    1    3 ar   
     2    1    4 ar   
     3    1    8 1    
     4    5    6 ar   
     5    5    7 ar   
     6    5    8 1    
     7    5   12 1    
     8    9   10 ar   
     9    9   11 ar   
    10    9   12 1    
    11    9   13 1    
    12   13   14 1    
    13   14   15 1    
    14   15   16 1    
    15   15   17 1    
    16   16   21 1    
    17   17   18 1    
    18   17   19 1    
    19   19   20 1    
    20   19   21 1    
    21   21   22 1    
    22   22   23 1    
    23   22   31 1    
    24   23   24 2    
    25   24   25 1    
    26   25   26 ar   
    27   25   31 ar   
    28   26   27 1    
    29   26   28 ar   
    30   28   29 ar   
    31   29   30 ar   
    32   30   31 ar   
@<TRIPOS>SUBSTRUCTURE
     1 ATP901      1 GROUP   
@<TRIPOS>SET
ATOM$ORANGE STATIC     ATOMS   COLORGROUP SYSTEM 
20 14 14 15 15 17 17 19 19 21 21 23 23 25 25 26 26 29 \
29 31 31 

