#    Name: 6n8z_7_ATP
#    Modification time : Fri May 22 19:35:26 2020

@<TRIPOS>MOLECULE
6n8z_7_ATP
   31    32     1     0     1
SMALL
NO_CHARGES


@<TRIPOS>ATOM
      1 PG        165.8610  132.6070  116.7690 P.3       1 ATP1002     0.0000 
      2 O1G       166.9770  131.1390  115.9170 Du        1 ATP1002     0.0000 
      3 O2G       164.7070  131.9620  117.6790 O.co2     1 ATP1002     0.0000 
      4 O3G       165.3660  133.6270  115.8390 O.co2     1 ATP1002     0.0000 
      5 PB        168.1880  133.2490  116.5100 P.3       1 ATP1002     0.0000 
      6 O1B       169.0770  134.3600  116.9670 O.co2     1 ATP1002     0.0000 
      7 O2B       167.5840  133.1280  115.1610 O.co2     1 ATP1002     0.0000 
      8 O3B       167.0500  133.2410  117.5430 O.3       1 ATP1002     0.0000 
      9 PA        170.2950  132.3330  117.4490 P.3       1 ATP1002     0.0000 
     10 O1A       169.8990  133.4320  118.3940 O.co2     1 ATP1002     0.0000 
     11 O2A       171.2970  132.5850  116.3670 O.co2     1 ATP1002     0.0000 
     12 O3A       168.9400  131.9250  116.7940 O.3       1 ATP1002     0.0000 
     13 O5'       170.6730  130.9910  118.2060 O.3       1 ATP1002     0.0000 
     14 C5'       171.5070  130.9300  119.3580 C.3       1 ATP1002     0.0000 
     15 C4'       172.7870  130.2590  118.8670 C.3       1 ATP1002     0.0000 
     16 O4'       173.3260  130.7920  117.6610 O.3       1 ATP1002     0.0000 
     17 C3'       173.8550  130.4650  119.9220 C.3       1 ATP1002     0.0000 
     18 O3'       174.3480  129.1730  120.3230 O.3       1 ATP1002     0.0000 
     19 C2'       174.8920  131.3560  119.2900 C.3       1 ATP1002     0.0000 
     20 O2'       176.2200  131.0170  119.6350 O.3       1 ATP1002     0.0000 
     21 C1'       174.7290  131.0360  117.8450 C.3       1 ATP1002     0.0000 
     22 N9        175.1400  132.1720  117.0160 N.pl3     1 ATP1002     0.0000 
     23 C8        174.3470  132.6980  116.0900 C.2       1 ATP1002     0.0000 
     24 N7        174.9360  133.7180  115.4570 N.2       1 ATP1002     0.0000 
     25 C5        176.1370  133.8470  115.9590 C.ar      1 ATP1002     0.0000 
     26 C6        177.2100  134.7670  115.6700 C.ar      1 ATP1002     0.0000 
     27 N6        177.0000  135.6770  114.6920 N.pl3     1 ATP1002     0.0000 
     28 N1        178.3270  134.6200  116.3980 N.ar      1 ATP1002     0.0000 
     29 C2        178.4230  133.6670  117.3540 C.ar      1 ATP1002     0.0000 
     30 N3        177.4570  132.7860  117.6620 N.ar      1 ATP1002     0.0000 
     31 C4        176.2930  132.8320  117.0060 C.ar      1 ATP1002     0.0000 
@<TRIPOS>BOND
     1    1    3 ar   
     2    1    4 ar   
     3    1    8 1    
     4    5    6 ar   
     5    5    7 ar   
     6    5    8 1    
     7    5   12 1    
     8    9   10 ar   
     9    9   11 ar   
    10    9   12 1    
    11    9   13 1    
    12   13   14 1    
    13   14   15 1    
    14   15   16 1    
    15   15   17 1    
    16   16   21 1    
    17   17   18 1    
    18   17   19 1    
    19   19   20 1    
    20   19   21 1    
    21   21   22 1    
    22   22   23 1    
    23   22   31 1    
    24   23   24 2    
    25   24   25 1    
    26   25   26 ar   
    27   25   31 ar   
    28   26   27 1    
    29   26   28 ar   
    30   28   29 ar   
    31   29   30 ar   
    32   30   31 ar   
@<TRIPOS>SUBSTRUCTURE
     1 ATP1002     1 GROUP   
@<TRIPOS>SET
ATOM$ORANGE STATIC     ATOMS   COLORGROUP SYSTEM 
20 14 14 15 15 17 17 19 19 21 21 23 23 25 25 26 26 29 \
29 31 31 

