#    Name: 6n8z_1_ATP
#    Modification time : Fri May 22 19:33:54 2020

@<TRIPOS>MOLECULE
6n8z_1_ATP
   31    32     1     0     1
SMALL
NO_CHARGES


@<TRIPOS>ATOM
      1 PG        118.0660  113.0130  143.9160 P.3       1 ATP1001     0.0000 
      2 O1G       117.2840  114.3080  142.5260 Du        1 ATP1001     0.0000 
      3 O2G       117.4210  113.1640  145.3750 O.co2     1 ATP1001     0.0000 
      4 O3G       119.5290  112.9710  144.0040 O.co2     1 ATP1001     0.0000 
      5 PB        117.0850  110.6930  144.1870 P.3       1 ATP1001     0.0000 
      6 O1B       118.1880  110.5290  145.1860 O.co2     1 ATP1001     0.0000 
      7 O2B       116.4770  109.5710  143.4100 O.co2     1 ATP1001     0.0000 
      8 O3B       117.6110  111.7230  143.1610 O.3       1 ATP1001     0.0000 
      9 PA        114.9750  110.3560  145.4850 P.3       1 ATP1001     0.0000 
     10 O1A       114.3680  111.0160  146.6960 O.co2     1 ATP1001     0.0000 
     11 O2A       115.6690  109.0130  145.5580 O.co2     1 ATP1001     0.0000 
     12 O3A       115.9370  111.4340  144.9010 O.3       1 ATP1001     0.0000 
     13 O5'       114.0050  110.3960  144.2390 O.3       1 ATP1001     0.0000 
     14 C5'       113.6460  109.2830  143.4450 C.3       1 ATP1001     0.0000 
     15 C4'       112.1750  109.0810  143.7390 C.3       1 ATP1001     0.0000 
     16 O4'       111.8080  107.7300  143.8420 O.3       1 ATP1001     0.0000 
     17 C3'       111.8180  109.7200  145.0570 C.3       1 ATP1001     0.0000 
     18 O3'       110.9900  110.8360  144.7330 O.3       1 ATP1001     0.0000 
     19 C2'       111.1020  108.6710  145.8580 C.3       1 ATP1001     0.0000 
     20 O2'       109.8450  109.1290  146.3000 O.3       1 ATP1001     0.0000 
     21 C1'       110.8070  107.6360  144.8310 C.3       1 ATP1001     0.0000 
     22 N9        110.8790  106.3100  145.3890 N.pl3     1 ATP1001     0.0000 
     23 C8        110.1490  105.9130  146.4250 C.2       1 ATP1001     0.0000 
     24 N7        110.4020  104.6320  146.7190 N.2       1 ATP1001     0.0000 
     25 C5        111.2710  104.1930  145.8270 C.ar      1 ATP1001     0.0000 
     26 C6        111.9100  102.9180  145.6120 C.ar      1 ATP1001     0.0000 
     27 N6        111.5660  101.9150  146.4040 N.pl3     1 ATP1001     0.0000 
     28 N1        112.7880  102.8200  144.6020 N.ar      1 ATP1001     0.0000 
     29 C2        113.0670  103.8870  143.8330 C.ar      1 ATP1001     0.0000 
     30 N3        112.4990  105.0950  143.9760 N.ar      1 ATP1001     0.0000 
     31 C4        111.6060  105.3020  144.9510 C.ar      1 ATP1001     0.0000 
@<TRIPOS>BOND
     1    1    3 ar   
     2    1    4 ar   
     3    1    8 1    
     4    5    6 ar   
     5    5    7 ar   
     6    5    8 1    
     7    5   12 1    
     8    9   10 ar   
     9    9   11 ar   
    10    9   12 1    
    11    9   13 1    
    12   13   14 1    
    13   14   15 1    
    14   15   16 1    
    15   15   17 1    
    16   16   21 1    
    17   17   18 1    
    18   17   19 1    
    19   19   20 1    
    20   19   21 1    
    21   21   22 1    
    22   22   23 1    
    23   22   31 1    
    24   23   24 2    
    25   24   25 1    
    26   25   26 ar   
    27   25   31 ar   
    28   26   27 1    
    29   26   28 ar   
    30   28   29 ar   
    31   29   30 ar   
    32   30   31 ar   
@<TRIPOS>SUBSTRUCTURE
     1 ATP1001     1 GROUP   
@<TRIPOS>SET
ATOM$ORANGE STATIC     ATOMS   COLORGROUP SYSTEM 
20 14 14 15 15 17 17 19 19 21 21 23 23 25 25 26 26 29 \
29 31 31 

