#    Name: 6n8z_4_ATP
#    Modification time : Fri May 22 19:34:41 2020

@<TRIPOS>MOLECULE
6n8z_4_ATP
   31    32     1     0     1
SMALL
NO_CHARGES


@<TRIPOS>ATOM
      1 PG        124.4080  101.8080  109.4330 P.3       1 ATP1002     0.0000 
      2 O1G       124.0400  101.5190  107.4470 Du        1 ATP1002     0.0000 
      3 O2G       124.8180  103.3090  109.8330 O.co2     1 ATP1002     0.0000 
      4 O3G       125.3430  100.8320  110.0180 O.co2     1 ATP1002     0.0000 
      5 PB        122.8950   99.8580  109.6400 P.3       1 ATP1002     0.0000 
      6 O1B       124.1260   99.2930  110.3160 O.co2     1 ATP1002     0.0000 
      7 O2B       122.6210   99.6590  108.1820 O.co2     1 ATP1002     0.0000 
      8 O3B       122.9840  101.3770  109.9110 O.3       1 ATP1002     0.0000 
      9 PA        121.7630   97.8500  110.6490 P.3       1 ATP1002     0.0000 
     10 O1A       122.8390   97.6960  111.6960 O.co2     1 ATP1002     0.0000 
     11 O2A       121.9480   97.1540  109.3370 O.co2     1 ATP1002     0.0000 
     12 O3A       121.6440   99.3890  110.4340 O.3       1 ATP1002     0.0000 
     13 O5'       120.2890   97.5220  111.1310 O.3       1 ATP1002     0.0000 
     14 C5'       119.5760   98.0580  112.2320 C.3       1 ATP1002     0.0000 
     15 C4'       118.2050   97.4280  112.0220 C.3       1 ATP1002     0.0000 
     16 O4'       118.1890   96.3940  111.0440 O.3       1 ATP1002     0.0000 
     17 C3'       117.7710   96.7960  113.3140 C.3       1 ATP1002     0.0000 
     18 O3'       116.5650   97.4460  113.7070 O.3       1 ATP1002     0.0000 
     19 C2'       117.6350   95.3150  113.0710 C.3       1 ATP1002     0.0000 
     20 O2'       116.4000   94.7970  113.5190 O.3       1 ATP1002     0.0000 
     21 C1'       117.6290   95.1860  111.5840 C.3       1 ATP1002     0.0000 
     22 N9        118.4640   94.0410  111.1850 N.pl3     1 ATP1002     0.0000 
     23 C8        119.3530   94.0890  110.1950 C.2       1 ATP1002     0.0000 
     24 N7        119.9790   92.9140  110.0240 N.2       1 ATP1002     0.0000 
     25 C5        119.4960   92.0850  110.9130 C.ar      1 ATP1002     0.0000 
     26 C6        119.7810   90.6960  111.2150 C.ar      1 ATP1002     0.0000 
     27 N6        120.7130   90.0470  110.4860 N.pl3     1 ATP1002     0.0000 
     28 N1        119.0830   90.1660  112.2190 N.ar      1 ATP1002     0.0000 
     29 C2        118.1540   90.8830  112.8970 C.ar      1 ATP1002     0.0000 
     30 N3        117.8600   92.1710  112.6740 N.ar      1 ATP1002     0.0000 
     31 C4        118.4910   92.8190  111.6950 C.ar      1 ATP1002     0.0000 
@<TRIPOS>BOND
     1    1    3 ar   
     2    1    4 ar   
     3    1    8 1    
     4    5    6 ar   
     5    5    7 ar   
     6    5    8 1    
     7    5   12 1    
     8    9   10 ar   
     9    9   11 ar   
    10    9   12 1    
    11    9   13 1    
    12   13   14 1    
    13   14   15 1    
    14   15   16 1    
    15   15   17 1    
    16   16   21 1    
    17   17   18 1    
    18   17   19 1    
    19   19   20 1    
    20   19   21 1    
    21   21   22 1    
    22   22   23 1    
    23   22   31 1    
    24   23   24 2    
    25   24   25 1    
    26   25   26 ar   
    27   25   31 ar   
    28   26   27 1    
    29   26   28 ar   
    30   28   29 ar   
    31   29   30 ar   
    32   30   31 ar   
@<TRIPOS>SUBSTRUCTURE
     1 ATP1002     1 GROUP   
@<TRIPOS>SET
ATOM$ORANGE STATIC     ATOMS   COLORGROUP SYSTEM 
20 14 14 15 15 17 17 19 19 21 21 23 23 25 25 26 26 29 \
29 31 31 

