#    Name: 6q93_7_ADP
#    Modification time : Fri May 22 19:29:49 2020

@<TRIPOS>MOLECULE
6q93_7_ADP
   27    29     1     0     1
SMALL
NO_CHARGES


@<TRIPOS>ATOM
      1 PB         35.5200  -32.1660  -60.2940 P.3       1 ADP1002     0.0000 
      2 O1B        35.9670  -33.4370  -61.0300 O.co2     1 ADP1002     0.0000 
      3 O2B        34.1710  -32.3220  -59.6230 O.co2     1 ADP1002     0.0000 
      4 O3B        36.6410  -31.7480  -59.3540 O.co2     1 ADP1002     0.0000 
      5 PA         36.3230  -29.7650  -61.7530 P.3       1 ADP1002     0.0000 
      6 O1A        37.6890  -30.2350  -62.1380 O.co2     1 ADP1002     0.0000 
      7 O2A        36.2230  -28.7340  -60.6170 O.co2     1 ADP1002     0.0000 
      8 O3A        35.3910  -30.9940  -61.3640 O.3       1 ADP1002     0.0000 
      9 O5'        35.4990  -29.2070  -63.0120 O.3       1 ADP1002     0.0000 
     10 C5'        35.3970  -29.8860  -64.2800 C.3       1 ADP1002     0.0000 
     11 C4'        35.4550  -28.8630  -65.3870 C.3       1 ADP1002     0.0000 
     12 O4'        34.3870  -27.9050  -65.2220 O.3       1 ADP1002     0.0000 
     13 C3'        36.7540  -28.0550  -65.5200 C.3       1 ADP1002     0.0000 
     14 O3'        37.1100  -27.9440  -66.8940 O.3       1 ADP1002     0.0000 
     15 C2'        36.3880  -26.7010  -64.9010 C.3       1 ADP1002     0.0000 
     16 O2'        37.1140  -25.6250  -65.4860 O.3       1 ADP1002     0.0000 
     17 C1'        34.9100  -26.5920  -65.2840 C.3       1 ADP1002     0.0000 
     18 N9         34.1030  -25.7330  -64.4260 N.pl3     1 ADP1002     0.0000 
     19 C8         33.7230  -25.9640  -63.1280 C.2       1 ADP1002     0.0000 
     20 N7         32.9130  -25.0580  -62.6360 N.2       1 ADP1002     0.0000 
     21 C5         32.7430  -24.1650  -63.6850 C.ar      1 ADP1002     0.0000 
     22 C6         31.9710  -22.9920  -63.8230 C.ar      1 ADP1002     0.0000 
     23 N6         31.1650  -22.5150  -62.8710 N.pl3     1 ADP1002     0.0000 
     24 N1         32.0320  -22.3360  -65.0050 N.ar      1 ADP1002     0.0000 
     25 C2         32.8100  -22.8260  -65.9790 C.ar      1 ADP1002     0.0000 
     26 N3         33.5670  -23.9270  -65.9700 N.ar      1 ADP1002     0.0000 
     27 C4         33.4850  -24.5610  -64.7900 C.ar      1 ADP1002     0.0000 
@<TRIPOS>BOND
     1    1    2 ar   
     2    1    3 ar   
     3    1    4 ar   
     4    1    8 1    
     5    5    6 ar   
     6    5    7 ar   
     7    5    8 1    
     8    5    9 1    
     9    9   10 1    
    10   10   11 1    
    11   11   12 1    
    12   11   13 1    
    13   12   17 1    
    14   13   14 1    
    15   13   15 1    
    16   15   16 1    
    17   15   17 1    
    18   17   18 1    
    19   18   19 1    
    20   18   27 1    
    21   19   20 2    
    22   20   21 1    
    23   21   22 ar   
    24   21   27 ar   
    25   22   23 1    
    26   22   24 ar   
    27   24   25 ar   
    28   25   26 ar   
    29   26   27 ar   
@<TRIPOS>SUBSTRUCTURE
     1 ADP1002     1 GROUP   
@<TRIPOS>SET
ATOM$ORANGE STATIC     ATOMS   COLORGROUP SYSTEM 
20 10 10 11 11 13 13 15 15 17 17 19 19 21 21 22 22 25 \
25 27 27 

