#    Name: 6q93_8_ADP
#    Modification time : Fri May 22 19:29:57 2020

@<TRIPOS>MOLECULE
6q93_8_ADP
   27    29     1     0     1
SMALL
NO_CHARGES


@<TRIPOS>ATOM
      1 PB         25.8680  -45.1190  -67.8030 P.3       1 ADP301      0.0000 
      2 O1B        27.2380  -45.1230  -68.3910 O.co2     1 ADP301      0.0000 
      3 O2B        25.7610  -44.4520  -66.4140 O.co2     1 ADP301      0.0000 
      4 O3B        25.2570  -46.5330  -67.6940 O.co2     1 ADP301      0.0000 
      5 PA         23.5030  -44.5250  -69.4510 P.3       1 ADP301      0.0000 
      6 O1A        23.6490  -45.6300  -70.5090 O.co2     1 ADP301      0.0000 
      7 O2A        22.4710  -44.7820  -68.4270 O.co2     1 ADP301      0.0000 
      8 O3A        24.9260  -44.2760  -68.7780 O.3       1 ADP301      0.0000 
      9 O5'        23.2990  -43.1380  -70.2120 O.3       1 ADP301      0.0000 
     10 C5'        23.1090  -41.8830  -69.5240 C.3       1 ADP301      0.0000 
     11 C4'        22.0820  -41.0520  -70.2510 C.3       1 ADP301      0.0000 
     12 O4'        22.5070  -40.8290  -71.6150 O.3       1 ADP301      0.0000 
     13 C3'        20.6640  -41.6130  -70.3220 C.3       1 ADP301      0.0000 
     14 O3'        19.7390  -40.5550  -70.0850 O.3       1 ADP301      0.0000 
     15 C2'        20.5850  -42.1700  -71.7490 C.3       1 ADP301      0.0000 
     16 O2'        19.2740  -42.1170  -72.2800 O.3       1 ADP301      0.0000 
     17 C1'        21.4700  -41.1840  -72.5070 C.3       1 ADP301      0.0000 
     18 N9         22.0750  -41.7070  -73.7290 N.pl3     1 ADP301      0.0000 
     19 C8         23.0740  -42.6410  -73.8240 C.2       1 ADP301      0.0000 
     20 N7         23.5180  -42.8280  -75.0430 N.2       1 ADP301      0.0000 
     21 C5         22.7540  -41.9590  -75.8070 C.ar      1 ADP301      0.0000 
     22 C6         22.7620  -41.6500  -77.1790 C.ar      1 ADP301      0.0000 
     23 N6         23.6150  -42.1920  -78.0520 N.pl3     1 ADP301      0.0000 
     24 N1         21.8820  -40.7230  -77.6200 N.ar      1 ADP301      0.0000 
     25 C2         21.0540  -40.1490  -76.7400 C.ar      1 ADP301      0.0000 
     26 N3         20.9580  -40.3580  -75.4200 N.ar      1 ADP301      0.0000 
     27 C4         21.8490  -41.2730  -75.0120 C.ar      1 ADP301      0.0000 
@<TRIPOS>BOND
     1    1    2 ar   
     2    1    3 ar   
     3    1    4 ar   
     4    1    8 1    
     5    5    6 ar   
     6    5    7 ar   
     7    5    8 1    
     8    5    9 1    
     9    9   10 1    
    10   10   11 1    
    11   11   12 1    
    12   11   13 1    
    13   12   17 1    
    14   13   14 1    
    15   13   15 1    
    16   15   16 1    
    17   15   17 1    
    18   17   18 1    
    19   18   19 1    
    20   18   27 1    
    21   19   20 2    
    22   20   21 1    
    23   21   22 ar   
    24   21   27 ar   
    25   22   23 1    
    26   22   24 ar   
    27   24   25 ar   
    28   25   26 ar   
    29   26   27 ar   
@<TRIPOS>SUBSTRUCTURE
     1 ADP301      1 GROUP   
@<TRIPOS>SET
ATOM$ORANGE STATIC     ATOMS   COLORGROUP SYSTEM 
20 10 10 11 11 13 13 15 15 17 17 19 19 21 21 22 22 25 \
25 27 27 

