#    Name: 6q93_2_ADP
#    Modification time : Fri May 22 19:29:04 2020

@<TRIPOS>MOLECULE
6q93_2_ADP
   27    29     1     0     1
SMALL
NO_CHARGES


@<TRIPOS>ATOM
      1 PB          2.9960  -15.9760  -20.3590 P.3       1 ADP301      0.0000 
      2 O1B         3.5890  -16.9440  -21.3580 O.co2     1 ADP301      0.0000 
      3 O2B         1.6020  -16.3690  -19.8790 O.co2     1 ADP301      0.0000 
      4 O3B         2.9500  -14.5170  -20.8880 O.co2     1 ADP301      0.0000 
      5 PA          4.5660  -14.7970  -18.1530 P.3       1 ADP301      0.0000 
      6 O1A         5.6360  -14.1010  -19.0040 O.co2     1 ADP301      0.0000 
      7 O2A         3.5480  -13.9290  -17.5420 O.co2     1 ADP301      0.0000 
      8 O3A         3.8950  -15.9410  -19.0400 O.3       1 ADP301      0.0000 
      9 O5'         5.2860  -15.7000  -17.0510 O.3       1 ADP301      0.0000 
     10 C5'         4.6000  -16.4670  -16.0410 C.3       1 ADP301      0.0000 
     11 C4'         5.3700  -16.3880  -14.7430 C.3       1 ADP301      0.0000 
     12 O4'         6.7290  -16.8500  -14.9320 O.3       1 ADP301      0.0000 
     13 C3'         5.4660  -15.0130  -14.0710 C.3       1 ADP301      0.0000 
     14 O3'         5.2540  -15.1300  -12.6680 O.3       1 ADP301      0.0000 
     15 C2'         6.8930  -14.5560  -14.4080 C.3       1 ADP301      0.0000 
     16 O2'         7.4580  -13.7060  -13.4160 O.3       1 ADP301      0.0000 
     17 C1'         7.6390  -15.8890  -14.4290 C.3       1 ADP301      0.0000 
     18 N9          8.8500  -15.9170  -15.2470 N.pl3     1 ADP301      0.0000 
     19 C8          8.9380  -15.9250  -16.6150 C.2       1 ADP301      0.0000 
     20 N7         10.1570  -16.0810  -17.0730 N.2       1 ADP301      0.0000 
     21 C5         10.9300  -16.1770  -15.9260 C.ar      1 ADP301      0.0000 
     22 C6         12.3130  -16.3740  -15.7190 C.ar      1 ADP301      0.0000 
     23 N6         13.1980  -16.5520  -16.7080 N.pl3     1 ADP301      0.0000 
     24 N1         12.7600  -16.4160  -14.4410 N.ar      1 ADP301      0.0000 
     25 C2         11.8780  -16.2810  -13.4430 C.ar      1 ADP301      0.0000 
     26 N3         10.5550  -16.1030  -13.5160 N.ar      1 ADP301      0.0000 
     27 C4         10.1380  -16.0630  -14.7910 C.ar      1 ADP301      0.0000 
@<TRIPOS>BOND
     1    1    2 ar   
     2    1    3 ar   
     3    1    4 ar   
     4    1    8 1    
     5    5    6 ar   
     6    5    7 ar   
     7    5    8 1    
     8    5    9 1    
     9    9   10 1    
    10   10   11 1    
    11   11   12 1    
    12   11   13 1    
    13   12   17 1    
    14   13   14 1    
    15   13   15 1    
    16   15   16 1    
    17   15   17 1    
    18   17   18 1    
    19   18   19 1    
    20   18   27 1    
    21   19   20 2    
    22   20   21 1    
    23   21   22 ar   
    24   21   27 ar   
    25   22   23 1    
    26   22   24 ar   
    27   24   25 ar   
    28   25   26 ar   
    29   26   27 ar   
@<TRIPOS>SUBSTRUCTURE
     1 ADP301      1 GROUP   
@<TRIPOS>SET
ATOM$ORANGE STATIC     ATOMS   COLORGROUP SYSTEM 
20 10 10 11 11 13 13 15 15 17 17 19 19 21 21 22 22 25 \
25 27 27 

