#    Name: 6q93_5_ADP_CAVITY_N1_6
#    Modification time : Fri May 22 19:29:34 2020

@<TRIPOS>MOLECULE
6q93_5_ADP_CAVITY_N1_6
  123     0     6     0     0
SMALL
NO_CHARGES


@<TRIPOS>ATOM
      1 OG          1.1100  -78.0700  -15.0500 O.3       1 SER1        0.0000 
      2 OG          4.6600  -79.0200  -15.1700 O.3       1 SER1        0.0000 
      3 OG          6.9700  -79.6600  -16.9700 O.3       1 SER1        0.0000 
      4 OG          7.6600  -82.0100  -15.2400 O.3       1 SER1        0.0000 
      5 OG          8.4700  -81.1600  -17.0100 O.3       1 SER1        0.0000 
      6 OG          8.8200  -82.3300  -16.1500 O.3       1 SER1        0.0000 
      7 OG          5.5500  -78.1400  -14.3300 O.3       1 SER1        0.0000 
      8 OG          6.7000  -78.4600  -15.2400 O.3       1 SER1        0.0000 
      9 OG          7.0500  -79.6400  -14.3700 O.3       1 SER1        0.0000 
     10 OG          7.8600  -78.7900  -16.1400 O.3       1 SER1        0.0000 
     11 OG          8.2100  -79.9600  -15.2800 O.3       1 SER1        0.0000 
     12 O           3.1600  -77.5200  -15.1300 O.2       2 ALA2        0.0000 
     13 O           4.3100  -77.8400  -16.0300 O.2       2 ALA2        0.0000 
     14 O           8.1200  -79.9800  -17.8700 O.2       2 ALA2        0.0000 
     15 O           8.6700  -77.9300  -17.9100 O.2       2 ALA2        0.0000 
     16 N           7.0300  -82.8300   -8.2900 N.am      2 ALA2        0.0000 
     17 N           6.7900  -78.4500  -12.6400 N.am      2 ALA2        0.0000 
     18 N           7.2500  -76.4100  -15.2700 N.am      2 ALA2        0.0000 
     19 N           8.4000  -76.7300  -16.1700 N.am      2 ALA2        0.0000 
     20 N           8.1400  -75.5400  -14.4400 N.am      2 ALA2        0.0000 
     21 N           9.3000  -75.8600  -15.3400 N.am      2 ALA2        0.0000 
     22 N           8.6900  -73.4900  -14.4700 N.am      2 ALA2        0.0000 
     23 N           9.0300  -74.6700  -13.6100 N.am      2 ALA2        0.0000 
     24 N          10.1900  -74.9900  -14.5100 N.am      2 ALA2        0.0000 
     25 N          10.5100  -79.3500   -7.5600 N.am      2 ALA2        0.0000 
     26 O          12.5800  -75.6100  -13.7200 O.2       2 ALA2        0.0000 
     27 OD1         2.0000  -77.2000  -14.2200 O.co2     3 ASP3        0.0000 
     28 OD1         9.1700  -83.5100  -15.2800 O.co2     3 ASP3        0.0000 
     29 OD1         4.0500  -76.6500  -14.3000 O.co2     3 ASP3        0.0000 
     30 OD1         4.4000  -77.8200  -13.4300 O.co2     3 ASP3        0.0000 
     31 OD1         5.2000  -76.9700  -15.2000 O.co2     3 ASP3        0.0000 
     32 OD1         9.2500  -83.4900  -12.6900 O.co2     3 ASP3        0.0000 
     33 OD1         9.7100  -81.4600  -15.3200 O.co2     3 ASP3        0.0000 
     34 OD1        10.4100  -83.8100  -13.5900 O.co2     3 ASP3        0.0000 
     35 OD1         9.8200  -78.2500  -18.8100 O.co2     3 ASP3        0.0000 
     36 OD1         6.0900  -76.0900  -14.3700 O.co2     3 ASP3        0.0000 
     37 OD1         6.4400  -77.2700  -13.5000 O.co2     3 ASP3        0.0000 
     38 OD1        10.4900  -83.7900  -10.9900 O.co2     3 ASP3        0.0000 
     39 OD1        10.2500  -79.4100  -15.3500 O.co2     3 ASP3        0.0000 
     40 OD1        10.6000  -80.5800  -14.4900 O.co2     3 ASP3        0.0000 
     41 OD1        10.9500  -81.7600  -13.6200 O.co2     3 ASP3        0.0000 
     42 OD1        11.0600  -78.5500  -17.1100 O.co2     3 ASP3        0.0000 
     43 OD1         6.9900  -75.2200  -13.5400 O.co2     3 ASP3        0.0000 
     44 OD1         7.3400  -76.4000  -12.6700 O.co2     3 ASP3        0.0000 
     45 OD1        11.1500  -78.5300  -14.5200 O.co2     3 ASP3        0.0000 
     46 OD1        11.4900  -79.7100  -13.6500 O.co2     3 ASP3        0.0000 
     47 OD1        11.8400  -80.8900  -12.7900 O.co2     3 ASP3        0.0000 
     48 OD1        12.1900  -82.0600  -11.9300 O.co2     3 ASP3        0.0000 
     49 OD1         7.5300  -73.1700  -13.5700 O.co2     3 ASP3        0.0000 
     50 OD1         7.8800  -74.3500  -12.7100 O.co2     3 ASP3        0.0000 
     51 OD1        12.0400  -77.6600  -13.6900 O.co2     3 ASP3        0.0000 
     52 OD1        13.1900  -77.9800  -14.5900 O.co2     3 ASP3        0.0000 
     53 OD1         8.4200  -72.3000  -12.7400 O.co2     3 ASP3        0.0000 
     54 NZ          5.9000  -79.3200  -13.4700 N.4       4 LYS4        0.0000 
     55 NZ          8.5600  -81.1400  -14.4100 N.4       4 LYS4        0.0000 
     56 NZ          8.9000  -82.3100  -13.5500 N.4       4 LYS4        0.0000 
     57 NZ         10.0600  -82.6300  -14.4500 N.4       4 LYS4        0.0000 
     58 NZ          7.4900  -80.8000  -10.9100 N.4       4 LYS4        0.0000 
     59 NZ          7.8400  -81.9800  -10.0500 N.4       4 LYS4        0.0000 
     60 NZ          8.2900  -79.9400  -12.6800 N.4       4 LYS4        0.0000 
     61 NZ          8.6400  -81.1200  -11.8200 N.4       4 LYS4        0.0000 
     62 NZ          8.9900  -82.3000  -10.9500 N.4       4 LYS4        0.0000 
     63 NZ          9.8000  -81.4400  -12.7200 N.4       4 LYS4        0.0000 
     64 NZ         11.3000  -82.9400  -12.7600 N.4       4 LYS4        0.0000 
     65 NZ          9.5800  -72.6200  -13.6400 N.4       4 LYS4        0.0000 
     66 NZ          9.9300  -73.7900  -12.7800 N.4       4 LYS4        0.0000 
     67 NZ         11.0800  -74.1100  -13.6800 N.4       4 LYS4        0.0000 
     68 CA          2.2600  -78.3900  -15.9600 C.3       5 GLY6        0.0000 
     69 CA          2.3500  -78.3800  -13.3600 C.3       5 GLY6        0.0000 
     70 CA          3.5000  -78.7000  -14.2600 C.3       5 GLY6        0.0000 
     71 CA          6.3600  -77.2900  -16.1000 C.3       5 GLY6        0.0000 
     72 CA          8.4500  -84.3500  -10.9200 C.3       5 GLY6        0.0000 
     73 CA          7.5100  -77.6100  -17.0000 C.3       5 GLY6        0.0000 
     74 CA          6.6800  -81.6600   -9.1500 C.3       5 GLY6        0.0000 
     75 CA          8.1800  -83.1500   -9.1900 C.3       5 GLY6        0.0000 
     76 CA          9.5600  -77.0600  -17.0700 C.3       5 GLY6        0.0000 
     77 CA          9.9100  -78.2300  -16.2100 C.3       5 GLY6        0.0000 
     78 CA         10.8000  -77.3600  -15.3800 C.3       5 GLY6        0.0000 
     79 CA         11.9500  -77.6800  -16.2800 C.3       5 GLY6        0.0000 
     80 CA         11.2300  -78.5200  -11.9200 C.3       5 GLY6        0.0000 
     81 CA         11.3400  -75.3100  -15.4100 C.3       5 GLY6        0.0000 
     82 CA         11.6900  -76.4800  -14.5500 C.3       5 GLY6        0.0000 
     83 CA         12.3900  -78.8400  -12.8200 C.3       5 GLY6        0.0000 
     84 CA         12.7300  -80.0100  -11.9600 C.3       5 GLY6        0.0000 
     85 CA         13.0800  -81.1900  -11.1000 C.3       5 GLY6        0.0000 
     86 CA         11.4300  -75.2900  -12.8200 C.3       5 GLY6        0.0000 
     87 CA         11.7800  -76.4700  -11.9500 C.3       5 GLY6        0.0000 
     88 CA         12.1200  -77.6400  -11.0900 C.3       5 GLY6        0.0000 
     89 CA         12.4700  -78.8200  -10.2300 C.3       5 GLY6        0.0000 
     90 CA         12.8200  -80.0000   -9.3600 C.3       5 GLY6        0.0000 
     91 DU          9.0100  -79.1100  -17.0400 H         6 CUB7        0.0000 
     92 DU          9.3600  -80.2800  -16.1800 H         6 CUB7        0.0000 
     93 DU          7.6000  -77.5900  -14.4100 H         6 CUB7        0.0000 
     94 DU          7.9500  -78.7700  -13.5400 H         6 CUB7        0.0000 
     95 DU          9.3400  -83.4700  -10.0900 H         6 CUB7        0.0000 
     96 DU          8.7500  -77.9100  -15.3100 H         6 CUB7        0.0000 
     97 DU          9.1000  -79.0900  -14.4500 H         6 CUB7        0.0000 
     98 DU          9.4500  -80.2600  -13.5800 H         6 CUB7        0.0000 
     99 DU         10.1400  -82.6200  -11.8600 H         6 CUB7        0.0000 
    100 DU          8.7300  -81.1000   -9.2200 H         6 CUB7        0.0000 
    101 DU          9.0800  -82.2800   -8.3600 H         6 CUB7        0.0000 
    102 DU          8.4900  -76.7200  -13.5800 H         6 CUB7        0.0000 
    103 DU          9.1900  -79.0700  -11.8500 H         6 CUB7        0.0000 
    104 DU          9.5300  -80.2500  -10.9900 H         6 CUB7        0.0000 
    105 DU          9.8800  -81.4200  -10.1200 H         6 CUB7        0.0000 
    106 DU          9.6400  -77.0400  -14.4800 H         6 CUB7        0.0000 
    107 DU          9.9900  -78.2100  -13.6200 H         6 CUB7        0.0000 
    108 DU         10.3400  -79.3900  -12.7500 H         6 CUB7        0.0000 
    109 DU         10.6900  -80.5700  -11.8900 H         6 CUB7        0.0000 
    110 DU         11.3800  -82.9200  -10.1600 H         6 CUB7        0.0000 
    111 DU          9.9700  -81.4100   -7.5300 H         6 CUB7        0.0000 
    112 DU          9.3800  -75.8400  -12.7400 H         6 CUB7        0.0000 
    113 DU          9.7300  -77.0200  -11.8800 H         6 CUB7        0.0000 
    114 DU         10.0800  -78.2000  -11.0200 H         6 CUB7        0.0000 
    115 DU         10.4300  -79.3700  -10.1600 H         6 CUB7        0.0000 
    116 DU         10.5400  -76.1600  -13.6500 H         6 CUB7        0.0000 
    117 DU         10.8800  -77.3400  -12.7800 H         6 CUB7        0.0000 
    118 DU         11.5800  -79.6900  -11.0600 H         6 CUB7        0.0000 
    119 DU         11.9300  -80.8700  -10.2000 H         6 CUB7        0.0000 
    120 DU          8.7700  -73.4700  -11.8700 H         6 CUB7        0.0000 
    121 DU         10.2700  -74.9700  -11.9100 H         6 CUB7        0.0000 
    122 DU         11.3200  -78.5000   -9.3200 H         6 CUB7        0.0000 
    123 DU         11.6700  -79.6800   -8.4600 H         6 CUB7        0.0000 
@<TRIPOS>BOND
@<TRIPOS>SUBSTRUCTURE
     1 SER1        1 GROUP   
     2 ALA2       12 GROUP   
     3 ASP3       27 GROUP   
     4 LYS4       54 GROUP   
     5 GLY6       68 GROUP   
     6 CUB7       91 GROUP   
@<TRIPOS>SET

