#    Name: 6q93_1_ADP_CAVITY_N1_4
#    Modification time : Fri May 22 19:28:56 2020

@<TRIPOS>MOLECULE
6q93_1_ADP_CAVITY_N1_4
   93     0     6     0     0
SMALL
NO_CHARGES


@<TRIPOS>ATOM
      1 OG         -2.8300  -35.3600  -17.8200 O.3       1 SER1        0.0000 
      2 OG         -1.6800  -35.6800  -18.7200 O.3       1 SER1        0.0000 
      3 OG         -1.3300  -36.8600  -17.8600 O.3       1 SER1        0.0000 
      4 OG         -2.7500  -35.3500  -15.2200 O.3       1 SER1        0.0000 
      5 OG         -1.5900  -35.6700  -16.1200 O.3       1 SER1        0.0000 
      6 OG         -0.4400  -35.9900  -17.0300 O.3       1 SER1        0.0000 
      7 O          -2.2900  -33.3100  -17.8500 O.2       2 ALA2        0.0000 
      8 O           2.2200  -37.8000  -17.9700 O.2       2 ALA2        0.0000 
      9 O           3.7200  -39.3000  -18.0100 O.2       2 ALA2        0.0000 
     10 O          -2.6600  -35.3300  -12.6200 O.2       2 ALA2        0.0000 
     11 N          -2.3100  -36.5000  -11.7600 N.am      2 ALA2        0.0000 
     12 O          -1.5000  -35.6500  -13.5300 O.2       2 ALA2        0.0000 
     13 N          -1.0500  -33.6200  -16.1500 N.am      2 ALA2        0.0000 
     14 N          -0.2400  -32.7600  -17.9200 N.am      2 ALA2        0.0000 
     15 N           0.1100  -33.9400  -17.0600 N.am      2 ALA2        0.0000 
     16 N           1.1500  -37.4700  -14.4700 N.am      2 ALA2        0.0000 
     17 O           1.9600  -36.6100  -16.2300 O.2       2 ALA2        0.0000 
     18 O           3.1100  -36.9300  -17.1400 O.2       2 ALA2        0.0000 
     19 O           4.2700  -37.2500  -18.0400 O.2       2 ALA2        0.0000 
     20 N          -1.4200  -35.6300  -10.9300 N.am      2 ALA2        0.0000 
     21 N          -0.1500  -32.7400  -15.3200 N.am      2 ALA2        0.0000 
     22 N           0.6500  -31.8900  -17.0900 N.am      2 ALA2        0.0000 
     23 N           1.0000  -33.0600  -16.2300 N.am      2 ALA2        0.0000 
     24 N           1.8100  -32.2100  -17.9900 N.am      2 ALA2        0.0000 
     25 O           4.0000  -36.0600  -16.3100 O.2       2 ALA2        0.0000 
     26 O           5.1600  -36.3800  -17.2100 O.2       2 ALA2        0.0000 
     27 OD1        -1.4200  -36.8800  -20.4500 O.co2     3 ASP3        0.0000 
     28 OD1        -0.2600  -37.2000  -21.3600 O.co2     3 ASP3        0.0000 
     29 OD1         0.0900  -38.3800  -20.4900 O.co2     3 ASP3        0.0000 
     30 OD1         0.2800  -35.1500  -21.3900 O.co2     3 ASP3        0.0000 
     31 OD1         0.6300  -36.3300  -20.5200 O.co2     3 ASP3        0.0000 
     32 OD1         1.7900  -36.6500  -21.4300 O.co2     3 ASP3        0.0000 
     33 OD1        -0.3500  -35.9700  -14.4300 O.co2     3 ASP3        0.0000 
     34 OD1         0.4600  -35.1100  -16.1900 O.co2     3 ASP3        0.0000 
     35 OD1         0.8000  -36.2900  -15.3300 O.co2     3 ASP3        0.0000 
     36 OD1        -0.9600  -33.6000  -13.5600 O.co2     3 ASP3        0.0000 
     37 OD1        -0.6100  -34.7800  -12.6900 O.co2     3 ASP3        0.0000 
     38 OD1        -0.2600  -35.9500  -11.8300 O.co2     3 ASP3        0.0000 
     39 OD1         0.0800  -37.1300  -10.9700 O.co2     3 ASP3        0.0000 
     40 OD1         0.1900  -33.9200  -14.4600 O.co2     3 ASP3        0.0000 
     41 OD1         0.8900  -36.2700  -12.7300 O.co2     3 ASP3        0.0000 
     42 OD1         1.3500  -34.2400  -15.3600 O.co2     3 ASP3        0.0000 
     43 OD1         2.5000  -34.5600  -16.2700 O.co2     3 ASP3        0.0000 
     44 OD1         2.8500  -35.7400  -15.4000 O.co2     3 ASP3        0.0000 
     45 OD1         1.8900  -32.1900  -15.4000 O.co2     3 ASP3        0.0000 
     46 OD1         3.0500  -32.5100  -16.3000 O.co2     3 ASP3        0.0000 
     47 OD1         4.5500  -34.0100  -16.3400 O.co2     3 ASP3        0.0000 
     48 NZ         -0.1700  -37.1800  -18.7600 N.4       4 LYS4        0.0000 
     49 NZ          0.9800  -37.5000  -19.6600 N.4       4 LYS4        0.0000 
     50 NZ          2.4800  -39.0000  -19.7000 N.4       4 LYS4        0.0000 
     51 NZ         -0.0900  -37.1600  -16.1600 N.4       4 LYS4        0.0000 
     52 NZ          0.7200  -36.3100  -17.9300 N.4       4 LYS4        0.0000 
     53 NZ          1.0700  -37.4800  -17.0600 N.4       4 LYS4        0.0000 
     54 NZ          1.4600  -31.0300  -18.8600 N.4       4 LYS4        0.0000 
     55 NZ          2.7000  -31.3300  -17.1600 N.4       4 LYS4        0.0000 
     56 NZ          4.9000  -35.1800  -15.4700 N.4       4 LYS4        0.0000 
     57 CA         -2.4000  -36.5200  -14.3600 C.3       5 GLY6        0.0000 
     58 CA         -1.9400  -34.4900  -16.9900 C.3       5 GLY6        0.0000 
     59 CA         -1.1300  -33.6300  -18.7500 C.3       5 GLY6        0.0000 
     60 CA          0.2600  -38.3400  -15.3000 C.3       5 GLY6        0.0000 
     61 CA          1.1800  -34.2800  -20.5600 C.3       5 GLY6        0.0000 
     62 CA          2.6800  -35.7700  -20.6000 C.3       5 GLY6        0.0000 
     63 CA          4.1800  -37.2700  -20.6400 C.3       5 GLY6        0.0000 
     64 CA         -1.8500  -34.4700  -14.3900 C.3       5 GLY6        0.0000 
     65 CA         -1.1600  -36.8300  -12.6600 C.3       5 GLY6        0.0000 
     66 CA         -0.8100  -38.0000  -11.8000 C.3       5 GLY6        0.0000 
     67 CA          0.0000  -37.1500  -13.5700 C.3       5 GLY6        0.0000 
     68 CA          0.5700  -31.9100  -19.6900 C.3       5 GLY6        0.0000 
     69 CA          2.0700  -33.4000  -19.7300 C.3       5 GLY6        0.0000 
     70 CA          3.5700  -34.9000  -19.7700 C.3       5 GLY6        0.0000 
     71 CA          5.0700  -36.4000  -19.8000 C.3       5 GLY6        0.0000 
     72 CA          5.4200  -37.5700  -18.9400 C.3       5 GLY6        0.0000 
     73 CA          2.9600  -32.5300  -18.8900 C.3       5 GLY6        0.0000 
     74 CA          4.4600  -34.0300  -18.9300 C.3       5 GLY6        0.0000 
     75 DU         -2.0300  -34.5100  -19.5800 H         6 CUB7        0.0000 
     76 DU         -0.5200  -36.0100  -19.6200 H         6 CUB7        0.0000 
     77 DU          2.1300  -37.8200  -20.5600 H         6 CUB7        0.0000 
     78 DU         -0.7800  -34.8100  -17.8900 H         6 CUB7        0.0000 
     79 DU          0.0200  -33.9600  -19.6500 H         6 CUB7        0.0000 
     80 DU          0.3700  -35.1300  -18.7900 H         6 CUB7        0.0000 
     81 DU          1.5200  -35.4500  -19.6900 H         6 CUB7        0.0000 
     82 DU          1.8700  -36.6300  -18.8300 H         6 CUB7        0.0000 
     83 DU          3.0300  -36.9500  -19.7300 H         6 CUB7        0.0000 
     84 DU         -0.7000  -34.7900  -15.2900 H         6 CUB7        0.0000 
     85 DU          0.9100  -33.0800  -18.8200 H         6 CUB7        0.0000 
     86 DU          1.2600  -34.2600  -17.9600 H         6 CUB7        0.0000 
     87 DU          1.6100  -35.4300  -17.1000 H         6 CUB7        0.0000 
     88 DU          2.4200  -34.5800  -18.8600 H         6 CUB7        0.0000 
     89 DU          2.7600  -35.7500  -18.0000 H         6 CUB7        0.0000 
     90 DU          2.1500  -33.3800  -17.1300 H         6 CUB7        0.0000 
     91 DU          3.3100  -33.7000  -18.0300 H         6 CUB7        0.0000 
     92 DU          3.6600  -34.8800  -17.1700 H         6 CUB7        0.0000 
     93 DU          4.8100  -35.2000  -18.0700 H         6 CUB7        0.0000 
@<TRIPOS>BOND
@<TRIPOS>SUBSTRUCTURE
     1 SER1        1 GROUP   
     2 ALA2        7 GROUP   
     3 ASP3       27 GROUP   
     4 LYS4       48 GROUP   
     5 GLY6       57 GROUP   
     6 CUB7       75 GROUP   
@<TRIPOS>SET

