#    Name: 6q93_6_ADP
#    Modification time : Fri May 22 19:29:41 2020

@<TRIPOS>MOLECULE
6q93_6_ADP
   27    29     1     0     1
SMALL
NO_CHARGES


@<TRIPOS>ATOM
      1 PB         17.7230  -62.1650  -19.8330 P.3       1 ADP301      0.0000 
      2 O1B        16.9140  -62.9080  -20.9110 O.co2     1 ADP301      0.0000 
      3 O2B        18.4870  -63.0730  -18.9170 O.co2     1 ADP301      0.0000 
      4 O3B        18.5910  -61.1580  -20.5540 O.co2     1 ADP301      0.0000 
      5 PA         16.2840  -59.7920  -18.8620 P.3       1 ADP301      0.0000 
      6 O1A        15.7750  -59.3010  -20.1660 O.co2     1 ADP301      0.0000 
      7 O2A        17.4530  -59.0510  -18.2290 O.co2     1 ADP301      0.0000 
      8 O3A        16.6780  -61.3330  -18.9580 O.3       1 ADP301      0.0000 
      9 O5'        15.1290  -59.8850  -17.7520 O.3       1 ADP301      0.0000 
     10 C5'        13.8360  -60.4870  -17.9840 C.3       1 ADP301      0.0000 
     11 C4'        12.7520  -59.6850  -17.3070 C.3       1 ADP301      0.0000 
     12 O4'        13.0190  -59.5900  -15.8890 O.3       1 ADP301      0.0000 
     13 C3'        12.5660  -58.2560  -17.8150 C.3       1 ADP301      0.0000 
     14 O3'        11.1800  -57.9600  -17.9480 O.3       1 ADP301      0.0000 
     15 C2'        13.2580  -57.4160  -16.7340 C.3       1 ADP301      0.0000 
     16 O2'        12.6630  -56.1360  -16.5940 O.3       1 ADP301      0.0000 
     17 C1'        12.9770  -58.2380  -15.4810 C.3       1 ADP301      0.0000 
     18 N9         13.9310  -58.0510  -14.3920 N.pl3     1 ADP301      0.0000 
     19 C8         15.2410  -58.4500  -14.3530 C.2       1 ADP301      0.0000 
     20 N7         15.8380  -58.2190  -13.2080 N.2       1 ADP301      0.0000 
     21 C5         14.8530  -57.6230  -12.4380 C.ar      1 ADP301      0.0000 
     22 C6         14.8380  -57.1520  -11.1080 C.ar      1 ADP301      0.0000 
     23 N6         15.8820  -57.2390  -10.2780 N.pl3     1 ADP301      0.0000 
     24 N1         13.6920  -56.5970  -10.6480 N.ar      1 ADP301      0.0000 
     25 C2         12.6370  -56.5260  -11.4680 C.ar      1 ADP301      0.0000 
     26 N3         12.5310  -56.9480  -12.7330 N.ar      1 ADP301      0.0000 
     27 C4         13.6760  -57.4970  -13.1600 C.ar      1 ADP301      0.0000 
@<TRIPOS>BOND
     1    1    2 ar   
     2    1    3 ar   
     3    1    4 ar   
     4    1    8 1    
     5    5    6 ar   
     6    5    7 ar   
     7    5    8 1    
     8    5    9 1    
     9    9   10 1    
    10   10   11 1    
    11   11   12 1    
    12   11   13 1    
    13   12   17 1    
    14   13   14 1    
    15   13   15 1    
    16   15   16 1    
    17   15   17 1    
    18   17   18 1    
    19   18   19 1    
    20   18   27 1    
    21   19   20 2    
    22   20   21 1    
    23   21   22 ar   
    24   21   27 ar   
    25   22   23 1    
    26   22   24 ar   
    27   24   25 ar   
    28   25   26 ar   
    29   26   27 ar   
@<TRIPOS>SUBSTRUCTURE
     1 ADP301      1 GROUP   
@<TRIPOS>SET
ATOM$ORANGE STATIC     ATOMS   COLORGROUP SYSTEM 
20 10 10 11 11 13 13 15 15 17 17 19 19 21 21 22 22 25 \
25 27 27 

