#    Name: 6q93_4_ADP_CAVITY_N1_4
#    Modification time : Fri May 22 19:29:26 2020

@<TRIPOS>MOLECULE
6q93_4_ADP_CAVITY_N1_4
  113     0     6     0     0
SMALL
NO_CHARGES


@<TRIPOS>ATOM
      1 OG        -25.3500  -67.3600  -60.1800 O.3       1 SER1        0.0000 
      2 OG        -24.2000  -67.6900  -61.0800 O.3       1 SER1        0.0000 
      3 OG        -23.0400  -68.0100  -61.9800 O.3       1 SER1        0.0000 
      4 OG        -21.5400  -69.5000  -62.0200 O.3       1 SER1        0.0000 
      5 OG        -19.3400  -73.3500  -60.3300 O.3       1 SER1        0.0000 
      6 OG        -24.4600  -66.4900  -59.3400 O.3       1 SER1        0.0000 
      7 OG        -23.3100  -66.8100  -60.2500 O.3       1 SER1        0.0000 
      8 N         -25.6100  -67.4200  -67.9600 N.am      2 ALA2        0.0000 
      9 N         -24.9100  -69.7700  -66.2400 N.am      2 ALA2        0.0000 
     10 N         -24.1100  -68.9200  -68.0000 N.am      2 ALA2        0.0000 
     11 N         -23.7600  -70.0900  -67.1400 N.am      2 ALA2        0.0000 
     12 N         -24.0200  -68.9000  -65.4100 N.am      2 ALA2        0.0000 
     13 N         -23.5600  -66.8700  -68.0400 N.am      2 ALA2        0.0000 
     14 N         -22.8700  -69.2200  -66.3100 N.am      2 ALA2        0.0000 
     15 N         -21.7100  -69.5400  -67.2100 N.am      2 ALA2        0.0000 
     16 N         -22.7800  -69.2000  -63.7100 N.am      2 ALA2        0.0000 
     17 N         -22.4300  -70.3800  -62.8500 N.am      2 ALA2        0.0000 
     18 N         -21.6300  -69.5200  -64.6200 N.am      2 ALA2        0.0000 
     19 N         -21.2800  -70.7000  -63.7500 N.am      2 ALA2        0.0000 
     20 N         -22.5000  -65.9600  -62.0100 N.am      2 ALA2        0.0000 
     21 N         -21.6900  -65.1000  -63.7800 N.am      2 ALA2        0.0000 
     22 N         -21.3400  -66.2800  -62.9200 N.am      2 ALA2        0.0000 
     23 N         -21.0000  -67.4500  -62.0500 N.am      2 ALA2        0.0000 
     24 O         -20.3000  -69.8100  -60.3300 O.2       2 ALA2        0.0000 
     25 N         -20.5400  -65.4200  -64.6800 N.am      2 ALA2        0.0000 
     26 O         -19.1500  -70.1300  -61.2300 O.2       2 ALA2        0.0000 
     27 N         -18.8000  -71.3000  -60.3700 N.am      2 ALA2        0.0000 
     28 N         -17.6400  -71.6200  -61.2700 N.am      2 ALA2        0.0000 
     29 N         -21.6100  -65.0800  -61.1800 N.am      2 ALA2        0.0000 
     30 N         -20.1000  -66.5800  -61.2200 N.am      2 ALA2        0.0000 
     31 OD1       -26.9400  -65.8900  -62.7300 O.co2     3 ASP3        0.0000 
     32 OD1       -26.1300  -65.0300  -64.5000 O.co2     3 ASP3        0.0000 
     33 OD1       -21.9800  -68.3400  -65.4800 O.co2     3 ASP3        0.0000 
     34 OD1       -21.1700  -67.4900  -67.2500 O.co2     3 ASP3        0.0000 
     35 OD1       -26.0500  -65.0100  -61.9000 O.co2     3 ASP3        0.0000 
     36 OD1       -25.7000  -66.1900  -61.0400 O.co2     3 ASP3        0.0000 
     37 OD1       -25.2400  -64.1600  -63.6700 O.co2     3 ASP3        0.0000 
     38 OD1       -24.8900  -65.3300  -62.8000 O.co2     3 ASP3        0.0000 
     39 OD1       -21.0800  -67.4700  -64.6500 O.co2     3 ASP3        0.0000 
     40 OD1       -20.7300  -68.6500  -63.7900 O.co2     3 ASP3        0.0000 
     41 OD1       -20.3900  -69.8200  -62.9200 O.co2     3 ASP3        0.0000 
     42 OD1       -20.0400  -71.0000  -62.0600 O.co2     3 ASP3        0.0000 
     43 OD1       -20.2800  -66.6200  -66.4100 O.co2     3 ASP3        0.0000 
     44 OD1       -18.5400  -72.5000  -62.1000 O.co2     3 ASP3        0.0000 
     45 OD1       -25.1600  -64.1400  -61.0700 O.co2     3 ASP3        0.0000 
     46 OD1       -20.1900  -66.6000  -63.8200 O.co2     3 ASP3        0.0000 
     47 OD1       -19.8400  -67.7700  -62.9500 O.co2     3 ASP3        0.0000 
     48 OD1       -19.4900  -68.9500  -62.0900 O.co2     3 ASP3        0.0000 
     49 OD1       -19.3800  -65.7400  -65.5800 O.co2     3 ASP3        0.0000 
     50 OD1       -23.9200  -64.4400  -59.3800 O.co2     3 ASP3        0.0000 
     51 NZ        -27.2200  -69.1300  -64.4300 N.4       4 LYS4        0.0000 
     52 NZ        -26.0700  -69.4500  -65.3400 N.4       4 LYS4        0.0000 
     53 NZ        -27.4800  -67.9400  -62.7000 N.4       4 LYS4        0.0000 
     54 NZ        -26.3300  -68.2600  -63.6000 N.4       4 LYS4        0.0000 
     55 NZ        -25.1800  -68.5800  -64.5100 N.4       4 LYS4        0.0000 
     56 NZ        -27.7500  -66.7400  -60.9700 N.4       4 LYS4        0.0000 
     57 NZ        -27.4000  -67.9200  -60.1000 N.4       4 LYS4        0.0000 
     58 NZ        -26.5900  -67.0600  -61.8700 N.4       4 LYS4        0.0000 
     59 NZ        -26.2400  -68.2400  -61.0100 N.4       4 LYS4        0.0000 
     60 NZ        -25.4400  -67.3800  -62.7700 N.4       4 LYS4        0.0000 
     61 NZ        -25.0900  -68.5600  -61.9100 N.4       4 LYS4        0.0000 
     62 NZ        -24.2800  -67.7000  -63.6700 N.4       4 LYS4        0.0000 
     63 NZ        -23.9400  -68.8800  -62.8100 N.4       4 LYS4        0.0000 
     64 NZ        -22.0400  -63.9200  -64.6400 N.4       4 LYS4        0.0000 
     65 NZ        -20.8900  -64.2400  -65.5400 N.4       4 LYS4        0.0000 
     66 CA        -26.6100  -71.5000  -65.3000 C.3       5 GLY6        0.0000 
     67 CA        -25.8100  -70.6400  -67.0700 C.3       5 GLY6        0.0000 
     68 CA        -27.0300  -65.9000  -65.3300 C.3       5 GLY6        0.0000 
     69 CA        -25.8700  -66.2200  -66.2300 C.3       5 GLY6        0.0000 
     70 CA        -24.9800  -65.3500  -65.4000 C.3       5 GLY6        0.0000 
     71 CA        -23.8300  -65.6700  -66.3000 C.3       5 GLY6        0.0000 
     72 CA        -20.9300  -71.8700  -62.8900 C.3       5 GLY6        0.0000 
     73 CA        -20.5800  -73.0500  -62.0300 C.3       5 GLY6        0.0000 
     74 CA        -26.5100  -67.0400  -59.2700 C.3       5 GLY6        0.0000 
     75 CA        -24.0900  -64.4800  -64.5700 C.3       5 GLY6        0.0000 
     76 CA        -21.1900  -70.6800  -61.1600 C.3       5 GLY6        0.0000 
     77 CA        -20.8400  -71.8600  -60.2900 C.3       5 GLY6        0.0000 
     78 CA        -19.6900  -72.1800  -61.2000 C.3       5 GLY6        0.0000 
     79 CA        -24.0000  -64.4600  -61.9700 C.3       5 GLY6        0.0000 
     80 CA        -23.2000  -63.6000  -63.7400 C.3       5 GLY6        0.0000 
     81 CA        -22.8500  -64.7800  -62.8800 C.3       5 GLY6        0.0000 
     82 CA        -22.1500  -67.1300  -61.1500 C.3       5 GLY6        0.0000 
     83 CA        -20.6500  -68.6300  -61.1900 C.3       5 GLY6        0.0000 
     84 CA        -24.2600  -63.2600  -60.2400 C.3       5 GLY6        0.0000 
     85 CA        -23.1100  -63.5900  -61.1400 C.3       5 GLY6        0.0000 
     86 CA        -22.7600  -64.7600  -60.2800 C.3       5 GLY6        0.0000 
     87 CA        -22.4100  -65.9400  -59.4200 C.3       5 GLY6        0.0000 
     88 DU        -27.5700  -67.9500  -65.3000 H         6 CUB7        0.0000 
     89 DU        -26.7600  -67.1000  -67.0600 H         6 CUB7        0.0000 
     90 DU        -26.4200  -68.2700  -66.2000 H         6 CUB7        0.0000 
     91 DU        -25.2600  -68.5900  -67.1000 H         6 CUB7        0.0000 
     92 DU        -26.6800  -67.0800  -64.4700 H         6 CUB7        0.0000 
     93 DU        -25.5200  -67.4000  -65.3700 H         6 CUB7        0.0000 
     94 DU        -24.7200  -66.5400  -67.1300 H         6 CUB7        0.0000 
     95 DU        -24.3700  -67.7200  -66.2700 H         6 CUB7        0.0000 
     96 DU        -23.2200  -68.0400  -67.1700 H         6 CUB7        0.0000 
     97 DU        -22.0600  -68.3600  -68.0800 H         6 CUB7        0.0000 
     98 DU        -25.7900  -66.2100  -63.6300 H         6 CUB7        0.0000 
     99 DU        -24.6300  -66.5300  -64.5400 H         6 CUB7        0.0000 
    100 DU        -23.1300  -68.0200  -64.5800 H         6 CUB7        0.0000 
    101 DU        -22.6700  -65.9900  -67.2100 H         6 CUB7        0.0000 
    102 DU        -22.3200  -67.1700  -66.3400 H         6 CUB7        0.0000 
    103 DU        -24.5500  -66.5100  -61.9400 H         6 CUB7        0.0000 
    104 DU        -23.7400  -65.6500  -63.7100 H         6 CUB7        0.0000 
    105 DU        -23.3900  -66.8300  -62.8400 H         6 CUB7        0.0000 
    106 DU        -22.9300  -64.8000  -65.4700 H         6 CUB7        0.0000 
    107 DU        -22.5900  -65.9700  -64.6100 H         6 CUB7        0.0000 
    108 DU        -22.2400  -67.1500  -63.7500 H         6 CUB7        0.0000 
    109 DU        -21.8900  -68.3300  -62.8800 H         6 CUB7        0.0000 
    110 DU        -21.7800  -65.1200  -66.3700 H         6 CUB7        0.0000 
    111 DU        -21.4300  -66.2900  -65.5100 H         6 CUB7        0.0000 
    112 DU        -24.8100  -65.3100  -60.2100 H         6 CUB7        0.0000 
    113 DU        -23.6500  -65.6400  -61.1100 H         6 CUB7        0.0000 
@<TRIPOS>BOND
@<TRIPOS>SUBSTRUCTURE
     1 SER1        1 GROUP   
     2 ALA2        8 GROUP   
     3 ASP3       31 GROUP   
     4 LYS4       51 GROUP   
     5 GLY6       66 GROUP   
     6 CUB7       88 GROUP   
@<TRIPOS>SET

