#    Name: 6q93_3_ADP_CAVITY_N1_4
#    Modification time : Fri May 22 19:29:15 2020

@<TRIPOS>MOLECULE
6q93_3_ADP_CAVITY_N1_4
   93     0     6     0     0
SMALL
NO_CHARGES


@<TRIPOS>ATOM
      1 OG         -8.7300  -53.3300  -73.8200 O.3       1 SER1        0.0000 
      2 OG         -8.5600  -53.3000  -68.6300 O.3       1 SER1        0.0000 
      3 OG         -7.7600  -52.4400  -70.3900 O.3       1 SER1        0.0000 
      4 OG         -8.8200  -52.1000  -66.8900 O.3       1 SER1        0.0000 
      5 OG         -7.6700  -52.4200  -67.8000 O.3       1 SER1        0.0000 
      6 O         -10.3500  -55.0400  -70.2900 O.2       2 ALA2        0.0000 
      7 O          -9.5400  -54.1900  -72.0600 O.2       2 ALA2        0.0000 
      8 N         -10.2600  -55.0300  -67.6900 N.am      2 ALA2        0.0000 
      9 N          -8.3000  -54.4900  -70.3600 N.am      2 ALA2        0.0000 
     10 N          -7.1500  -54.8100  -71.2600 N.am      2 ALA2        0.0000 
     11 O         -10.8700  -52.6600  -66.8200 O.2       2 ALA2        0.0000 
     12 N         -10.5200  -53.8300  -65.9600 N.am      2 ALA2        0.0000 
     13 N         -10.1700  -55.0100  -65.1000 N.am      2 ALA2        0.0000 
     14 N          -9.3700  -54.1500  -66.8600 N.am      2 ALA2        0.0000 
     15 N          -7.4100  -53.6200  -69.5300 N.am      2 ALA2        0.0000 
     16 N          -7.0600  -54.7900  -68.6700 N.am      2 ALA2        0.0000 
     17 N          -6.7100  -55.9700  -67.8000 N.am      2 ALA2        0.0000 
     18 N          -5.8200  -55.1000  -66.9700 N.am      2 ALA2        0.0000 
     19 OD1       -10.5400  -58.2700  -69.3900 O.co2     3 ASP3        0.0000 
     20 OD1       -10.8000  -57.0800  -67.6600 O.co2     3 ASP3        0.0000 
     21 OD1       -10.0000  -56.2200  -69.4300 O.co2     3 ASP3        0.0000 
     22 OD1        -9.6500  -57.4000  -68.5600 O.co2     3 ASP3        0.0000 
     23 OD1        -9.3000  -58.5700  -67.7000 O.co2     3 ASP3        0.0000 
     24 OD1        -9.1900  -55.3700  -71.1900 O.co2     3 ASP3        0.0000 
     25 OD1        -8.3900  -54.5100  -72.9600 O.co2     3 ASP3        0.0000 
     26 OD1        -8.0400  -55.6900  -72.0900 O.co2     3 ASP3        0.0000 
     27 OD1        -9.1100  -55.3500  -68.6000 O.co2     3 ASP3        0.0000 
     28 OD1        -8.7600  -56.5200  -67.7300 O.co2     3 ASP3        0.0000 
     29 OD1        -8.4100  -57.7000  -66.8700 O.co2     3 ASP3        0.0000 
     30 OD1        -7.9500  -55.6700  -69.5000 O.co2     3 ASP3        0.0000 
     31 OD1        -9.8900  -51.7600  -63.4000 O.co2     3 ASP3        0.0000 
     32 OD1        -9.5400  -52.9400  -62.5300 O.co2     3 ASP3        0.0000 
     33 OD1        -9.0900  -50.9100  -65.1600 O.co2     3 ASP3        0.0000 
     34 OD1        -8.7400  -52.0900  -64.3000 O.co2     3 ASP3        0.0000 
     35 OD1        -8.3900  -53.2600  -63.4300 O.co2     3 ASP3        0.0000 
     36 OD1        -6.6900  -51.5300  -64.3700 O.co2     3 ASP3        0.0000 
     37 OD1        -6.3400  -52.7100  -63.5100 O.co2     3 ASP3        0.0000 
     38 NZ        -10.7200  -57.0600  -65.0600 N.4       4 LYS4        0.0000 
     39 NZ         -7.3200  -53.6000  -66.9300 N.4       4 LYS4        0.0000 
     40 NZ         -6.5200  -52.7400  -68.7000 N.4       4 LYS4        0.0000 
     41 NZ         -6.1700  -53.9200  -67.8400 N.4       4 LYS4        0.0000 
     42 NZ         -6.7800  -51.5500  -66.9700 N.4       4 LYS4        0.0000 
     43 NZ         -6.4300  -52.7300  -66.1000 N.4       4 LYS4        0.0000 
     44 NZ         -4.9300  -54.2200  -66.1400 N.4       4 LYS4        0.0000 
     45 NZ         -3.7700  -54.5400  -67.0500 N.4       4 LYS4        0.0000 
     46 NZ         -5.5400  -51.8500  -65.2700 N.4       4 LYS4        0.0000 
     47 NZ         -4.0300  -53.3500  -65.3100 N.4       4 LYS4        0.0000 
     48 NZ         -2.8800  -53.6700  -66.2100 N.4       4 LYS4        0.0000 
     49 NZ         -6.1500  -49.4800  -64.4000 N.4       4 LYS4        0.0000 
     50 CA         -9.2800  -55.3800  -73.7900 C.3       5 GLY6        0.0000 
     51 CA        -10.6100  -53.8500  -68.5600 C.3       5 GLY6        0.0000 
     52 CA         -9.8000  -52.9900  -70.3200 C.3       5 GLY6        0.0000 
     53 CA         -8.6500  -53.3200  -71.2200 C.3       5 GLY6        0.0000 
     54 CA         -7.4900  -53.6400  -72.1300 C.3       5 GLY6        0.0000 
     55 CA        -12.0200  -52.3400  -65.9200 C.3       5 GLY6        0.0000 
     56 CA         -9.8300  -56.1900  -64.2300 C.3       5 GLY6        0.0000 
     57 CA        -10.0600  -51.8000  -68.5900 C.3       5 GLY6        0.0000 
     58 CA         -9.7200  -52.9800  -67.7300 C.3       5 GLY6        0.0000 
     59 CA        -11.1300  -51.4600  -65.0900 C.3       5 GLY6        0.0000 
     60 CA        -10.7800  -52.6400  -64.2300 C.3       5 GLY6        0.0000 
     61 CA        -10.4400  -53.8100  -63.3600 C.3       5 GLY6        0.0000 
     62 CA         -8.9300  -55.3100  -63.4000 C.3       5 GLY6        0.0000 
     63 CA         -7.7800  -55.6300  -64.3100 C.3       5 GLY6        0.0000 
     64 CA         -6.2800  -57.1300  -64.3400 C.3       5 GLY6        0.0000 
     65 CA         -6.8900  -54.7600  -63.4700 C.3       5 GLY6        0.0000 
     66 CA         -5.7300  -55.0800  -64.3800 C.3       5 GLY6        0.0000 
     67 CA         -5.3800  -56.2600  -63.5100 C.3       5 GLY6        0.0000 
     68 CA         -2.6200  -54.8600  -67.9500 C.3       5 GLY6        0.0000 
     69 CA         -4.8400  -54.2100  -63.5500 C.3       5 GLY6        0.0000 
     70 DU         -9.5600  -57.3800  -65.9700 H         6 CUB7        0.0000 
     71 DU         -9.4500  -54.1700  -69.4600 H         6 CUB7        0.0000 
     72 DU         -9.0200  -55.3300  -66.0000 H         6 CUB7        0.0000 
     73 DU         -8.6700  -56.5100  -65.1400 H         6 CUB7        0.0000 
     74 DU         -8.2100  -54.4700  -67.7600 H         6 CUB7        0.0000 
     75 DU         -7.8700  -55.6500  -66.9000 H         6 CUB7        0.0000 
     76 DU         -7.5200  -56.8300  -66.0400 H         6 CUB7        0.0000 
     77 DU         -7.1700  -58.0000  -65.1800 H         6 CUB7        0.0000 
     78 DU         -9.9800  -51.7800  -65.9900 H         6 CUB7        0.0000 
     79 DU         -9.6300  -52.9600  -65.1300 H         6 CUB7        0.0000 
     80 DU         -9.2800  -54.1400  -64.2700 H         6 CUB7        0.0000 
     81 DU         -8.4800  -53.2800  -66.0300 H         6 CUB7        0.0000 
     82 DU         -8.1300  -54.4600  -65.1700 H         6 CUB7        0.0000 
     83 DU         -6.9700  -54.7800  -66.0700 H         6 CUB7        0.0000 
     84 DU         -6.6300  -55.9500  -65.2100 H         6 CUB7        0.0000 
     85 DU         -5.4700  -56.2700  -66.1100 H         6 CUB7        0.0000 
     86 DU         -5.1200  -57.4500  -65.2500 H         6 CUB7        0.0000 
     87 DU         -7.5800  -52.4100  -65.2000 H         6 CUB7        0.0000 
     88 DU         -7.2400  -53.5800  -64.3400 H         6 CUB7        0.0000 
     89 DU         -6.0800  -53.9000  -65.2400 H         6 CUB7        0.0000 
     90 DU         -4.5800  -55.4000  -65.2800 H         6 CUB7        0.0000 
     91 DU         -4.2300  -56.5800  -64.4200 H         6 CUB7        0.0000 
     92 DU         -3.4200  -55.7200  -66.1800 H         6 CUB7        0.0000 
     93 DU         -5.1900  -53.0300  -64.4100 H         6 CUB7        0.0000 
@<TRIPOS>BOND
@<TRIPOS>SUBSTRUCTURE
     1 SER1        1 GROUP   
     2 ALA2        6 GROUP   
     3 ASP3       19 GROUP   
     4 LYS4       38 GROUP   
     5 GLY6       50 GROUP   
     6 CUB7       70 GROUP   
@<TRIPOS>SET

