#    Name: 6q93_8_ADP_CAVITY_N1_4
#    Modification time : Fri May 22 19:29:58 2020

@<TRIPOS>MOLECULE
6q93_8_ADP_CAVITY_N1_4
   89     0     6     0     0
SMALL
NO_CHARGES


@<TRIPOS>ATOM
      1 OG         20.6400  -43.5100  -69.6600 O.3       1 SER1        0.0000 
      2 OG         21.4400  -42.6500  -71.4300 O.3       1 SER1        0.0000 
      3 OG         21.7900  -43.8300  -70.5700 O.3       1 SER1        0.0000 
      4 OG         22.6000  -42.9700  -72.3300 O.3       1 SER1        0.0000 
      5 OG         22.9500  -44.1500  -71.4700 O.3       1 SER1        0.0000 
      6 N          18.4400  -39.6600  -71.3500 N.am      2 ALA2        0.0000 
      7 N          18.7900  -40.8300  -70.4900 N.am      2 ALA2        0.0000 
      8 N          19.9400  -41.1500  -71.3900 N.am      2 ALA2        0.0000 
      9 N          20.7500  -40.3000  -73.1600 N.am      2 ALA2        0.0000 
     10 N          21.0900  -41.4700  -72.2900 N.am      2 ALA2        0.0000 
     11 O          23.4000  -42.1100  -74.1000 O.2       2 ALA2        0.0000 
     12 N          19.3300  -38.7800  -70.5200 N.am      2 ALA2        0.0000 
     13 O          24.3000  -41.2400  -73.2700 O.2       2 ALA2        0.0000 
     14 N          23.2300  -40.9000  -69.7700 N.am      2 ALA2        0.0000 
     15 N          23.5800  -42.0800  -68.9100 N.am      2 ALA2        0.0000 
     16 N          24.3800  -41.2200  -70.6700 N.am      2 ALA2        0.0000 
     17 N          24.7300  -42.4000  -69.8100 N.am      2 ALA2        0.0000 
     18 N          22.9700  -39.7100  -68.0300 N.am      2 ALA2        0.0000 
     19 N          23.7700  -38.8500  -69.8000 N.am      2 ALA2        0.0000 
     20 OD1        18.3300  -42.8600  -67.8600 O.co2     3 ASP3        0.0000 
     21 OD1        21.9000  -40.6200  -74.0600 O.co2     3 ASP3        0.0000 
     22 OD1        22.2500  -41.7900  -73.2000 O.co2     3 ASP3        0.0000 
     23 OD1        23.0600  -40.9400  -74.9600 O.co2     3 ASP3        0.0000 
     24 OD1        19.2200  -41.9900  -67.0300 O.co2     3 ASP3        0.0000 
     25 OD1        20.3700  -42.3100  -67.9300 O.co2     3 ASP3        0.0000 
     26 OD1        20.4800  -39.1000  -71.4200 O.co2     3 ASP3        0.0000 
     27 OD1        20.8300  -40.2800  -70.5600 O.co2     3 ASP3        0.0000 
     28 OD1        21.9900  -40.6000  -71.4600 O.co2     3 ASP3        0.0000 
     29 OD1        23.1400  -40.9200  -72.3600 O.co2     3 ASP3        0.0000 
     30 OD1        19.8700  -36.7300  -70.5500 O.co2     3 ASP3        0.0000 
     31 OD1        21.2700  -41.4400  -67.1000 O.co2     3 ASP3        0.0000 
     32 OD1        21.3800  -38.2300  -70.5900 O.co2     3 ASP3        0.0000 
     33 OD1        22.8800  -39.7300  -70.6300 O.co2     3 ASP3        0.0000 
     34 OD1        24.0300  -40.0500  -71.5300 O.co2     3 ASP3        0.0000 
     35 OD1        22.2700  -37.3600  -69.7600 O.co2     3 ASP3        0.0000 
     36 OD1        23.4200  -37.6800  -70.6600 O.co2     3 ASP3        0.0000 
     37 NZ         15.8500  -42.2600  -71.2500 N.4       4 LYS4        0.0000 
     38 NZ         16.7400  -41.3900  -70.4200 N.4       4 LYS4        0.0000 
     39 NZ         17.0900  -42.5600  -69.5500 N.4       4 LYS4        0.0000 
     40 NZ         19.0500  -42.0300  -72.2200 N.4       4 LYS4        0.0000 
     41 NZ         19.1300  -42.0100  -69.6200 N.4       4 LYS4        0.0000 
     42 NZ         19.4800  -43.1900  -68.7600 N.4       4 LYS4        0.0000 
     43 NZ         20.2900  -42.3300  -70.5300 N.4       4 LYS4        0.0000 
     44 NZ         23.8600  -38.8300  -67.2000 N.4       4 LYS4        0.0000 
     45 CA         15.5000  -41.0800  -72.1100 C.3       5 GLY6        0.0000 
     46 CA         16.3900  -40.2100  -71.2800 C.3       5 GLY6        0.0000 
     47 CA         20.2000  -42.3500  -73.1200 C.3       5 GLY6        0.0000 
     48 CA         21.0100  -41.4900  -74.8900 C.3       5 GLY6        0.0000 
     49 CA         21.3600  -42.6700  -74.0300 C.3       5 GLY6        0.0000 
     50 CA         22.1600  -41.8100  -75.7900 C.3       5 GLY6        0.0000 
     51 CA         22.5100  -42.9900  -74.9300 C.3       5 GLY6        0.0000 
     52 CA         17.2800  -39.3400  -70.4500 C.3       5 GLY6        0.0000 
     53 CA         23.7500  -43.2900  -73.2400 C.3       5 GLY6        0.0000 
     54 CA         17.7200  -40.4900  -66.9900 C.3       5 GLY6        0.0000 
     55 CA         23.4900  -42.1000  -71.5000 C.3       5 GLY6        0.0000 
     56 CA         23.8400  -43.2700  -70.6400 C.3       5 GLY6        0.0000 
     57 CA         24.1900  -44.4500  -69.7800 C.3       5 GLY6        0.0000 
     58 CA         24.6400  -42.4200  -72.4000 C.3       5 GLY6        0.0000 
     59 CA         19.4200  -38.7600  -67.9200 C.3       5 GLY6        0.0000 
     60 CA         19.7600  -39.9400  -67.0600 C.3       5 GLY6        0.0000 
     61 CA         20.1100  -41.1200  -66.2000 C.3       5 GLY6        0.0000 
     62 CA         21.8100  -39.3900  -67.1300 C.3       5 GLY6        0.0000 
     63 CA         22.1600  -40.5600  -66.2700 C.3       5 GLY6        0.0000 
     64 CA         23.3100  -40.8800  -67.1700 C.3       5 GLY6        0.0000 
     65 DU         16.1300  -39.0100  -69.5500 H         6 CUB7        0.0000 
     66 DU         16.8300  -41.3700  -67.8200 H         6 CUB7        0.0000 
     67 DU         17.6300  -40.5100  -69.5900 H         6 CUB7        0.0000 
     68 DU         17.9800  -41.6900  -68.7200 H         6 CUB7        0.0000 
     69 DU         17.0200  -38.1400  -68.7100 H         6 CUB7        0.0000 
     70 DU         17.3700  -39.3200  -67.8500 H         6 CUB7        0.0000 
     71 DU         18.1800  -38.4600  -69.6200 H         6 CUB7        0.0000 
     72 DU         18.5200  -39.6400  -68.7500 H         6 CUB7        0.0000 
     73 DU         18.8700  -40.8100  -67.8900 H         6 CUB7        0.0000 
     74 DU         19.6800  -39.9600  -69.6600 H         6 CUB7        0.0000 
     75 DU         20.0300  -41.1400  -68.7900 H         6 CUB7        0.0000 
     76 DU         21.1800  -41.4600  -69.7000 H         6 CUB7        0.0000 
     77 DU         21.5300  -42.6300  -68.8300 H         6 CUB7        0.0000 
     78 DU         22.3400  -41.7800  -70.6000 H         6 CUB7        0.0000 
     79 DU         22.6800  -42.9500  -69.7400 H         6 CUB7        0.0000 
     80 DU         23.0300  -44.1300  -68.8700 H         6 CUB7        0.0000 
     81 DU         19.0700  -37.5900  -68.7900 H         6 CUB7        0.0000 
     82 DU         20.2200  -37.9100  -69.6900 H         6 CUB7        0.0000 
     83 DU         20.5700  -39.0900  -68.8300 H         6 CUB7        0.0000 
     84 DU         20.9200  -40.2600  -67.9600 H         6 CUB7        0.0000 
     85 DU         21.7300  -39.4100  -69.7300 H         6 CUB7        0.0000 
     86 DU         22.0700  -40.5800  -68.8700 H         6 CUB7        0.0000 
     87 DU         21.1200  -37.0300  -68.8600 H         6 CUB7        0.0000 
     88 DU         21.4600  -38.2100  -68.0000 H         6 CUB7        0.0000 
     89 DU         22.6200  -38.5300  -68.9000 H         6 CUB7        0.0000 
@<TRIPOS>BOND
@<TRIPOS>SUBSTRUCTURE
     1 SER1        1 GROUP   
     2 ALA2        6 GROUP   
     3 ASP3       20 GROUP   
     4 LYS4       37 GROUP   
     5 GLY6       45 GROUP   
     6 CUB7       65 GROUP   
@<TRIPOS>SET

