#    Name: 6q93_3_ADP
#    Modification time : Fri May 22 19:29:14 2020

@<TRIPOS>MOLECULE
6q93_3_ADP
   27    29     1     0     1
SMALL
NO_CHARGES


@<TRIPOS>ATOM
      1 PB        -12.8750  -50.5440  -65.1140 P.3       1 ADP1002     0.0000 
      2 O1B       -14.1810  -50.6250  -65.8270 O.co2     1 ADP1002     0.0000 
      3 O2B       -12.9030  -51.1600  -63.7090 O.co2     1 ADP1002     0.0000 
      4 O3B       -12.3230  -49.1170  -65.0110 O.co2     1 ADP1002     0.0000 
      5 PA        -10.3410  -51.1010  -66.4630 P.3       1 ADP1002     0.0000 
      6 O1A       -10.4140  -50.0680  -67.6060 O.co2     1 ADP1002     0.0000 
      7 O2A        -9.4400  -50.8030  -65.3190 O.co2     1 ADP1002     0.0000 
      8 O3A       -11.8180  -51.3790  -65.9610 O.3       1 ADP1002     0.0000 
      9 O5'       -10.0170  -52.5160  -67.1350 O.3       1 ADP1002     0.0000 
     10 C5'        -9.8150  -53.7350  -66.3850 C.3       1 ADP1002     0.0000 
     11 C4'        -8.6970  -54.5320  -67.0160 C.3       1 ADP1002     0.0000 
     12 O4'        -9.0120  -54.8140  -68.4020 O.3       1 ADP1002     0.0000 
     13 C3'        -7.3040  -53.8870  -66.9990 C.3       1 ADP1002     0.0000 
     14 O3'        -6.3370  -54.8650  -66.6360 O.3       1 ADP1002     0.0000 
     15 C2'        -7.1320  -53.3850  -68.4400 C.3       1 ADP1002     0.0000 
     16 O2'        -5.7870  -53.3990  -68.8840 O.3       1 ADP1002     0.0000 
     17 C1'        -7.9250  -54.4340  -69.2240 C.3       1 ADP1002     0.0000 
     18 N9         -8.4590  -53.9850  -70.5050 N.pl3     1 ADP1002     0.0000 
     19 C8         -9.4800  -53.0950  -70.7280 C.2       1 ADP1002     0.0000 
     20 N7         -9.8220  -52.9770  -71.9900 N.2       1 ADP1002     0.0000 
     21 C5         -8.9570  -53.8440  -72.6460 C.ar      1 ADP1002     0.0000 
     22 C6         -8.8010  -54.1850  -74.0040 C.ar      1 ADP1002     0.0000 
     23 N6         -9.5510  -53.6760  -74.9860 N.pl3     1 ADP1002     0.0000 
     24 N1         -7.8340  -55.0800  -74.3230 N.ar      1 ADP1002     0.0000 
     25 C2         -7.0700  -55.5800  -73.3470 C.ar      1 ADP1002     0.0000 
     26 N3         -7.1280  -55.3350  -72.0350 N.ar      1 ADP1002     0.0000 
     27 C4         -8.1040  -54.4610  -71.7440 C.ar      1 ADP1002     0.0000 
@<TRIPOS>BOND
     1    1    2 ar   
     2    1    3 ar   
     3    1    4 ar   
     4    1    8 1    
     5    5    6 ar   
     6    5    7 ar   
     7    5    8 1    
     8    5    9 1    
     9    9   10 1    
    10   10   11 1    
    11   11   12 1    
    12   11   13 1    
    13   12   17 1    
    14   13   14 1    
    15   13   15 1    
    16   15   16 1    
    17   15   17 1    
    18   17   18 1    
    19   18   19 1    
    20   18   27 1    
    21   19   20 2    
    22   20   21 1    
    23   21   22 ar   
    24   21   27 ar   
    25   22   23 1    
    26   22   24 ar   
    27   24   25 ar   
    28   25   26 ar   
    29   26   27 ar   
@<TRIPOS>SUBSTRUCTURE
     1 ADP1002     1 GROUP   
@<TRIPOS>SET
ATOM$ORANGE STATIC     ATOMS   COLORGROUP SYSTEM 
20 10 10 11 11 13 13 15 15 17 17 19 19 21 21 22 22 25 \
25 27 27 

