#    Name: 6q93_5_ADP_CAVITY_N1_4
#    Modification time : Fri May 22 19:29:34 2020

@<TRIPOS>MOLECULE
6q93_5_ADP_CAVITY_N1_4
   86     0     6     0     0
SMALL
NO_CHARGES


@<TRIPOS>ATOM
      1 OG          1.1100  -78.0700  -15.0500 O.3       1 SER1        0.0000 
      2 OG          4.6600  -79.0200  -15.1700 O.3       1 SER1        0.0000 
      3 OG          6.9700  -79.6600  -16.9700 O.3       1 SER1        0.0000 
      4 OG          7.6600  -82.0100  -15.2400 O.3       1 SER1        0.0000 
      5 OG          8.4700  -81.1600  -17.0100 O.3       1 SER1        0.0000 
      6 OG          8.8200  -82.3300  -16.1500 O.3       1 SER1        0.0000 
      7 OG          5.5500  -78.1400  -14.3300 O.3       1 SER1        0.0000 
      8 OG          6.7000  -78.4600  -15.2400 O.3       1 SER1        0.0000 
      9 OG          7.0500  -79.6400  -14.3700 O.3       1 SER1        0.0000 
     10 OG          7.8600  -78.7900  -16.1400 O.3       1 SER1        0.0000 
     11 OG          8.2100  -79.9600  -15.2800 O.3       1 SER1        0.0000 
     12 O           3.1600  -77.5200  -15.1300 O.2       2 ALA2        0.0000 
     13 O           4.3100  -77.8400  -16.0300 O.2       2 ALA2        0.0000 
     14 O           8.1200  -79.9800  -17.8700 O.2       2 ALA2        0.0000 
     15 O           8.6700  -77.9300  -17.9100 O.2       2 ALA2        0.0000 
     16 N           6.7900  -78.4500  -12.6400 N.am      2 ALA2        0.0000 
     17 N           7.2500  -76.4100  -15.2700 N.am      2 ALA2        0.0000 
     18 N           8.4000  -76.7300  -16.1700 N.am      2 ALA2        0.0000 
     19 N           8.1400  -75.5400  -14.4400 N.am      2 ALA2        0.0000 
     20 N           9.3000  -75.8600  -15.3400 N.am      2 ALA2        0.0000 
     21 N           9.0300  -74.6700  -13.6100 N.am      2 ALA2        0.0000 
     22 N          10.1900  -74.9900  -14.5100 N.am      2 ALA2        0.0000 
     23 OD1         2.0000  -77.2000  -14.2200 O.co2     3 ASP3        0.0000 
     24 OD1         9.1700  -83.5100  -15.2800 O.co2     3 ASP3        0.0000 
     25 OD1         4.0500  -76.6500  -14.3000 O.co2     3 ASP3        0.0000 
     26 OD1         4.4000  -77.8200  -13.4300 O.co2     3 ASP3        0.0000 
     27 OD1         5.2000  -76.9700  -15.2000 O.co2     3 ASP3        0.0000 
     28 OD1         9.7100  -81.4600  -15.3200 O.co2     3 ASP3        0.0000 
     29 OD1         9.8200  -78.2500  -18.8100 O.co2     3 ASP3        0.0000 
     30 OD1         6.0900  -76.0900  -14.3700 O.co2     3 ASP3        0.0000 
     31 OD1         6.4400  -77.2700  -13.5000 O.co2     3 ASP3        0.0000 
     32 OD1        10.2500  -79.4100  -15.3500 O.co2     3 ASP3        0.0000 
     33 OD1        10.6000  -80.5800  -14.4900 O.co2     3 ASP3        0.0000 
     34 OD1        10.9500  -81.7600  -13.6200 O.co2     3 ASP3        0.0000 
     35 OD1        11.0600  -78.5500  -17.1100 O.co2     3 ASP3        0.0000 
     36 OD1         6.9900  -75.2200  -13.5400 O.co2     3 ASP3        0.0000 
     37 OD1         7.3400  -76.4000  -12.6700 O.co2     3 ASP3        0.0000 
     38 OD1        11.1500  -78.5300  -14.5200 O.co2     3 ASP3        0.0000 
     39 OD1        11.4900  -79.7100  -13.6500 O.co2     3 ASP3        0.0000 
     40 OD1         7.8800  -74.3500  -12.7100 O.co2     3 ASP3        0.0000 
     41 NZ          5.9000  -79.3200  -13.4700 N.4       4 LYS4        0.0000 
     42 NZ          8.5600  -81.1400  -14.4100 N.4       4 LYS4        0.0000 
     43 NZ          8.9000  -82.3100  -13.5500 N.4       4 LYS4        0.0000 
     44 NZ         10.0600  -82.6300  -14.4500 N.4       4 LYS4        0.0000 
     45 NZ          7.4900  -80.8000  -10.9100 N.4       4 LYS4        0.0000 
     46 NZ          7.8400  -81.9800  -10.0500 N.4       4 LYS4        0.0000 
     47 NZ          8.2900  -79.9400  -12.6800 N.4       4 LYS4        0.0000 
     48 NZ          8.6400  -81.1200  -11.8200 N.4       4 LYS4        0.0000 
     49 NZ          8.9900  -82.3000  -10.9500 N.4       4 LYS4        0.0000 
     50 NZ          9.8000  -81.4400  -12.7200 N.4       4 LYS4        0.0000 
     51 CA          2.2600  -78.3900  -15.9600 C.3       5 GLY6        0.0000 
     52 CA          2.3500  -78.3800  -13.3600 C.3       5 GLY6        0.0000 
     53 CA          3.5000  -78.7000  -14.2600 C.3       5 GLY6        0.0000 
     54 CA          6.3600  -77.2900  -16.1000 C.3       5 GLY6        0.0000 
     55 CA          7.5100  -77.6100  -17.0000 C.3       5 GLY6        0.0000 
     56 CA          6.6800  -81.6600   -9.1500 C.3       5 GLY6        0.0000 
     57 CA          9.5600  -77.0600  -17.0700 C.3       5 GLY6        0.0000 
     58 CA          9.9100  -78.2300  -16.2100 C.3       5 GLY6        0.0000 
     59 CA         10.8000  -77.3600  -15.3800 C.3       5 GLY6        0.0000 
     60 CA         11.9500  -77.6800  -16.2800 C.3       5 GLY6        0.0000 
     61 CA         11.2300  -78.5200  -11.9200 C.3       5 GLY6        0.0000 
     62 CA         11.3400  -75.3100  -15.4100 C.3       5 GLY6        0.0000 
     63 CA         11.6900  -76.4800  -14.5500 C.3       5 GLY6        0.0000 
     64 DU          9.0100  -79.1100  -17.0400 H         6 CUB7        0.0000 
     65 DU          9.3600  -80.2800  -16.1800 H         6 CUB7        0.0000 
     66 DU          7.6000  -77.5900  -14.4100 H         6 CUB7        0.0000 
     67 DU          7.9500  -78.7700  -13.5400 H         6 CUB7        0.0000 
     68 DU          8.7500  -77.9100  -15.3100 H         6 CUB7        0.0000 
     69 DU          9.1000  -79.0900  -14.4500 H         6 CUB7        0.0000 
     70 DU          9.4500  -80.2600  -13.5800 H         6 CUB7        0.0000 
     71 DU          8.7300  -81.1000   -9.2200 H         6 CUB7        0.0000 
     72 DU          8.4900  -76.7200  -13.5800 H         6 CUB7        0.0000 
     73 DU          9.1900  -79.0700  -11.8500 H         6 CUB7        0.0000 
     74 DU          9.5300  -80.2500  -10.9900 H         6 CUB7        0.0000 
     75 DU          9.8800  -81.4200  -10.1200 H         6 CUB7        0.0000 
     76 DU          9.6400  -77.0400  -14.4800 H         6 CUB7        0.0000 
     77 DU          9.9900  -78.2100  -13.6200 H         6 CUB7        0.0000 
     78 DU         10.3400  -79.3900  -12.7500 H         6 CUB7        0.0000 
     79 DU         10.6900  -80.5700  -11.8900 H         6 CUB7        0.0000 
     80 DU          9.3800  -75.8400  -12.7400 H         6 CUB7        0.0000 
     81 DU          9.7300  -77.0200  -11.8800 H         6 CUB7        0.0000 
     82 DU         10.0800  -78.2000  -11.0200 H         6 CUB7        0.0000 
     83 DU         10.4300  -79.3700  -10.1600 H         6 CUB7        0.0000 
     84 DU         10.5400  -76.1600  -13.6500 H         6 CUB7        0.0000 
     85 DU         10.8800  -77.3400  -12.7800 H         6 CUB7        0.0000 
     86 DU         11.5800  -79.6900  -11.0600 H         6 CUB7        0.0000 
@<TRIPOS>BOND
@<TRIPOS>SUBSTRUCTURE
     1 SER1        1 GROUP   
     2 ALA2       12 GROUP   
     3 ASP3       23 GROUP   
     4 LYS4       41 GROUP   
     5 GLY6       51 GROUP   
     6 CUB7       64 GROUP   
@<TRIPOS>SET

