#    Name: 6q93_5_ADP
#    Modification time : Fri May 22 19:29:32 2020

@<TRIPOS>MOLECULE
6q93_5_ADP
   27    29     1     0     1
SMALL
NO_CHARGES


@<TRIPOS>ATOM
      1 PB          9.7810  -78.2040  -19.7800 P.3       1 ADP1002     0.0000 
      2 O1B         9.1470  -77.3090  -20.7880 O.co2     1 ADP1002     0.0000 
      3 O2B        11.2110  -77.8030  -19.3680 O.co2     1 ADP1002     0.0000 
      4 O3B         9.8380  -79.6730  -20.2230 O.co2     1 ADP1002     0.0000 
      5 PA          8.3480  -79.2460  -17.4220 P.3       1 ADP1002     0.0000 
      6 O1A         7.2300  -80.0120  -18.1420 O.co2     1 ADP1002     0.0000 
      7 O2A         9.4390  -80.0330  -16.8210 O.co2     1 ADP1002     0.0000 
      8 O3A         8.9150  -78.1630  -18.4380 O.3       1 ADP1002     0.0000 
      9 O5'         7.6920  -78.2890  -16.3370 O.3       1 ADP1002     0.0000 
     10 C5'         8.4280  -77.4620  -15.4090 C.3       1 ADP1002     0.0000 
     11 C4'         7.7330  -77.4690  -14.0650 C.3       1 ADP1002     0.0000 
     12 O4'         6.3700  -77.0160  -14.2140 O.3       1 ADP1002     0.0000 
     13 C3'         7.6620  -78.8120  -13.3250 C.3       1 ADP1002     0.0000 
     14 O3'         7.9620  -78.6430  -11.9420 O.3       1 ADP1002     0.0000 
     15 C2'         6.2180  -79.2740  -13.5700 C.3       1 ADP1002     0.0000 
     16 O2'         5.7090  -80.0640  -12.5010 O.3       1 ADP1002     0.0000 
     17 C1'         5.4850  -77.9390  -13.6100 C.3       1 ADP1002     0.0000 
     18 N9          4.2310  -77.9400  -14.3560 N.pl3     1 ADP1002     0.0000 
     19 C8          4.0660  -78.0060  -15.7150 C.2       1 ADP1002     0.0000 
     20 N7          2.8260  -77.8580  -16.1140 N.2       1 ADP1002     0.0000 
     21 C5          2.1190  -77.6890  -14.9320 C.ar      1 ADP1002     0.0000 
     22 C6          0.7510  -77.4720  -14.6620 C.ar      1 ADP1002     0.0000 
     23 N6         -0.1840  -77.3570  -15.6090 N.pl3     1 ADP1002     0.0000 
     24 N1          0.3740  -77.3610  -13.3670 N.ar      1 ADP1002     0.0000 
     25 C2          1.3080  -77.4500  -12.4130 C.ar      1 ADP1002     0.0000 
     26 N3          2.6250  -77.6420  -12.5470 N.ar      1 ADP1002     0.0000 
     27 C4          2.9710  -77.7520  -13.8390 C.ar      1 ADP1002     0.0000 
@<TRIPOS>BOND
     1    1    2 ar   
     2    1    3 ar   
     3    1    4 ar   
     4    1    8 1    
     5    5    6 ar   
     6    5    7 ar   
     7    5    8 1    
     8    5    9 1    
     9    9   10 1    
    10   10   11 1    
    11   11   12 1    
    12   11   13 1    
    13   12   17 1    
    14   13   14 1    
    15   13   15 1    
    16   15   16 1    
    17   15   17 1    
    18   17   18 1    
    19   18   19 1    
    20   18   27 1    
    21   19   20 2    
    22   20   21 1    
    23   21   22 ar   
    24   21   27 ar   
    25   22   23 1    
    26   22   24 ar   
    27   24   25 ar   
    28   25   26 ar   
    29   26   27 ar   
@<TRIPOS>SUBSTRUCTURE
     1 ADP1002     1 GROUP   
@<TRIPOS>SET
ATOM$ORANGE STATIC     ATOMS   COLORGROUP SYSTEM 
20 10 10 11 11 13 13 15 15 17 17 19 19 21 21 22 22 25 \
25 27 27 

