#    Name: 6q93_4_ADP
#    Modification time : Fri May 22 19:29:24 2020

@<TRIPOS>MOLECULE
6q93_4_ADP
   27    29     1     0     1
SMALL
NO_CHARGES


@<TRIPOS>ATOM
      1 PB        -22.8650  -63.5780  -58.2730 P.3       1 ADP301      0.0000 
      2 O1B       -23.2690  -62.3560  -59.0780 O.co2     1 ADP301      0.0000 
      3 O2B       -21.5940  -63.3880  -57.5250 O.co2     1 ADP301      0.0000 
      4 O3B       -24.0290  -63.9990  -57.3900 O.co2     1 ADP301      0.0000 
      5 PA        -23.5270  -66.0380  -59.7440 P.3       1 ADP301      0.0000 
      6 O1A       -24.8570  -65.6470  -60.2300 O.co2     1 ADP301      0.0000 
      7 O2A       -23.4580  -67.0560  -58.5870 O.co2     1 ADP301      0.0000 
      8 O3A       -22.6810  -64.7530  -59.3310 O.3       1 ADP301      0.0000 
      9 O5'       -22.6000  -66.5900  -60.9350 O.3       1 ADP301      0.0000 
     10 C5'       -22.4100  -65.9510  -62.2160 C.3       1 ADP301      0.0000 
     11 C4'       -22.3560  -67.0060  -63.2980 C.3       1 ADP301      0.0000 
     12 O4'       -21.2830  -67.9400  -63.0380 O.3       1 ADP301      0.0000 
     13 C3'       -23.6230  -67.8430  -63.5170 C.3       1 ADP301      0.0000 
     14 O3'       -23.8730  -67.9920  -64.9120 O.3       1 ADP301      0.0000 
     15 C2'       -23.2800  -69.1730  -62.8370 C.3       1 ADP301      0.0000 
     16 O2'       -23.9410  -70.2760  -63.4420 O.3       1 ADP301      0.0000 
     17 C1'       -21.7800  -69.2620  -63.1050 C.3       1 ADP301      0.0000 
     18 N9        -21.0370  -70.0840  -62.1570 N.pl3     1 ADP301      0.0000 
     19 C8        -20.7490  -69.8010  -60.8470 C.2       1 ADP301      0.0000 
     20 N7        -19.9580  -70.6760  -60.2710 N.2       1 ADP301      0.0000 
     21 C5        -19.7080  -71.6020  -61.2750 C.ar      1 ADP301      0.0000 
     22 C6        -18.9050  -72.7620  -61.3250 C.ar      1 ADP301      0.0000 
     23 N6        -18.1290  -73.1690  -60.3210 N.pl3     1 ADP301      0.0000 
     24 N1        -18.8890  -73.4710  -62.4780 N.ar      1 ADP301      0.0000 
     25 C2        -19.6030  -73.0250  -63.5180 C.ar      1 ADP301      0.0000 
     26 N3        -20.3640  -71.9290  -63.6010 N.ar      1 ADP301      0.0000 
     27 C4        -20.3810  -71.2580  -62.4370 C.ar      1 ADP301      0.0000 
@<TRIPOS>BOND
     1    1    2 ar   
     2    1    3 ar   
     3    1    4 ar   
     4    1    8 1    
     5    5    6 ar   
     6    5    7 ar   
     7    5    8 1    
     8    5    9 1    
     9    9   10 1    
    10   10   11 1    
    11   11   12 1    
    12   11   13 1    
    13   12   17 1    
    14   13   14 1    
    15   13   15 1    
    16   15   16 1    
    17   15   17 1    
    18   17   18 1    
    19   18   19 1    
    20   18   27 1    
    21   19   20 2    
    22   20   21 1    
    23   21   22 ar   
    24   21   27 ar   
    25   22   23 1    
    26   22   24 ar   
    27   24   25 ar   
    28   25   26 ar   
    29   26   27 ar   
@<TRIPOS>SUBSTRUCTURE
     1 ADP301      1 GROUP   
@<TRIPOS>SET
ATOM$ORANGE STATIC     ATOMS   COLORGROUP SYSTEM 
20 10 10 11 11 13 13 15 15 17 17 19 19 21 21 22 22 25 \
25 27 27 

