#    Name: 6q93_1_ADP
#    Modification time : Fri May 22 19:28:55 2020

@<TRIPOS>MOLECULE
6q93_1_ADP
   27    29     1     0     1
SMALL
NO_CHARGES


@<TRIPOS>ATOM
      1 PB         -4.6880  -32.0260  -19.2910 P.3       1 ADP1002     0.0000 
      2 O1B        -3.9060  -31.3340  -20.4370 O.co2     1 ADP1002     0.0000 
      3 O2B        -5.3810  -31.0720  -18.3720 O.co2     1 ADP1002     0.0000 
      4 O3B        -5.6260  -33.0270  -19.9590 O.co2     1 ADP1002     0.0000 
      5 PA         -3.2040  -34.3740  -18.3260 P.3       1 ADP1002     0.0000 
      6 O1A        -2.8040  -34.9230  -19.6560 O.co2     1 ADP1002     0.0000 
      7 O2A        -4.3170  -35.1130  -17.6020 O.co2     1 ADP1002     0.0000 
      8 O3A        -3.6350  -32.8440  -18.4100 O.3       1 ADP1002     0.0000 
      9 O5'        -1.9650  -34.2370  -17.3350 O.3       1 ADP1002     0.0000 
     10 C5'        -0.6920  -33.6410  -17.6640 C.3       1 ADP1002     0.0000 
     11 C4'         0.4250  -34.4320  -17.0230 C.3       1 ADP1002     0.0000 
     12 O4'         0.2590  -34.4730  -15.5860 O.3       1 ADP1002     0.0000 
     13 C3'         0.5800  -35.8800  -17.4840 C.3       1 ADP1002     0.0000 
     14 O3'         1.9680  -36.1680  -17.6320 O.3       1 ADP1002     0.0000 
     15 C2'        -0.0600  -36.6710  -16.3410 C.3       1 ADP1002     0.0000 
     16 O2'         0.5130  -37.9580  -16.1910 O.3       1 ADP1002     0.0000 
     17 C1'         0.3100  -35.8100  -15.1330 C.3       1 ADP1002     0.0000 
     18 N9         -0.5830  -35.9450  -13.9820 N.pl3     1 ADP1002     0.0000 
     19 C8         -1.8870  -35.5280  -13.8800 C.2       1 ADP1002     0.0000 
     20 N7         -2.4170  -35.7070  -12.6930 N.2       1 ADP1002     0.0000 
     21 C5         -1.3910  -36.2840  -11.9590 C.ar      1 ADP1002     0.0000 
     22 C6         -1.3040  -36.7170  -10.6180 C.ar      1 ADP1002     0.0000 
     23 N6         -2.2950  -36.5970   -9.7260 N.pl3     1 ADP1002     0.0000 
     24 N1         -0.1410  -37.2700  -10.2110 N.ar      1 ADP1002     0.0000 
     25 C2          0.8660  -37.3740  -11.0860 C.ar      1 ADP1002     0.0000 
     26 N3          0.9000  -37.0070  -12.3720 N.ar      1 ADP1002     0.0000 
     27 C4         -0.2610  -36.4560  -12.7460 C.ar      1 ADP1002     0.0000 
@<TRIPOS>BOND
     1    1    2 ar   
     2    1    3 ar   
     3    1    4 ar   
     4    1    8 1    
     5    5    6 ar   
     6    5    7 ar   
     7    5    8 1    
     8    5    9 1    
     9    9   10 1    
    10   10   11 1    
    11   11   12 1    
    12   11   13 1    
    13   12   17 1    
    14   13   14 1    
    15   13   15 1    
    16   15   16 1    
    17   15   17 1    
    18   17   18 1    
    19   18   19 1    
    20   18   27 1    
    21   19   20 2    
    22   20   21 1    
    23   21   22 ar   
    24   21   27 ar   
    25   22   23 1    
    26   22   24 ar   
    27   24   25 ar   
    28   25   26 ar   
    29   26   27 ar   
@<TRIPOS>SUBSTRUCTURE
     1 ADP1002     1 GROUP   
@<TRIPOS>SET
ATOM$ORANGE STATIC     ATOMS   COLORGROUP SYSTEM 
20 10 10 11 11 13 13 15 15 17 17 19 19 21 21 22 22 25 \
25 27 27 

