#    Name: 6q93_7_ADP_CAVITY_N1_4
#    Modification time : Fri May 22 19:29:50 2020

@<TRIPOS>MOLECULE
6q93_7_ADP_CAVITY_N1_4
  105     0     6     0     0
SMALL
NO_CHARGES


@<TRIPOS>ATOM
      1 OG         35.2000  -27.5300  -64.1900 O.3       1 SER1        0.0000 
      2 OG         35.5500  -28.7100  -63.3300 O.3       1 SER1        0.0000 
      3 OG         34.5900  -25.1600  -63.3200 O.3       1 SER1        0.0000 
      4 OG         35.7500  -25.4800  -64.2200 O.3       1 SER1        0.0000 
      5 OG         36.7900  -29.0100  -61.6300 O.3       1 SER1        0.0000 
      6 OG         37.6000  -28.1500  -63.4000 O.3       1 SER1        0.0000 
      7 OG         37.9400  -29.3300  -62.5400 O.3       1 SER1        0.0000 
      8 OG         38.8400  -28.4600  -61.7100 O.3       1 SER1        0.0000 
      9 OG         39.7300  -27.5800  -60.8800 O.3       1 SER1        0.0000 
     10 N          32.5200  -30.1500  -66.6800 N.am      2 ALA2        0.0000 
     11 N          32.2600  -28.9600  -64.9500 N.am      2 ALA2        0.0000 
     12 N          33.4200  -29.2800  -65.8500 N.am      2 ALA2        0.0000 
     13 N          34.9200  -30.7800  -65.8900 N.am      2 ALA2        0.0000 
     14 O          31.6500  -26.5900  -64.0800 O.2       2 ALA2        0.0000 
     15 O          33.5000  -29.2600  -63.2600 O.2       2 ALA2        0.0000 
     16 O          33.2600  -24.8800  -67.6100 O.2       2 ALA2        0.0000 
     17 N          34.6600  -29.5800  -64.1600 N.am      2 ALA2        0.0000 
     18 O          34.7700  -26.3700  -67.6500 O.2       2 ALA2        0.0000 
     19 O          35.1100  -27.5500  -66.7900 O.2       2 ALA2        0.0000 
     20 O          36.2700  -27.8700  -67.6900 O.2       2 ALA2        0.0000 
     21 O          37.0800  -27.0100  -69.4600 O.2       2 ALA2        0.0000 
     22 O          32.2000  -24.5400  -64.1100 O.2       2 ALA2        0.0000 
     23 O          32.5400  -25.7100  -63.2500 O.2       2 ALA2        0.0000 
     24 O          32.8900  -26.8900  -62.3900 O.2       2 ALA2        0.0000 
     25 O          33.0000  -23.6800  -65.8800 O.2       2 ALA2        0.0000 
     26 O          35.0900  -30.7400  -60.7000 O.2       2 ALA2        0.0000 
     27 O          34.5000  -25.1800  -65.9200 O.2       2 ALA2        0.0000 
     28 O          34.8500  -26.3500  -65.0500 O.2       2 ALA2        0.0000 
     29 O          36.0100  -26.6800  -65.9600 O.2       2 ALA2        0.0000 
     30 O          37.1600  -27.0000  -66.8600 O.2       2 ALA2        0.0000 
     31 O          37.9700  -26.1400  -68.6300 O.2       2 ALA2        0.0000 
     32 O          38.8600  -25.2700  -67.8000 O.2       2 ALA2        0.0000 
     33 N          41.2300  -29.0800  -60.9200 N.am      2 ALA2        0.0000 
     34 OD1        33.0700  -28.1000  -66.7200 O.co2     3 ASP3        0.0000 
     35 OD1        31.3000  -25.4100  -64.9400 O.co2     3 ASP3        0.0000 
     36 OD1        32.8100  -26.9100  -64.9800 O.co2     3 ASP3        0.0000 
     37 OD1        33.6100  -26.0500  -66.7500 O.co2     3 ASP3        0.0000 
     38 OD1        33.9600  -27.2300  -65.8900 O.co2     3 ASP3        0.0000 
     39 OD1        38.4700  -31.7200  -66.0000 O.co2     3 ASP3        0.0000 
     40 OD1        33.3500  -24.8600  -65.0200 O.co2     3 ASP3        0.0000 
     41 OD1        36.2500  -31.0600  -61.6000 O.co2     3 ASP3        0.0000 
     42 OD1        38.2100  -30.5300  -64.2700 O.co2     3 ASP3        0.0000 
     43 OD1        39.3600  -30.8500  -65.1700 O.co2     3 ASP3        0.0000 
     44 OD1        39.1000  -29.6500  -63.4400 O.co2     3 ASP3        0.0000 
     45 OD1        40.2500  -29.9700  -64.3400 O.co2     3 ASP3        0.0000 
     46 NZ         37.5100  -28.1700  -66.0000 N.4       4 LYS4        0.0000 
     47 NZ         38.4000  -27.3000  -65.1700 N.4       4 LYS4        0.0000 
     48 NZ         38.7500  -28.4800  -64.3000 N.4       4 LYS4        0.0000 
     49 NZ         39.2100  -26.4400  -66.9300 N.4       4 LYS4        0.0000 
     50 NZ         39.5600  -27.6200  -66.0700 N.4       4 LYS4        0.0000 
     51 NZ         39.9000  -28.8000  -65.2100 N.4       4 LYS4        0.0000 
     52 NZ         40.3600  -26.7600  -67.8300 N.4       4 LYS4        0.0000 
     53 NZ         39.6400  -27.6000  -63.4700 N.4       4 LYS4        0.0000 
     54 NZ         39.9900  -28.7800  -62.6100 N.4       4 LYS4        0.0000 
     55 NZ         41.1500  -29.1000  -63.5100 N.4       4 LYS4        0.0000 
     56 NZ         40.8800  -27.9000  -61.7800 N.4       4 LYS4        0.0000 
     57 CA         35.1800  -31.9700  -67.6300 C.3       5 GLY6        0.0000 
     58 CA         35.2700  -31.9500  -65.0300 C.3       5 GLY6        0.0000 
     59 CA         36.4200  -32.2700  -65.9300 C.3       5 GLY6        0.0000 
     60 CA         37.2300  -31.4200  -67.7000 C.3       5 GLY6        0.0000 
     61 CA         38.0300  -30.5600  -69.4600 C.3       5 GLY6        0.0000 
     62 CA         32.1100  -24.5600  -66.7100 C.3       5 GLY6        0.0000 
     63 CA         33.1500  -28.0800  -64.1200 C.3       5 GLY6        0.0000 
     64 CA         35.0000  -30.7600  -63.3000 C.3       5 GLY6        0.0000 
     65 CA         35.3500  -31.9300  -62.4300 C.3       5 GLY6        0.0000 
     66 CA         36.1600  -31.0800  -64.2000 C.3       5 GLY6        0.0000 
     67 CA         36.5100  -32.2500  -63.3400 C.3       5 GLY6        0.0000 
     68 CA         37.3100  -31.4000  -65.1000 C.3       5 GLY6        0.0000 
     69 CA         39.2700  -30.8600  -67.7700 C.3       5 GLY6        0.0000 
     70 CA         31.8500  -23.3600  -64.9800 C.3       5 GLY6        0.0000 
     71 CA         34.0500  -27.2100  -63.2900 C.3       5 GLY6        0.0000 
     72 CA         35.9000  -29.8800  -62.4700 C.3       5 GLY6        0.0000 
     73 CA         37.4000  -31.3800  -62.5100 C.3       5 GLY6        0.0000 
     74 CA         39.1200  -26.4600  -69.5300 C.3       5 GLY6        0.0000 
     75 CA         33.0900  -23.6600  -63.2800 C.3       5 GLY6        0.0000 
     76 CA         33.4400  -24.8400  -62.4200 C.3       5 GLY6        0.0000 
     77 CA         34.2400  -23.9800  -64.1800 C.3       5 GLY6        0.0000 
     78 CA         37.1400  -30.1900  -60.7700 C.3       5 GLY6        0.0000 
     79 DU         34.8300  -30.7900  -68.4900 H         6 CUB7        0.0000 
     80 DU         35.3800  -28.7400  -68.5200 H         6 CUB7        0.0000 
     81 DU         36.0700  -31.1000  -66.8000 H         6 CUB7        0.0000 
     82 DU         36.1800  -27.8900  -70.2900 H         6 CUB7        0.0000 
     83 DU         36.8800  -30.2400  -68.5600 H         6 CUB7        0.0000 
     84 DU         37.6900  -29.3800  -70.3300 H         6 CUB7        0.0000 
     85 DU         34.3100  -28.4100  -65.0200 H         6 CUB7        0.0000 
     86 DU         35.4600  -28.7300  -65.9300 H         6 CUB7        0.0000 
     87 DU         35.8100  -29.9000  -65.0600 H         6 CUB7        0.0000 
     88 DU         36.9700  -30.2200  -65.9700 H         6 CUB7        0.0000 
     89 DU         37.7700  -29.3700  -67.7300 H         6 CUB7        0.0000 
     90 DU         38.1200  -30.5400  -66.8700 H         6 CUB7        0.0000 
     91 DU         38.2300  -27.3300  -70.3600 H         6 CUB7        0.0000 
     92 DU         38.5800  -28.5100  -69.5000 H         6 CUB7        0.0000 
     93 DU         38.9300  -29.6900  -68.6300 H         6 CUB7        0.0000 
     94 DU         33.7000  -26.0300  -64.1500 H         6 CUB7        0.0000 
     95 DU         36.3600  -27.8500  -65.0900 H         6 CUB7        0.0000 
     96 DU         36.7000  -29.0300  -64.2300 H         6 CUB7        0.0000 
     97 DU         37.0500  -30.2000  -63.3700 H         6 CUB7        0.0000 
     98 DU         37.8600  -29.3500  -65.1300 H         6 CUB7        0.0000 
     99 DU         38.3200  -27.3200  -67.7600 H         6 CUB7        0.0000 
    100 DU         38.6600  -28.4900  -66.9000 H         6 CUB7        0.0000 
    101 DU         39.0100  -29.6700  -66.0400 H         6 CUB7        0.0000 
    102 DU         39.4700  -27.6400  -68.6700 H         6 CUB7        0.0000 
    103 DU         39.8200  -28.8100  -67.8000 H         6 CUB7        0.0000 
    104 DU         40.1700  -29.9900  -66.9400 H         6 CUB7        0.0000 
    105 DU         40.7100  -27.9400  -66.9700 H         6 CUB7        0.0000 
@<TRIPOS>BOND
@<TRIPOS>SUBSTRUCTURE
     1 SER1        1 GROUP   
     2 ALA2       10 GROUP   
     3 ASP3       34 GROUP   
     4 LYS4       46 GROUP   
     5 GLY6       57 GROUP   
     6 CUB7       79 GROUP   
@<TRIPOS>SET

