#    Name: 6q93_6_ADP_CAVITY_N1_4
#    Modification time : Fri May 22 19:29:42 2020

@<TRIPOS>MOLECULE
6q93_6_ADP_CAVITY_N1_4
  100     0     6     0     0
SMALL
NO_CHARGES


@<TRIPOS>ATOM
      1 OG         13.3000  -58.2800  -16.4600 O.3       1 SER1        0.0000 
      2 OG         14.1100  -57.4300  -18.2300 O.3       1 SER1        0.0000 
      3 OG         14.4600  -58.6100  -17.3600 O.3       1 SER1        0.0000 
      4 OG         15.2600  -57.7500  -19.1300 O.3       1 SER1        0.0000 
      5 OG         15.6100  -58.9300  -18.2700 O.3       1 SER1        0.0000 
      6 OG         16.4200  -58.0700  -20.0300 O.3       1 SER1        0.0000 
      7 OG         16.7700  -59.2500  -19.1700 O.3       1 SER1        0.0000 
      8 OG         14.1900  -57.4100  -15.6300 O.3       1 SER1        0.0000 
      9 OG         14.5400  -58.5900  -14.7700 O.3       1 SER1        0.0000 
     10 OG         15.7000  -58.9100  -15.6700 O.3       1 SER1        0.0000 
     11 N          11.3200  -63.2600  -17.2300 N.am      2 ALA2        0.0000 
     12 N          11.8700  -61.2100  -17.2600 N.am      2 ALA2        0.0000 
     13 N          12.2100  -62.3800  -16.4000 N.am      2 ALA2        0.0000 
     14 N          13.0200  -61.5300  -18.1600 N.am      2 ALA2        0.0000 
     15 N           9.7500  -57.3400  -16.3500 N.am      2 ALA2        0.0000 
     16 N          10.5600  -56.4800  -18.1200 N.am      2 ALA2        0.0000 
     17 N          10.9100  -57.6600  -17.2500 N.am      2 ALA2        0.0000 
     18 N          13.9100  -60.6600  -17.3300 N.am      2 ALA2        0.0000 
     19 N          15.0700  -60.9800  -18.2300 N.am      2 ALA2        0.0000 
     20 O          16.2200  -61.3000  -19.1400 O.2       2 ALA2        0.0000 
     21 N          11.8000  -56.7900  -16.4200 N.am      2 ALA2        0.0000 
     22 N          12.1500  -57.9600  -15.5600 N.am      2 ALA2        0.0000 
     23 N          12.6900  -55.9100  -15.5900 N.am      2 ALA2        0.0000 
     24 N          13.0400  -57.0900  -14.7300 N.am      2 ALA2        0.0000 
     25 O          14.8900  -59.7600  -13.9000 O.2       2 ALA2        0.0000 
     26 O          14.6300  -58.5700  -12.1700 O.2       2 ALA2        0.0000 
     27 OD1         9.2100  -59.3900  -16.3200 O.co2     3 ASP3        0.0000 
     28 OD1         9.5600  -60.5700  -15.4500 O.co2     3 ASP3        0.0000 
     29 OD1        10.3600  -59.7100  -17.2200 O.co2     3 ASP3        0.0000 
     30 OD1        10.7100  -60.8900  -16.3600 O.co2     3 ASP3        0.0000 
     31 OD1        11.0600  -62.0600  -15.4900 O.co2     3 ASP3        0.0000 
     32 OD1        13.1300  -58.3200  -21.6500 O.co2     3 ASP3        0.0000 
     33 OD1        10.1000  -58.5200  -15.4900 O.co2     3 ASP3        0.0000 
     34 OD1        11.2600  -58.8400  -16.3900 O.co2     3 ASP3        0.0000 
     35 OD1        12.7600  -60.3300  -16.4300 O.co2     3 ASP3        0.0000 
     36 OD1        13.1100  -61.5100  -15.5700 O.co2     3 ASP3        0.0000 
     37 OD1        13.6500  -59.4600  -15.6000 O.co2     3 ASP3        0.0000 
     38 OD1        14.0000  -60.6400  -14.7400 O.co2     3 ASP3        0.0000 
     39 OD1        13.3900  -58.2700  -13.8600 O.co2     3 ASP3        0.0000 
     40 OD1        13.1300  -57.0700  -12.1300 O.co2     3 ASP3        0.0000 
     41 OD1        13.4700  -58.2500  -11.2700 O.co2     3 ASP3        0.0000 
     42 NZ         10.9700  -62.0800  -18.0900 N.4       4 LYS4        0.0000 
     43 NZ          7.7100  -57.8900  -16.2800 N.4       4 LYS4        0.0000 
     44 NZ         10.2100  -55.3100  -18.9800 N.4       4 LYS4        0.0000 
     45 NZ         11.3700  -55.6300  -19.8800 N.4       4 LYS4        0.0000 
     46 NZ         11.7100  -56.8100  -19.0200 N.4       4 LYS4        0.0000 
     47 NZ         12.0600  -57.9800  -18.1600 N.4       4 LYS4        0.0000 
     48 NZ         12.5200  -55.9500  -20.7800 N.4       4 LYS4        0.0000 
     49 NZ         12.8700  -57.1300  -19.9200 N.4       4 LYS4        0.0000 
     50 NZ         13.2200  -58.3000  -19.0600 N.4       4 LYS4        0.0000 
     51 NZ         13.6700  -56.2700  -21.6900 N.4       4 LYS4        0.0000 
     52 NZ         14.0200  -57.4500  -20.8200 N.4       4 LYS4        0.0000 
     53 NZ         14.8300  -56.5900  -22.5900 N.4       4 LYS4        0.0000 
     54 NZ         15.1800  -57.7700  -21.7300 N.4       4 LYS4        0.0000 
     55 NZ         11.1000  -54.4300  -18.1500 N.4       4 LYS4        0.0000 
     56 NZ         11.4500  -55.6100  -17.2800 N.4       4 LYS4        0.0000 
     57 NZ         12.9500  -57.1100  -17.3200 N.4       4 LYS4        0.0000 
     58 NZ         14.9100  -56.5700  -19.9900 N.4       4 LYS4        0.0000 
     59 NZ         13.8500  -56.2300  -16.4900 N.4       4 LYS4        0.0000 
     60 CA          9.5800  -57.3800  -21.5400 C.3       5 GLY6        0.0000 
     61 CA          9.9300  -58.5500  -20.6800 C.3       5 GLY6        0.0000 
     62 CA         10.2800  -59.7300  -19.8200 C.3       5 GLY6        0.0000 
     63 CA         12.1300  -62.4000  -18.9900 C.3       5 GLY6        0.0000 
     64 CA          9.0600  -54.9900  -18.0800 C.3       5 GLY6        0.0000 
     65 CA          9.4100  -56.1600  -17.2100 C.3       5 GLY6        0.0000 
     66 CA          9.9500  -54.1100  -17.2500 C.3       5 GLY6        0.0000 
     67 CA         14.8000  -59.7800  -16.5000 C.3       5 GLY6        0.0000 
     68 CA         15.1500  -60.9600  -15.6400 C.3       5 GLY6        0.0000 
     69 CA         15.9600  -60.1000  -17.4000 C.3       5 GLY6        0.0000 
     70 CA         16.0700  -56.8900  -20.9000 C.3       5 GLY6        0.0000 
     71 CA         17.1100  -60.4200  -18.3100 C.3       5 GLY6        0.0000 
     72 CA         14.2800  -57.3900  -13.0300 C.3       5 GLY6        0.0000 
     73 CA         15.0900  -56.5400  -14.8000 C.3       5 GLY6        0.0000 
     74 CA         15.4400  -57.7100  -13.9400 C.3       5 GLY6        0.0000 
     75 CA         15.1700  -56.5200  -12.2000 C.3       5 GLY6        0.0000 
     76 DU          7.6200  -57.9100  -18.8800 H         6 CUB7        0.0000 
     77 DU          7.9700  -59.0900  -18.0100 H         6 CUB7        0.0000 
     78 DU          8.3200  -60.2600  -17.1500 H         6 CUB7        0.0000 
     79 DU          8.4300  -57.0600  -20.6400 H         6 CUB7        0.0000 
     80 DU          8.7700  -58.2300  -19.7800 H         6 CUB7        0.0000 
     81 DU          9.1200  -59.4100  -18.9100 H         6 CUB7        0.0000 
     82 DU          9.4700  -60.5800  -18.0500 H         6 CUB7        0.0000 
     83 DU          9.8200  -61.7600  -17.1900 H         6 CUB7        0.0000 
     84 DU         10.6300  -60.9100  -18.9500 H         6 CUB7        0.0000 
     85 DU          8.1600  -55.8600  -18.9100 H         6 CUB7        0.0000 
     86 DU          8.5100  -57.0400  -18.0400 H         6 CUB7        0.0000 
     87 DU          8.8600  -58.2100  -17.1800 H         6 CUB7        0.0000 
     88 DU          9.6700  -57.3600  -18.9500 H         6 CUB7        0.0000 
     89 DU         10.0200  -58.5300  -18.0800 H         6 CUB7        0.0000 
     90 DU         10.4700  -56.5000  -20.7100 H         6 CUB7        0.0000 
     91 DU         10.8200  -57.6800  -19.8500 H         6 CUB7        0.0000 
     92 DU         11.1700  -58.8600  -18.9900 H         6 CUB7        0.0000 
     93 DU         11.5200  -60.0300  -18.1200 H         6 CUB7        0.0000 
     94 DU         11.6300  -56.8200  -21.6200 H         6 CUB7        0.0000 
     95 DU         11.9800  -58.0000  -20.7500 H         6 CUB7        0.0000 
     96 DU         12.4100  -59.1600  -17.2900 H         6 CUB7        0.0000 
     97 DU         13.5600  -59.4800  -18.2000 H         6 CUB7        0.0000 
     98 DU         14.3700  -58.6200  -19.9600 H         6 CUB7        0.0000 
     99 DU         14.7200  -59.8000  -19.1000 H         6 CUB7        0.0000 
    100 DU         15.8700  -60.1200  -20.0000 H         6 CUB7        0.0000 
@<TRIPOS>BOND
@<TRIPOS>SUBSTRUCTURE
     1 SER1        1 GROUP   
     2 ALA2       11 GROUP   
     3 ASP3       27 GROUP   
     4 LYS4       42 GROUP   
     5 GLY6       60 GROUP   
     6 CUB7       76 GROUP   
@<TRIPOS>SET

