#    Name: 6dwg_1_FMN
#    Modification time : Fri May 22 19:31:49 2020

@<TRIPOS>MOLECULE
6dwg_1_FMN
   31    33     1     0     1
SMALL
NO_CHARGES


@<TRIPOS>ATOM
      1 N1         11.9920  -55.6150   -0.7360 N.2       1 FMN401      0.0000 
      2 C2         12.6390  -56.5170   -1.5730 C.2       1 FMN401      0.0000 
      3 O2         13.6470  -57.1040   -1.1810 O.2       1 FMN401      0.0000 
      4 N3         12.1380  -56.7510   -2.8490 N.am      1 FMN401      0.0000 
      5 C4         10.9920  -56.0950   -3.2900 C.2       1 FMN401      0.0000 
      6 O4         10.5810  -56.3160   -4.4270 O.2       1 FMN401      0.0000 
      7 C4A        10.3470  -55.1960   -2.4530 C.2       1 FMN401      0.0000 
      8 N5          9.2370  -54.5590   -2.8570 N.2       1 FMN401      0.0000 
      9 C5A         8.8210  -53.4780   -2.1810 C.ar      1 FMN401      0.0000 
     10 C6          7.8690  -52.6150   -2.7410 C.ar      1 FMN401      0.0000 
     11 C7          7.4440  -51.4810   -2.0430 C.ar      1 FMN401      0.0000 
     12 C7M         6.5120  -50.6210   -2.6290 C.3       1 FMN401      0.0000 
     13 C8          7.9690  -51.2200   -0.7700 C.ar      1 FMN401      0.0000 
     14 C8M         7.5700  -50.1010   -0.0330 C.3       1 FMN401      0.0000 
     15 C9          8.9020  -52.0960   -0.2130 C.ar      1 FMN401      0.0000 
     16 C9A         9.3160  -53.2360   -0.8990 C.ar      1 FMN401      0.0000 
     17 N10        10.2450  -54.0640   -0.3760 N.pl3     1 FMN401      0.0000 
     18 C10        10.8410  -54.9630   -1.1710 C.2       1 FMN401      0.0000 
     19 C1'        10.8410  -53.7620    0.9490 C.3       1 FMN401      0.0000 
     20 C2'        11.9050  -52.6580    0.7360 C.3       1 FMN401      0.0000 
     21 O2'        12.9630  -53.1790   -0.0810 O.3       1 FMN401      0.0000 
     22 C3'        12.5530  -52.2100    2.0440 C.3       1 FMN401      0.0000 
     23 O3'        13.1500  -53.3890    2.5700 O.3       1 FMN401      0.0000 
     24 C4'        11.5430  -51.5980    3.0520 C.3       1 FMN401      0.0000 
     25 O4'        10.6100  -50.7510    2.3770 O.3       1 FMN401      0.0000 
     26 C5'        12.2530  -50.8440    4.2190 C.3       1 FMN401      0.0000 
     27 O5'        12.6850  -49.5470    3.8130 O.3       1 FMN401      0.0000 
     28 P          11.9240  -48.2280    4.1480 P.3       1 FMN401      0.0000 
     29 O1P        11.7250  -48.3040    5.6020 O.co2     1 FMN401      0.0000 
     30 O2P        10.6700  -48.2420    3.3510 O.co2     1 FMN401      0.0000 
     31 O3P        13.0310  -47.4350    3.6380 O.co2     1 FMN401      0.0000 
@<TRIPOS>BOND
     1    1    2 1    
     2    1   18 2    
     3    2    3 2    
     4    2    4 am   
     5    4    5 am   
     6    5    6 2    
     7    5    7 1    
     8    7    8 2    
     9    7   18 1    
    10    8    9 1    
    11    9   10 ar   
    12    9   16 ar   
    13   10   11 ar   
    14   11   12 1    
    15   11   13 ar   
    16   13   14 1    
    17   13   15 ar   
    18   15   16 ar   
    19   16   17 1    
    20   17   18 1    
    21   17   19 1    
    22   19   20 1    
    23   20   21 1    
    24   20   22 1    
    25   22   23 1    
    26   22   24 1    
    27   24   25 1    
    28   24   26 1    
    29   26   27 1    
    30   27   28 1    
    31   28   29 ar   
    32   28   30 ar   
    33   28   31 ar   
@<TRIPOS>SUBSTRUCTURE
     1 FMN401      1 GROUP   
@<TRIPOS>SET
ATOM$ORANGE STATIC     ATOMS   COLORGROUP SYSTEM 
34 2 2 5 5 7 7 9 9 10 10 11 11 12 12 13 13 14 \
14 15 15 16 16 18 18 19 19 20 20 22 22 24 24 26 26 

