#    Name: 6a75_1_COD
#    Modification time : Fri May 22 19:25:13 2020

@<TRIPOS>MOLECULE
6a75_1_COD
   44    46     1     0     0
SMALL
NO_CHARGES


@<TRIPOS>ATOM
      1 N1         37.1670  -16.9900  -15.1230 N.ar      1 COD202      0.0000 
      2 C2         37.1450  -16.4050  -16.3370 C.ar      1 COD202      0.0000 
      3 N3         36.2580  -15.4620  -16.6950 N.ar      1 COD202      0.0000 
      4 C4         35.3620  -15.0240  -15.8270 C.ar      1 COD202      0.0000 
      5 C5         35.2920  -15.5930  -14.4730 C.ar      1 COD202      0.0000 
      6 C6         36.2770  -16.6490  -14.1750 C.ar      1 COD202      0.0000 
      7 N7         36.3070  -17.2690  -12.9870 N.pl3     1 COD202      0.0000 
      8 N8         34.2700  -14.9940  -13.8230 N.2       1 COD202      0.0000 
      9 C9         33.7630  -14.1030  -14.7370 C.2       1 COD202      0.0000 
     10 N10        34.4310  -14.1170  -15.9240 N.pl3     1 COD202      0.0000 
     11 C11        34.1750  -13.3180  -17.1660 C.3       1 COD202      0.0000 
     12 C12        32.6840  -13.4430  -17.5530 C.3       1 COD202      0.0000 
     13 O13        32.4450  -14.5750  -18.4380 O.3       1 COD202      0.0000 
     14 C14        32.3320  -12.0470  -18.0900 C.3       1 COD202      0.0000 
     15 O15        32.4250  -12.0050  -19.5080 O.3       1 COD202      0.0000 
     16 C16        33.3620  -11.0900  -17.4500 C.3       1 COD202      0.0000 
     17 O17        34.5070  -11.9080  -17.0670 O.3       1 COD202      0.0000 
     18 C18        32.7710  -10.2740  -16.2750 C.3       1 COD202      0.0000 
     19 O19        31.9880  -11.1210  -15.3910 O.3       1 COD202      0.0000 
     20 P20        30.8560  -10.5940  -14.3630 P.3       1 COD202      0.0000 
     21 O21        30.3190  -11.8370  -13.6810 O.co2     1 COD202      0.0000 
     22 O22        31.5370   -9.5780  -13.5470 O.co2     1 COD202      0.0000 
     23 O23        29.8190   -9.5910  -15.1610 O.3       1 COD202      0.0000 
     24 P24        28.6950   -9.8660  -16.3250 P.3       1 COD202      0.0000 
     25 O25        29.1120  -11.2210  -16.8540 O.co2     1 COD202      0.0000 
     26 O26        27.2860   -9.6260  -15.7720 O.co2     1 COD202      0.0000 
     27 O27        28.8380   -8.8890  -17.6350 O.3       1 COD202      0.0000 
     28 C28        28.3920   -7.5320  -17.7570 C.3       1 COD202      0.0000 
     29 C29        27.6150   -7.2860  -19.0450 C.3       1 COD202      0.0000 
     30 C30        28.0830   -8.1150  -20.2530 C.3       1 COD202      0.0000 
     31 C31        26.1620   -7.7290  -18.7970 C.3       1 COD202      0.0000 
     32 C32        27.8940   -5.7710  -19.2950 C.3       1 COD202      0.0000 
     33 O33        29.0690   -5.6310  -20.1060 O.3       1 COD202      0.0000 
     34 C34        26.8000   -4.9340  -19.9390 C.2       1 COD202      0.0000 
     35 O35        25.6350   -5.0860  -19.6330 O.2       1 COD202      0.0000 
     36 N36        27.1930   -3.9320  -20.7360 N.am      1 COD202      0.0000 
     37 C37        26.4070   -2.7230  -21.0500 C.3       1 COD202      0.0000 
     38 C38        24.9910   -2.8300  -21.5990 C.3       1 COD202      0.0000 
     39 C39        24.8570   -3.0680  -23.1190 C.2       1 COD202      0.0000 
     40 O40        25.4510   -2.3400  -23.9620 O.2       1 COD202      0.0000 
     41 N41        23.9750   -4.0870  -23.3820 N.am      1 COD202      0.0000 
     42 C42        23.4610   -4.5430  -24.6680 C.3       1 COD202      0.0000 
     43 C43        24.2790   -4.1080  -25.8680 C.3       1 COD202      0.0000 
     44 S44        25.9630   -4.7480  -25.6320 S.3       1 COD202      0.0000 
@<TRIPOS>BOND
     1    1    2 ar   
     2    1    6 ar   
     3    2    3 ar   
     4    3    4 ar   
     5    4    5 ar   
     6    4   10 1    
     7    5    6 ar   
     8    5    8 1    
     9    6    7 1    
    10    8    9 2    
    11    9   10 1    
    12   10   11 1    
    13   11   12 1    
    14   11   17 1    
    15   12   13 1    
    16   12   14 1    
    17   14   15 1    
    18   14   16 1    
    19   16   17 1    
    20   16   18 1    
    21   18   19 1    
    22   19   20 1    
    23   20   21 ar   
    24   20   22 ar   
    25   20   23 1    
    26   23   24 1    
    27   24   25 ar   
    28   24   26 ar   
    29   24   27 1    
    30   27   28 1    
    31   28   29 1    
    32   29   30 1    
    33   29   31 1    
    34   29   32 1    
    35   32   33 1    
    36   32   34 1    
    37   34   35 2    
    38   34   36 am   
    39   36   37 1    
    40   37   38 1    
    41   38   39 1    
    42   39   40 2    
    43   39   41 am   
    44   41   42 1    
    45   42   43 1    
    46   43   44 1    
@<TRIPOS>SUBSTRUCTURE
     1 COD202      1 GROUP   
@<TRIPOS>SET

