#    Name: 6a75_1_COD_CAVITY_N1_ALL
#    Modification time : Fri May 22 19:25:15 2020

@<TRIPOS>MOLECULE
6a75_1_COD_CAVITY_N1_ALL
   70     0     7     0     0
SMALL
NO_CHARGES


@<TRIPOS>ATOM
      1 OG         35.8400  -14.0300  -16.8000 O.3       1 SER1        0.0000 
      2 OG         34.9300  -12.8500  -16.9800 O.3       1 SER1        0.0000 
      3 OG         34.0200  -11.6700  -17.1500 O.3       1 SER1        0.0000 
      4 OG         28.1000  -10.2300  -15.3100 O.3       1 SER1        0.0000 
      5 OG         36.3800  -13.4300  -15.5400 O.3       1 SER1        0.0000 
      6 OG         33.6500   -9.8800  -16.0700 O.3       1 SER1        0.0000 
      7 OG         35.3100  -14.1300  -14.7500 O.3       1 SER1        0.0000 
      8 OG         34.4000  -12.9500  -14.9200 O.3       1 SER1        0.0000 
      9 OG         33.5000  -11.7700  -15.1000 O.3       1 SER1        0.0000 
     10 OG         32.5900  -10.5800  -15.2800 O.3       1 SER1        0.0000 
     11 OG         31.5200  -11.2800  -14.4900 O.3       1 SER1        0.0000 
     12 OG         29.5500  -10.8000  -13.8700 O.3       1 SER1        0.0000 
     13 O          34.3900  -13.4600  -18.2400 O.2       2 ALA2        0.0000 
     14 O          33.4800  -12.2700  -18.4200 O.2       2 ALA2        0.0000 
     15 N          33.3200  -14.1600  -17.4500 N.am      2 ALA2        0.0000 
     16 N          32.2100   -9.3100  -17.5100 N.am      2 ALA2        0.0000 
     17 O          29.1700   -9.5300  -16.1000 O.2       2 ALA2        0.0000 
     18 N          35.1500  -16.0100  -13.7800 N.am      2 ALA2        0.0000 
     19 O          30.6200  -10.1000  -14.6600 O.2       2 ALA2        0.0000 
     20 OD1        30.9700  -12.4000  -19.0600 O.co2     3 ASP3        0.0000 
     21 OD1        28.9900  -11.9200  -18.4500 O.co2     3 ASP3        0.0000 
     22 OD1        32.5700  -11.0900  -18.5900 O.co2     3 ASP3        0.0000 
     23 OD1        31.5100  -11.7900  -17.8000 O.co2     3 ASP3        0.0000 
     24 OD1        29.5400  -11.3100  -17.1900 O.co2     3 ASP3        0.0000 
     25 OD1        28.6300  -10.1300  -17.3600 O.co2     3 ASP3        0.0000 
     26 OD1        29.3800  -13.1900  -16.2200 O.co2     3 ASP3        0.0000 
     27 OD1        28.3100  -13.8900  -15.4300 O.co2     3 ASP3        0.0000 
     28 OD1        33.1100  -10.4900  -17.3300 O.co2     3 ASP3        0.0000 
     29 OD1        33.8600  -13.5500  -16.1900 O.co2     3 ASP3        0.0000 
     30 OD1        32.9600  -12.3700  -16.3600 O.co2     3 ASP3        0.0000 
     31 OD1        32.0500  -11.1900  -16.5400 O.co2     3 ASP3        0.0000 
     32 OD1        31.1400  -10.0100  -16.7200 O.co2     3 ASP3        0.0000 
     33 OD1        33.7100  -15.4300  -15.2200 O.co2     3 ASP3        0.0000 
     34 OD1        31.8900  -13.0700  -15.5700 O.co2     3 ASP3        0.0000 
     35 OD1        30.9800  -11.8900  -15.7500 O.co2     3 ASP3        0.0000 
     36 OD1        29.9200  -12.5900  -14.9600 O.co2     3 ASP3        0.0000 
     37 OD1        29.0100  -11.4100  -15.1300 O.co2     3 ASP3        0.0000 
     38 OD1        34.2500  -14.8300  -13.9600 O.co2     3 ASP3        0.0000 
     39 NZ         29.3600  -13.7000  -19.5300 N.4       4 LYS4        0.0000 
     40 NZ         28.3000  -14.4000  -18.7400 N.4       4 LYS4        0.0000 
     41 NZ         28.1400  -16.2800  -17.7700 N.4       4 LYS4        0.0000 
     42 NZ         30.8100  -14.2800  -18.0900 N.4       4 LYS4        0.0000 
     43 CZ         35.8500  -13.5200  -13.4800 C.ar      5 PHE5        0.0000 
     44 CA         36.2000  -15.8200  -17.8900 C.3       6 GLY6        0.0000 
     45 CA         35.2900  -14.6400  -18.0600 C.3       6 GLY6        0.0000 
     46 CA         35.1400  -16.5200  -17.0900 C.3       6 GLY6        0.0000 
     47 CA         34.2300  -15.3400  -17.2700 C.3       6 GLY6        0.0000 
     48 CA         37.6500  -16.4000  -16.4500 C.3       6 GLY6        0.0000 
     49 CA         36.7400  -15.2100  -16.6200 C.3       6 GLY6        0.0000 
     50 CA         36.5900  -17.1000  -15.6500 C.3       6 GLY6        0.0000 
     51 CA         35.6800  -15.9100  -15.8300 C.3       6 GLY6        0.0000 
     52 CA         30.2300   -8.8300  -16.8900 C.3       6 GLY6        0.0000 
     53 CA         34.6100  -16.6100  -15.0400 C.3       6 GLY6        0.0000 
     54 CA         37.2800  -14.6100  -15.3600 C.3       6 GLY6        0.0000 
     55 CA         32.7500   -8.7000  -16.2500 C.3       6 GLY6        0.0000 
     56 CA         37.1300  -16.4900  -14.3900 C.3       6 GLY6        0.0000 
     57 CA         36.2200  -15.3100  -14.5700 C.3       6 GLY6        0.0000 
     58 CA         31.6800   -9.4000  -15.4500 C.3       6 GLY6        0.0000 
     59 DU         29.9000  -13.1000  -18.2700 H         7 CUB7        0.0000 
     60 DU         28.8400  -13.8000  -17.4800 H         7 CUB7        0.0000 
     61 DU         27.9300  -12.6200  -17.6600 H         7 CUB7        0.0000 
     62 DU         27.7700  -14.5000  -16.6900 H         7 CUB7        0.0000 
     63 DU         32.4200  -12.9700  -17.6200 H         7 CUB7        0.0000 
     64 DU         30.4400  -12.4900  -17.0100 H         7 CUB7        0.0000 
     65 DU         28.4700  -12.0100  -16.4000 H         7 CUB7        0.0000 
     66 DU         27.5600  -10.8300  -16.5700 H         7 CUB7        0.0000 
     67 DU         27.4100  -12.7100  -15.6000 H         7 CUB7        0.0000 
     68 DU         34.7700  -14.7300  -16.0100 H         7 CUB7        0.0000 
     69 DU         30.0800  -10.7100  -15.9200 H         7 CUB7        0.0000 
     70 DU         27.9500  -12.1100  -14.3400 H         7 CUB7        0.0000 
@<TRIPOS>BOND
@<TRIPOS>SUBSTRUCTURE
     1 SER1        1 GROUP   
     2 ALA2       13 GROUP   
     3 ASP3       20 GROUP   
     4 LYS4       39 GROUP   
     5 PHE5       43 GROUP   
     6 GLY6       44 GROUP   
     7 CUB7       59 GROUP   
@<TRIPOS>SET

