#    Name: 6mze_7_GTP_CAVITY_N1_6
#    Modification time : Fri May 22 19:34:41 2020

@<TRIPOS>MOLECULE
6mze_7_GTP_CAVITY_N1_6
   77     0     7     0     0
SMALL
NO_CHARGES


@<TRIPOS>ATOM
      1 OG        227.6400  -18.8500  195.8300 O.3       1 SER1        0.0000 
      2 OG        227.7400  -20.3400  195.7800 O.3       1 SER1        0.0000 
      3 OG        228.7000  -17.2400  194.9400 O.3       1 SER1        0.0000 
      4 OG        228.5700  -18.8100  197.0000 O.3       1 SER1        0.0000 
      5 OG        230.9100  -18.5900  195.1300 O.3       1 SER1        0.0000 
      6 OG        231.0200  -20.0900  195.0900 O.3       1 SER1        0.0000 
      7 OG        231.8400  -18.5600  196.3100 O.3       1 SER1        0.0000 
      8 N         229.4900  -21.5700  190.6000 N.am      2 ALA2        0.0000 
      9 O         230.3200  -20.0400  191.8100 O.2       2 ALA2        0.0000 
     10 O         230.4300  -21.5400  191.7700 O.2       2 ALA2        0.0000 
     11 O         230.5300  -23.0400  191.7300 O.2       2 ALA2        0.0000 
     12 O         228.5900  -15.7400  194.9800 O.2       2 ALA2        0.0000 
     13 N         230.1900  -21.6200  193.8800 N.am      2 ALA2        0.0000 
     14 O         231.2500  -20.0100  192.9800 O.2       2 ALA2        0.0000 
     15 O         231.3600  -21.5100  192.9400 O.2       2 ALA2        0.0000 
     16 N         233.3700  -16.8000  191.2000 N.am      2 ALA2        0.0000 
     17 O         233.4800  -18.2900  191.1600 O.2       2 ALA2        0.0000 
     18 N         234.6500  -18.1800  190.2300 N.am      2 ALA2        0.0000 
     19 N         227.3000  -17.4300  197.9800 N.am      2 ALA2        0.0000 
     20 N         229.2900  -15.7900  198.2600 N.am      2 ALA2        0.0000 
     21 O         229.4000  -17.2800  198.2200 O.2       2 ALA2        0.0000 
     22 O         230.5700  -17.1700  197.2800 O.2       2 ALA2        0.0000 
     23 O         231.7400  -17.0600  196.3500 O.2       2 ALA2        0.0000 
     24 N         230.9400  -12.7300  200.6900 N.am      2 ALA2        0.0000 
     25 N         231.1600  -15.7200  200.6000 N.am      2 ALA2        0.0000 
     26 OD1       227.4200  -15.8500  195.9100 O.co2     3 ASP3        0.0000 
     27 OD1       227.1900  -15.9300  198.0200 O.co2     3 ASP3        0.0000 
     28 OD1       228.3600  -15.8200  197.0800 O.co2     3 ASP3        0.0000 
     29 OD1       228.1200  -15.9000  199.1900 O.co2     3 ASP3        0.0000 
     30 OD1       228.2300  -17.3900  199.1500 O.co2     3 ASP3        0.0000 
     31 OD1       228.9500  -14.3700  200.4100 O.co2     3 ASP3        0.0000 
     32 OD1       229.0600  -15.8600  200.3600 O.co2     3 ASP3        0.0000 
     33 OD1       229.1600  -17.3600  200.3200 O.co2     3 ASP3        0.0000 
     34 OD1       228.7100  -14.4400  202.5100 O.co2     3 ASP3        0.0000 
     35 OD1       229.8800  -14.3300  201.5800 O.co2     3 ASP3        0.0000 
     36 OD1       229.9900  -15.8300  201.5400 O.co2     3 ASP3        0.0000 
     37 NZ        227.9800  -20.2600  193.6800 N.4       4 LYS4        0.0000 
     38 NZ        229.2600  -21.6500  192.7000 N.4       4 LYS4        0.0000 
     39 NZ        229.3600  -23.1500  192.6600 N.4       4 LYS4        0.0000 
     40 NZ        229.0200  -21.7300  194.8100 N.4       4 LYS4        0.0000 
     41 CZ        231.1400  -18.5100  193.0300 C.ar      5 PHE5        0.0000 
     42 CZ        232.3100  -18.4000  192.0900 C.ar      5 PHE5        0.0000 
     43 CZ        231.9700  -16.9800  194.2400 C.ar      5 PHE5        0.0000 
     44 CZ        232.0800  -18.4800  194.2000 C.ar      5 PHE5        0.0000 
     45 CZ        233.1400  -16.8700  193.3100 C.ar      5 PHE5        0.0000 
     46 CZ        232.9000  -16.9500  195.4100 C.ar      5 PHE5        0.0000 
     47 CA        228.2200  -20.1900  191.5700 C.3       6 GLY6        0.0000 
     48 CA        228.3200  -21.6800  191.5300 C.3       6 GLY6        0.0000 
     49 CA        229.3800  -20.0800  190.6400 C.3       6 GLY6        0.0000 
     50 CA        227.8700  -18.7700  193.7200 C.3       6 GLY6        0.0000 
     51 CA        229.0400  -18.6600  192.7900 C.3       6 GLY6        0.0000 
     52 CA        229.1500  -20.1500  192.7400 C.3       6 GLY6        0.0000 
     53 CA        230.2100  -18.5500  191.8500 C.3       6 GLY6        0.0000 
     54 CA        231.3800  -18.4400  190.9200 C.3       6 GLY6        0.0000 
     55 CA        232.4400  -16.8300  190.0300 C.3       6 GLY6        0.0000 
     56 CA        232.5500  -18.3300  189.9900 C.3       6 GLY6        0.0000 
     57 CA        226.2500  -15.9600  196.8400 C.3       6 GLY6        0.0000 
     58 CA        226.3600  -17.4600  196.8000 C.3       6 GLY6        0.0000 
     59 CA        227.5300  -17.3500  195.8700 C.3       6 GLY6        0.0000 
     60 CA        228.9100  -20.2300  194.8500 C.3       6 GLY6        0.0000 
     61 CA        229.8700  -17.1300  194.0000 C.3       6 GLY6        0.0000 
     62 CA        231.0400  -17.0200  193.0700 C.3       6 GLY6        0.0000 
     63 CA        231.4700  -23.0000  192.9000 C.3       6 GLY6        0.0000 
     64 CA        232.2100  -16.9100  192.1300 C.3       6 GLY6        0.0000 
     65 CA        229.5300  -15.7100  196.1500 C.3       6 GLY6        0.0000 
     66 CA        229.7400  -18.7000  196.0700 C.3       6 GLY6        0.0000 
     67 CA        229.8500  -20.2000  196.0200 C.3       6 GLY6        0.0000 
     68 CA        230.6900  -15.6000  195.2200 C.3       6 GLY6        0.0000 
     69 CA        231.8600  -15.4900  194.2800 C.3       6 GLY6        0.0000 
     70 CA        233.0300  -15.3800  193.3500 C.3       6 GLY6        0.0000 
     71 CA        229.5100  -18.7800  198.1700 C.3       6 GLY6        0.0000 
     72 DU        228.8100  -18.7300  194.8900 H         7 CUB7        0.0000 
     73 DU        229.9800  -18.6200  193.9600 H         7 CUB7        0.0000 
     74 DU        230.0800  -20.1200  193.9200 H         7 CUB7        0.0000 
     75 DU        228.4600  -17.3200  197.0400 H         7 CUB7        0.0000 
     76 DU        229.6300  -17.2100  196.1100 H         7 CUB7        0.0000 
     77 DU        230.8000  -17.1000  195.1800 H         7 CUB7        0.0000 
@<TRIPOS>BOND
@<TRIPOS>SUBSTRUCTURE
     1 SER1        1 GROUP   
     2 ALA2        8 GROUP   
     3 ASP3       26 GROUP   
     4 LYS4       37 GROUP   
     5 PHE5       41 GROUP   
     6 GLY6       47 GROUP   
     7 CUB7       72 GROUP   
@<TRIPOS>SET

