#    Name: 6mze_6_GDP
#    Modification time : Fri May 22 19:34:24 2020

@<TRIPOS>MOLECULE
6mze_6_GDP
   28    30     1     0     1
SMALL
NO_CHARGES


@<TRIPOS>ATOM
      1 PB        186.0450   -5.9800  135.8300 P.3       1 GDP600      0.0000 
      2 O1B       186.3390   -4.7310  135.0350 O.co2     1 GDP600      0.0000 
      3 O2B       184.5700   -6.2990  135.7680 O.co2     1 GDP600      0.0000 
      4 O3B       186.4470   -5.7540  137.2680 O.co2     1 GDP600      0.0000 
      5 O3A       186.8980   -7.2180  135.2570 O.3       1 GDP600      0.0000 
      6 PA        186.6130   -7.8930  133.8230 P.3       1 GDP600      0.0000 
      7 O1A       187.7020   -7.5500  132.8300 O.co2     1 GDP600      0.0000 
      8 O2A       185.2380   -7.5290  133.3060 O.co2     1 GDP600      0.0000 
      9 O5'       186.6810   -9.4500  134.2300 O.3       1 GDP600      0.0000 
     10 C5'       187.5710  -10.3640  133.5950 C.3       1 GDP600      0.0000 
     11 C4'       186.7720  -11.5400  133.0570 C.3       1 GDP600      0.0000 
     12 O4'       185.9180  -11.0420  132.0310 O.3       1 GDP600      0.0000 
     13 C3'       187.6570  -12.5880  132.4100 C.3       1 GDP600      0.0000 
     14 O3'       186.9850  -13.8470  132.4910 O.3       1 GDP600      0.0000 
     15 C2'       187.7200  -12.1360  130.9700 C.3       1 GDP600      0.0000 
     16 O2'       187.8990  -13.2650  130.1130 O.3       1 GDP600      0.0000 
     17 C1'       186.3480  -11.5180  130.7560 C.3       1 GDP600      0.0000 
     18 N9        186.3670  -10.3790  129.8050 N.pl3     1 GDP600      0.0000 
     19 C8        186.9960   -9.2000  129.9800 C.2       1 GDP600      0.0000 
     20 N7        186.7960   -8.3770  128.9170 N.2       1 GDP600      0.0000 
     21 C5        186.0080   -9.0360  128.0430 C.2       1 GDP600      0.0000 
     22 C6        185.4020   -8.7650  126.7160 C.2       1 GDP600      0.0000 
     23 O6        185.5910   -7.6730  126.1390 O.2       1 GDP600      0.0000 
     24 N1        184.6470   -9.7210  126.1510 N.am      1 GDP600      0.0000 
     25 C2        184.4220  -10.9090  126.7430 C.2       1 GDP600      0.0000 
     26 N2        183.6470  -11.8260  126.1100 N.pl3     1 GDP600      0.0000 
     27 N3        184.9450  -11.2240  127.9570 N.2       1 GDP600      0.0000 
     28 C4        185.7260  -10.3500  128.6380 C.2       1 GDP600      0.0000 
@<TRIPOS>BOND
     1    1    2 ar   
     2    1    3 ar   
     3    1    4 ar   
     4    1    5 1    
     5    5    6 1    
     6    6    7 ar   
     7    6    8 ar   
     8    6    9 1    
     9    9   10 1    
    10   10   11 1    
    11   11   12 1    
    12   11   13 1    
    13   12   17 1    
    14   13   14 1    
    15   13   15 1    
    16   15   16 1    
    17   15   17 1    
    18   17   18 1    
    19   18   19 1    
    20   18   28 1    
    21   19   20 2    
    22   20   21 1    
    23   21   22 1    
    24   21   28 2    
    25   22   23 2    
    26   22   24 am   
    27   24   25 1    
    28   25   26 1    
    29   25   27 2    
    30   27   28 1    
@<TRIPOS>SUBSTRUCTURE
     1 GDP600      1 GROUP   
@<TRIPOS>SET
ATOM$ORANGE STATIC     ATOMS   COLORGROUP SYSTEM 
20 10 10 11 11 13 13 15 15 17 17 19 19 21 21 22 22 25 \
25 28 28 

