#    Name: 6mze_13_GTP_CAVITY_N1_4
#    Modification time : Fri May 22 19:35:43 2020

@<TRIPOS>MOLECULE
6mze_13_GTP_CAVITY_N1_4
   77     0     7     0     0
SMALL
NO_CHARGES


@<TRIPOS>ATOM
      1 OG         40.6200  -26.2700  -17.5300 O.3       1 SER1        0.0000 
      2 OG         42.8500  -24.5500  -19.3600 O.3       1 SER1        0.0000 
      3 OG         41.4400  -24.7400  -16.3200 O.3       1 SER1        0.0000 
      4 OG         41.5500  -26.2300  -16.3600 O.3       1 SER1        0.0000 
      5 OG         43.6500  -26.0900  -16.1200 O.3       1 SER1        0.0000 
      6 OG         43.7600  -27.5800  -16.1600 O.3       1 SER1        0.0000 
      7 OG         44.8200  -25.9800  -17.0500 O.3       1 SER1        0.0000 
      8 OG         44.6900  -27.5500  -14.9900 O.3       1 SER1        0.0000 
      9 N          39.9000  -29.2900  -18.7900 N.am      2 ALA2        0.0000 
     10 O          40.7200  -27.7600  -17.5700 O.2       2 ALA2        0.0000 
     11 N          40.8300  -29.2600  -17.6200 N.am      2 ALA2        0.0000 
     12 O          41.7800  -26.1600  -18.4700 O.2       2 ALA2        0.0000 
     13 O          41.8900  -27.6500  -18.5100 O.2       2 ALA2        0.0000 
     14 N          42.7400  -23.0600  -19.3200 N.am      2 ALA2        0.0000 
     15 O          42.9500  -26.0500  -19.4000 O.2       2 ALA2        0.0000 
     16 O          43.0600  -27.5400  -19.4400 O.2       2 ALA2        0.0000 
     17 O          43.8000  -21.4500  -20.2100 O.2       2 ALA2        0.0000 
     18 O          43.9100  -22.9500  -20.2500 O.2       2 ALA2        0.0000 
     19 O          46.3500  -24.2200  -22.1600 O.2       2 ALA2        0.0000 
     20 N          40.3800  -26.3400  -15.4300 N.am      2 ALA2        0.0000 
     21 O          44.7300  -21.4200  -19.0300 O.2       2 ALA2        0.0000 
     22 O          44.8400  -22.9100  -19.0800 O.2       2 ALA2        0.0000 
     23 O          45.1600  -27.4000  -19.2000 O.2       2 ALA2        0.0000 
     24 O          46.0100  -22.8000  -20.0100 O.2       2 ALA2        0.0000 
     25 N          40.2500  -27.9200  -13.3600 N.am      2 ALA2        0.0000 
     26 N          41.3100  -26.3100  -14.2500 N.am      2 ALA2        0.0000 
     27 O          43.4400  -23.1000  -16.0400 O.2       2 ALA2        0.0000 
     28 O          43.5400  -24.5900  -16.0800 O.2       2 ALA2        0.0000 
     29 O          44.9300  -27.4700  -17.0900 O.2       2 ALA2        0.0000 
     30 N          45.6700  -21.3800  -17.8600 N.am      2 ALA2        0.0000 
     31 O          42.3600  -27.7700  -13.1200 O.2       2 ALA2        0.0000 
     32 OD1        39.5500  -27.8700  -16.6400 O.co2     3 ASP3        0.0000 
     33 OD1        39.7700  -30.8600  -16.7300 O.co2     3 ASP3        0.0000 
     34 OD1        40.4900  -27.8400  -15.4700 O.co2     3 ASP3        0.0000 
     35 OD1        40.6000  -29.3300  -15.5100 O.co2     3 ASP3        0.0000 
     36 OD1        41.6600  -27.7300  -16.4000 O.co2     3 ASP3        0.0000 
     37 OD1        41.7600  -29.2200  -16.4400 O.co2     3 ASP3        0.0000 
     38 OD1        41.4200  -27.8000  -14.2900 O.co2     3 ASP3        0.0000 
     39 OD1        42.5900  -27.6900  -15.2300 O.co2     3 ASP3        0.0000 
     40 OD1        43.6300  -29.1600  -14.1000 O.co2     3 ASP3        0.0000 
     41 NZ         42.6300  -21.5600  -19.2700 N.4       4 LYS4        0.0000 
     42 NZ         41.3300  -23.2400  -16.2700 N.4       4 LYS4        0.0000 
     43 NZ         42.5000  -23.1300  -17.2100 N.4       4 LYS4        0.0000 
     44 NZ         43.5700  -21.5300  -18.1000 N.4       4 LYS4        0.0000 
     45 NZ         43.3300  -21.6000  -15.9900 N.4       4 LYS4        0.0000 
     46 NZ         44.5000  -21.4900  -16.9300 N.4       4 LYS4        0.0000 
     47 CZ         44.0100  -24.4400  -20.2900 C.ar      5 PHE5        0.0000 
     48 CZ         44.1200  -25.9400  -20.3300 C.ar      5 PHE5        0.0000 
     49 CZ         44.2300  -27.4300  -20.3800 C.ar      5 PHE5        0.0000 
     50 CZ         45.1800  -24.3300  -21.2200 C.ar      5 PHE5        0.0000 
     51 CZ         45.2900  -25.8300  -21.2700 C.ar      5 PHE5        0.0000 
     52 CZ         45.4000  -27.3200  -21.3100 C.ar      5 PHE5        0.0000 
     53 CZ         46.4600  -25.7200  -22.2000 C.ar      5 PHE5        0.0000 
     54 CZ         46.5700  -27.2100  -22.2400 C.ar      5 PHE5        0.0000 
     55 CA         41.6800  -24.6600  -18.4200 C.3       6 GLY6        0.0000 
     56 CA         42.8300  -27.6200  -17.3300 C.3       6 GLY6        0.0000 
     57 CA         43.9900  -27.5100  -18.2700 C.3       6 GLY6        0.0000 
     58 CA         44.9500  -24.4100  -19.1200 C.3       6 GLY6        0.0000 
     59 CA         45.0600  -25.9000  -19.1600 C.3       6 GLY6        0.0000 
     60 CA         46.1200  -24.3000  -20.0500 C.3       6 GLY6        0.0000 
     61 CA         46.2300  -25.7900  -20.0900 C.3       6 GLY6        0.0000 
     62 CA         47.2900  -24.1900  -20.9800 C.3       6 GLY6        0.0000 
     63 CA         47.3900  -25.6800  -21.0300 C.3       6 GLY6        0.0000 
     64 CA         47.5000  -27.1800  -21.0700 C.3       6 GLY6        0.0000 
     65 CA         42.3800  -24.7000  -15.1400 C.3       6 GLY6        0.0000 
     66 CA         42.4800  -26.2000  -15.1900 C.3       6 GLY6        0.0000 
     67 CA         44.6100  -22.9900  -16.9700 C.3       6 GLY6        0.0000 
     68 CA         44.7100  -24.4800  -17.0100 C.3       6 GLY6        0.0000 
     69 CA         45.7800  -22.8800  -17.9000 C.3       6 GLY6        0.0000 
     70 CA         45.8800  -24.3700  -17.9400 C.3       6 GLY6        0.0000 
     71 CA         47.0500  -24.2600  -18.8800 C.3       6 GLY6        0.0000 
     72 CA         43.5200  -27.6600  -14.0500 C.3       6 GLY6        0.0000 
     73 DU         42.6100  -24.6300  -17.2500 H         7 CUB7        0.0000 
     74 DU         42.7200  -26.1200  -17.2900 H         7 CUB7        0.0000 
     75 DU         43.6700  -23.0200  -18.1400 H         7 CUB7        0.0000 
     76 DU         43.7800  -24.5200  -18.1800 H         7 CUB7        0.0000 
     77 DU         43.8900  -26.0100  -18.2300 H         7 CUB7        0.0000 
@<TRIPOS>BOND
@<TRIPOS>SUBSTRUCTURE
     1 SER1        1 GROUP   
     2 ALA2        9 GROUP   
     3 ASP3       32 GROUP   
     4 LYS4       41 GROUP   
     5 PHE5       47 GROUP   
     6 GLY6       55 GROUP   
     7 CUB7       73 GROUP   
@<TRIPOS>SET

