#    Name: 6mze_9_GTP
#    Modification time : Fri May 22 19:35:01 2020

@<TRIPOS>MOLECULE
6mze_9_GTP
   32    34     1     0     1
SMALL
NO_CHARGES


@<TRIPOS>ATOM
      1 PG         37.7650  -17.7240  121.2090 P.3       1 GTP600      0.0000 
      2 O1G        37.7670  -19.0000  120.4010 O.co2     1 GTP600      0.0000 
      3 O2G        38.3440  -17.9950  122.5780 O.co2     1 GTP600      0.0000 
      4 O3G        38.5970  -16.6790  120.5060 O.co2     1 GTP600      0.0000 
      5 O3B        36.2590  -17.1640  121.3390 O.3       1 GTP600      0.0000 
      6 PB         35.4990  -17.1190  122.7590 P.3       1 GTP600      0.0000 
      7 O1B        34.0190  -16.9480  122.5040 O.co2     1 GTP600      0.0000 
      8 O2B        35.7640  -18.3620  123.5750 O.co2     1 GTP600      0.0000 
      9 O3A        36.0650  -15.7960  123.4880 O.3       1 GTP600      0.0000 
     10 PA         35.4920  -15.3680  124.9330 P.3       1 GTP600      0.0000 
     11 O1A        33.9850  -15.3380  124.8950 O.co2     1 GTP600      0.0000 
     12 O2A        35.9590  -16.3470  125.9820 O.co2     1 GTP600      0.0000 
     13 O5'        36.1000  -13.9070  125.2590 O.3       1 GTP600      0.0000 
     14 C5'        35.6570  -12.7540  124.5730 C.3       1 GTP600      0.0000 
     15 C4'        35.1120  -11.7000  125.5240 C.3       1 GTP600      0.0000 
     16 O4'        34.1420  -12.3090  126.3430 O.3       1 GTP600      0.0000 
     17 C3'        36.1890  -11.1310  126.4330 C.3       1 GTP600      0.0000 
     18 O3'        36.2280   -9.7310  126.2680 O.3       1 GTP600      0.0000 
     19 C2'        35.7500  -11.4800  127.8390 C.3       1 GTP600      0.0000 
     20 O2'        35.8480  -10.3350  128.6530 O.3       1 GTP600      0.0000 
     21 C1'        34.3000  -11.9080  127.6830 C.3       1 GTP600      0.0000 
     22 N9         33.9450  -13.0710  128.5130 N.pl3     1 GTP600      0.0000 
     23 C8         34.4530  -14.3420  128.4170 C.2       1 GTP600      0.0000 
     24 N7         33.8540  -15.1190  129.3510 N.2       1 GTP600      0.0000 
     25 C5         32.9620  -14.3620  130.0280 C.2       1 GTP600      0.0000 
     26 C6         32.0940  -14.6390  131.0770 C.2       1 GTP600      0.0000 
     27 O6         32.0440  -15.7720  131.5510 O.2       1 GTP600      0.0000 
     28 N1         31.2900  -13.6360  131.5830 N.am      1 GTP600      0.0000 
     29 C2         31.3560  -12.3660  131.0450 C.2       1 GTP600      0.0000 
     30 N2         30.5870  -11.3940  131.5220 N.pl3     1 GTP600      0.0000 
     31 N3         32.2220  -12.0990  130.0080 N.2       1 GTP600      0.0000 
     32 C4         33.0120  -13.0760  129.5100 C.2       1 GTP600      0.0000 
@<TRIPOS>BOND
     1    1    2 ar   
     2    1    3 ar   
     3    1    4 ar   
     4    1    5 1    
     5    5    6 1    
     6    6    7 ar   
     7    6    8 ar   
     8    6    9 1    
     9    9   10 1    
    10   10   11 ar   
    11   10   12 ar   
    12   10   13 1    
    13   13   14 1    
    14   14   15 1    
    15   15   16 1    
    16   15   17 1    
    17   16   21 1    
    18   17   18 1    
    19   17   19 1    
    20   19   20 1    
    21   19   21 1    
    22   21   22 1    
    23   22   23 1    
    24   22   32 1    
    25   23   24 2    
    26   24   25 1    
    27   25   26 1    
    28   25   32 2    
    29   26   27 2    
    30   26   28 am   
    31   28   29 1    
    32   29   30 1    
    33   29   31 2    
    34   31   32 1    
@<TRIPOS>SUBSTRUCTURE
     1 GTP600      1 GROUP   
@<TRIPOS>SET
ATOM$ORANGE STATIC     ATOMS   COLORGROUP SYSTEM 
20 14 14 15 15 17 17 19 19 21 21 23 23 25 25 26 26 29 \
29 32 32 

