#    Name: 6mze_14_GDP
#    Modification time : Fri May 22 19:35:47 2020

@<TRIPOS>MOLECULE
6mze_14_GDP
   28    30     1     0     1
SMALL
NO_CHARGES


@<TRIPOS>ATOM
      1 PB          3.0880  -36.4500   -6.2890 P.3       1 GDP600      0.0000 
      2 O1B         2.8900  -37.7490   -7.0330 O.co2     1 GDP600      0.0000 
      3 O2B         4.5400  -36.0360   -6.3440 O.co2     1 GDP600      0.0000 
      4 O3B         2.6760  -36.6400   -4.8500 O.co2     1 GDP600      0.0000 
      5 O3A         2.1630  -35.2960   -6.9210 O.3       1 GDP600      0.0000 
      6 PA          2.4230  -34.6610   -8.3780 P.3       1 GDP600      0.0000 
      7 O1A         1.3750  -35.1200   -9.3680 O.co2     1 GDP600      0.0000 
      8 O2A         3.8270  -34.9520   -8.8610 O.co2     1 GDP600      0.0000 
      9 O5'         2.2440  -33.0970   -8.0430 O.3       1 GDP600      0.0000 
     10 C5'         1.3050  -32.2770   -8.7330 C.3       1 GDP600      0.0000 
     11 C4'         2.0320  -31.0750   -9.3160 C.3       1 GDP600      0.0000 
     12 O4'         2.9400  -31.5510  -10.3070 O.3       1 GDP600      0.0000 
     13 C3'         1.0900  -30.1170  -10.0220 C.3       1 GDP600      0.0000 
     14 O3'         1.6690  -28.8110   -9.9790 O.3       1 GDP600      0.0000 
     15 C2'         1.0900  -30.6290  -11.4440 C.3       1 GDP600      0.0000 
     16 O2'         0.8480  -29.5490  -12.3480 O.3       1 GDP600      0.0000 
     17 C1'         2.5060  -31.1590  -11.6090 C.3       1 GDP600      0.0000 
     18 N9          2.5860  -32.3320  -12.5150 N.pl3     1 GDP600      0.0000 
     19 C8          2.0370  -33.5450  -12.3060 C.2       1 GDP600      0.0000 
     20 N7          2.3150  -34.3920  -13.3320 N.2       1 GDP600      0.0000 
     21 C5          3.0730  -33.7140  -14.2160 C.2       1 GDP600      0.0000 
     22 C6          3.7210  -33.9970  -15.5190 C.2       1 GDP600      0.0000 
     23 O6          3.6180  -35.1220  -16.0540 O.2       1 GDP600      0.0000 
     24 N1          4.4190  -33.0140  -16.1070 N.am      1 GDP600      0.0000 
     25 C2          4.5490  -31.7900  -15.5570 C.2       1 GDP600      0.0000 
     26 N2          5.2710  -30.8490  -16.2140 N.pl3     1 GDP600      0.0000 
     27 N3          3.9830  -31.4620  -14.3680 N.2       1 GDP600      0.0000 
     28 C4          3.2510  -32.3620  -13.6680 C.2       1 GDP600      0.0000 
@<TRIPOS>BOND
     1    1    2 ar   
     2    1    3 ar   
     3    1    4 ar   
     4    1    5 1    
     5    5    6 1    
     6    6    7 ar   
     7    6    8 ar   
     8    6    9 1    
     9    9   10 1    
    10   10   11 1    
    11   11   12 1    
    12   11   13 1    
    13   12   17 1    
    14   13   14 1    
    15   13   15 1    
    16   15   16 1    
    17   15   17 1    
    18   17   18 1    
    19   18   19 1    
    20   18   28 1    
    21   19   20 2    
    22   20   21 1    
    23   21   22 1    
    24   21   28 2    
    25   22   23 2    
    26   22   24 am   
    27   24   25 1    
    28   25   26 1    
    29   25   27 2    
    30   27   28 1    
@<TRIPOS>SUBSTRUCTURE
     1 GDP600      1 GROUP   
@<TRIPOS>SET
ATOM$ORANGE STATIC     ATOMS   COLORGROUP SYSTEM 
20 10 10 11 11 13 13 15 15 17 17 19 19 21 21 22 22 25 \
25 28 28 

