#    Name: 6mze_3_GTP
#    Modification time : Fri May 22 19:33:51 2020

@<TRIPOS>MOLECULE
6mze_3_GTP
   32    34     1     0     1
SMALL
NO_CHARGES


@<TRIPOS>ATOM
      1 PG         73.3770  -12.3400  194.4860 P.3       1 GTP600      0.0000 
      2 O1G        74.1410  -13.3430  193.6550 O.co2     1 GTP600      0.0000 
      3 O2G        72.0150  -12.1130  193.8740 O.co2     1 GTP600      0.0000 
      4 O3G        74.1280  -11.0290  194.5190 O.co2     1 GTP600      0.0000 
      5 O3B        73.2330  -12.9230  195.9830 O.3       1 GTP600      0.0000 
      6 PB         71.8020  -13.0310  196.7190 P.3       1 GTP600      0.0000 
      7 O1B        70.9500  -11.8140  196.4480 O.co2     1 GTP600      0.0000 
      8 O2B        72.0320  -13.1960  198.2040 O.co2     1 GTP600      0.0000 
      9 O3A        71.1260  -14.3730  196.1270 O.3       1 GTP600      0.0000 
     10 PA         69.6880  -14.8570  196.6760 P.3       1 GTP600      0.0000 
     11 O1A        68.6240  -13.9020  196.2000 O.co2     1 GTP600      0.0000 
     12 O2A        69.7180  -14.9290  198.1850 O.co2     1 GTP600      0.0000 
     13 O5'        69.4000  -16.3120  196.0370 O.3       1 GTP600      0.0000 
     14 C5'        70.1160  -17.4450  196.4760 C.3       1 GTP600      0.0000 
     15 C4'        69.2120  -18.5490  196.9940 C.3       1 GTP600      0.0000 
     16 O4'        68.3470  -17.9780  197.9440 O.3       1 GTP600      0.0000 
     17 C3'        68.3690  -19.1610  195.8890 C.3       1 GTP600      0.0000 
     18 O3'        68.6000  -20.5510  195.8530 O.3       1 GTP600      0.0000 
     19 C2'        66.9390  -18.8750  196.2920 C.3       1 GTP600      0.0000 
     20 O2'        66.1840  -20.0570  196.1710 O.3       1 GTP600      0.0000 
     21 C1'        67.0350  -18.4430  197.7470 C.3       1 GTP600      0.0000 
     22 N9         66.1470  -17.3170  198.0740 N.pl3     1 GTP600      0.0000 
     23 C8         66.2040  -16.0490  197.5540 C.2       1 GTP600      0.0000 
     24 N7         65.2280  -15.3070  198.1260 N.2       1 GTP600      0.0000 
     25 C5         64.5640  -16.0830  199.0140 C.2       1 GTP600      0.0000 
     26 C6         63.4900  -15.8410  199.8630 C.2       1 GTP600      0.0000 
     27 O6         62.9640  -14.7300  199.8930 O.2       1 GTP600      0.0000 
     28 N1         63.0120  -16.8580  200.6670 N.am      1 GTP600      0.0000 
     29 C2         63.6000  -18.1060  200.6300 C.2       1 GTP600      0.0000 
     30 N2         63.1410  -19.0840  201.4070 N.pl3     1 GTP600      0.0000 
     31 N3         64.6640  -18.3390  199.7840 N.2       1 GTP600      0.0000 
     32 C4         65.1360  -17.3460  198.9930 C.2       1 GTP600      0.0000 
@<TRIPOS>BOND
     1    1    2 ar   
     2    1    3 ar   
     3    1    4 ar   
     4    1    5 1    
     5    5    6 1    
     6    6    7 ar   
     7    6    8 ar   
     8    6    9 1    
     9    9   10 1    
    10   10   11 ar   
    11   10   12 ar   
    12   10   13 1    
    13   13   14 1    
    14   14   15 1    
    15   15   16 1    
    16   15   17 1    
    17   16   21 1    
    18   17   18 1    
    19   17   19 1    
    20   19   20 1    
    21   19   21 1    
    22   21   22 1    
    23   22   23 1    
    24   22   32 1    
    25   23   24 2    
    26   24   25 1    
    27   25   26 1    
    28   25   32 2    
    29   26   27 2    
    30   26   28 am   
    31   28   29 1    
    32   29   30 1    
    33   29   31 2    
    34   31   32 1    
@<TRIPOS>SUBSTRUCTURE
     1 GTP600      1 GROUP   
@<TRIPOS>SET
ATOM$ORANGE STATIC     ATOMS   COLORGROUP SYSTEM 
20 14 14 15 15 17 17 19 19 21 21 23 23 25 25 26 26 29 \
29 32 32 

