#    Name: 6mze_4_GDP_CAVITY_N1_4
#    Modification time : Fri May 22 19:34:02 2020

@<TRIPOS>MOLECULE
6mze_4_GDP_CAVITY_N1_4
   76     0     7     0     0
SMALL
NO_CHARGES


@<TRIPOS>ATOM
      1 OG         74.6000  -12.1200  154.4400 O.3       1 SER1        0.0000 
      2 OG         74.7100  -13.6100  154.3900 O.3       1 SER1        0.0000 
      3 OG         75.7700  -12.0100  153.5000 O.3       1 SER1        0.0000 
      4 OG         75.8800  -13.5000  153.4600 O.3       1 SER1        0.0000 
      5 OG         75.9900  -15.0000  153.4200 O.3       1 SER1        0.0000 
      6 OG         76.9400  -11.9000  152.5700 O.3       1 SER1        0.0000 
      7 OG         77.0500  -13.3900  152.5300 O.3       1 SER1        0.0000 
      8 OG         78.2200  -13.2800  151.5900 O.3       1 SER1        0.0000 
      9 OG         77.5300  -10.4400  155.8900 O.3       1 SER1        0.0000 
     10 OG         77.6400  -11.9400  155.8500 O.3       1 SER1        0.0000 
     11 OG         77.7500  -13.4400  155.8100 O.3       1 SER1        0.0000 
     12 OG         78.7000  -10.3300  154.9600 O.3       1 SER1        0.0000 
     13 OG         78.8100  -11.8300  154.9200 O.3       1 SER1        0.0000 
     14 OG         78.9200  -13.3300  154.8700 O.3       1 SER1        0.0000 
     15 OG         78.3600   -8.9100  157.1100 O.3       1 SER1        0.0000 
     16 OG         79.5300   -8.8000  156.1700 O.3       1 SER1        0.0000 
     17 OG         79.6400  -10.3000  156.1300 O.3       1 SER1        0.0000 
     18 O          74.5000  -10.6200  154.4800 O.2       2 ALA2        0.0000 
     19 O          74.8200  -15.1100  154.3500 O.2       2 ALA2        0.0000 
     20 O          75.6700  -10.5100  153.5400 O.2       2 ALA2        0.0000 
     21 N          76.8400  -10.4000  152.6100 N.am      2 ALA2        0.0000 
     22 N          77.9000   -8.8000  151.7200 N.am      2 ALA2        0.0000 
     23 N          78.0000  -10.2900  151.6800 N.am      2 ALA2        0.0000 
     24 N          72.1400  -13.9100  158.3700 N.am      2 ALA2        0.0000 
     25 N          73.2000  -12.3000  157.4800 N.am      2 ALA2        0.0000 
     26 O          73.3100  -13.8000  157.4300 O.2       2 ALA2        0.0000 
     27 O          74.4800  -13.6900  156.5000 O.2       2 ALA2        0.0000 
     28 O          75.6500  -13.5800  155.5700 O.2       2 ALA2        0.0000 
     29 O          75.7500  -15.0800  155.5200 O.2       2 ALA2        0.0000 
     30 O          76.6000  -10.4800  154.7200 O.2       2 ALA2        0.0000 
     31 O          76.9200  -14.9700  154.5900 O.2       2 ALA2        0.0000 
     32 O          77.0300  -16.4600  154.5500 O.2       2 ALA2        0.0000 
     33 N          77.6600   -8.8700  153.8300 N.am      2 ALA2        0.0000 
     34 N          79.0500  -11.7500  152.8100 N.am      2 ALA2        0.0000 
     35 N          80.1100  -10.1500  151.9200 N.am      2 ALA2        0.0000 
     36 N          80.2100  -11.6400  151.8700 N.am      2 ALA2        0.0000 
     37 N          80.3200  -13.1400  151.8300 N.am      2 ALA2        0.0000 
     38 O          76.6900  -15.0400  156.7000 O.2       2 ALA2        0.0000 
     39 O          76.7900  -16.5400  156.6600 O.2       2 ALA2        0.0000 
     40 O          77.4300   -8.9500  155.9300 O.2       2 ALA2        0.0000 
     41 N          79.9800  -11.7200  153.9800 N.am      2 ALA2        0.0000 
     42 O          78.7900  -14.9000  156.9400 O.2       2 ALA2        0.0000 
     43 O          79.4200   -7.3100  156.2100 O.2       2 ALA2        0.0000 
     44 OD1        78.8300   -8.7600  152.8900 O.co2     3 ASP3        0.0000 
     45 OD1        80.0000   -8.6500  151.9600 O.co2     3 ASP3        0.0000 
     46 OD1        78.6000   -8.8400  155.0000 O.co2     3 ASP3        0.0000 
     47 OD1        80.7000   -8.6900  155.2400 O.co2     3 ASP3        0.0000 
     48 NZ         77.9800  -13.3600  153.7000 N.4       4 LYS4        0.0000 
     49 NZ         78.0900  -14.8600  153.6600 N.4       4 LYS4        0.0000 
     50 NZ         79.1500  -13.2500  152.7700 N.4       4 LYS4        0.0000 
     51 NZ         79.0300  -14.8200  154.8300 N.4       4 LYS4        0.0000 
     52 NZ         80.0900  -13.2200  153.9400 N.4       4 LYS4        0.0000 
     53 CZ         72.2700  -12.3400  156.3000 C.ar      5 PHE5        0.0000 
     54 CZ         72.3700  -13.8300  156.2600 C.ar      5 PHE5        0.0000 
     55 CZ         73.4400  -12.2300  155.3700 C.ar      5 PHE5        0.0000 
     56 CZ         73.5400  -13.7200  155.3300 C.ar      5 PHE5        0.0000 
     57 CA         76.1000  -16.4900  153.3800 C.3       6 GLY6        0.0000 
     58 CA         77.1600  -14.8900  152.4800 C.3       6 GLY6        0.0000 
     59 CA         74.3700  -12.1900  156.5400 C.3       6 GLY6        0.0000 
     60 CA         75.4300  -10.5900  155.6500 C.3       6 GLY6        0.0000 
     61 CA         75.5400  -12.0800  155.6100 C.3       6 GLY6        0.0000 
     62 CA         76.4900   -8.9800  154.7600 C.3       6 GLY6        0.0000 
     63 CA         75.4100  -13.6600  157.6700 C.3       6 GLY6        0.0000 
     64 CA         76.4700  -12.0500  156.7800 C.3       6 GLY6        0.0000 
     65 CA         76.5800  -13.5500  156.7400 C.3       6 GLY6        0.0000 
     66 CA         77.9600  -16.4300  155.7200 C.3       6 GLY6        0.0000 
     67 CA         78.4900   -7.3400  155.0400 C.3       6 GLY6        0.0000 
     68 CA         79.8700  -10.2200  154.0200 C.3       6 GLY6        0.0000 
     69 CA         77.6200  -15.0100  157.8700 C.3       6 GLY6        0.0000 
     70 DU         78.1100  -11.7900  151.6400 H         7 CUB7        0.0000 
     71 DU         76.7100  -11.9700  154.6800 H         7 CUB7        0.0000 
     72 DU         76.8100  -13.4700  154.6300 H         7 CUB7        0.0000 
     73 DU         77.7700  -10.3700  153.7800 H         7 CUB7        0.0000 
     74 DU         77.8800  -11.8600  153.7400 H         7 CUB7        0.0000 
     75 DU         78.9400  -10.2600  152.8500 H         7 CUB7        0.0000 
     76 DU         77.8600  -14.9300  155.7600 H         7 CUB7        0.0000 
@<TRIPOS>BOND
@<TRIPOS>SUBSTRUCTURE
     1 SER1        1 GROUP   
     2 ALA2       18 GROUP   
     3 ASP3       44 GROUP   
     4 LYS4       48 GROUP   
     5 PHE5       53 GROUP   
     6 GLY6       57 GROUP   
     7 CUB7       70 GROUP   
@<TRIPOS>SET

