#    Name: 6mze_7_GTP
#    Modification time : Fri May 22 19:34:39 2020

@<TRIPOS>MOLECULE
6mze_7_GTP
   32    34     1     0     1
SMALL
NO_CHARGES


@<TRIPOS>ATOM
      1 PG        224.4470  -14.6710  198.2410 P.3       1 GTP600      0.0000 
      2 O1G       223.6540  -15.8870  198.6570 O.co2     1 GTP600      0.0000 
      3 O2G       225.8180  -14.7280  198.8720 O.co2     1 GTP600      0.0000 
      4 O3G       223.7350  -13.4180  198.6950 O.co2     1 GTP600      0.0000 
      5 O3B       224.5670  -14.6760  196.6330 O.3       1 GTP600      0.0000 
      6 PB        225.9960  -14.5610  195.8970 P.3       1 GTP600      0.0000 
      7 O1B       225.7600  -14.1830  194.4530 O.co2     1 GTP600      0.0000 
      8 O2B       226.8970  -13.5560  196.5760 O.co2     1 GTP600      0.0000 
      9 O3A       226.6160  -16.0490  195.9580 O.3       1 GTP600      0.0000 
     10 PA        228.0390  -16.3590  195.2640 P.3       1 GTP600      0.0000 
     11 O1A       228.0350  -15.8660  193.8380 O.co2     1 GTP600      0.0000 
     12 O2A       229.1460  -15.6950  196.0450 O.co2     1 GTP600      0.0000 
     13 O5'       228.2420  -17.9600  195.3240 O.3       1 GTP600      0.0000 
     14 C5'       227.4830  -18.8270  194.5090 C.3       1 GTP600      0.0000 
     15 C4'       228.3650  -19.6980  193.6290 C.3       1 GTP600      0.0000 
     16 O4'       229.2540  -18.8570  192.9340 O.3       1 GTP600      0.0000 
     17 C3'       229.1980  -20.6760  194.4410 C.3       1 GTP600      0.0000 
     18 O3'       228.9250  -21.9830  193.9890 O.3       1 GTP600      0.0000 
     19 C2'       230.6380  -20.3090  194.1520 C.3       1 GTP600      0.0000 
     20 O2'       231.3610  -21.4780  193.8490 O.3       1 GTP600      0.0000 
     21 C1'       230.5550  -19.3920  192.9430 C.3       1 GTP600      0.0000 
     22 N9        231.4790  -18.2470  193.0160 N.pl3     1 GTP600      0.0000 
     23 C8        231.4660  -17.2320  193.9380 C.2       1 GTP600      0.0000 
     24 N7        232.4690  -16.3710  193.6480 N.2       1 GTP600      0.0000 
     25 C5        233.1100  -16.8170  192.5440 C.2       1 GTP600      0.0000 
     26 C6        234.1980  -16.3360  191.8250 C.2       1 GTP600      0.0000 
     27 O6        234.7580  -15.2990  192.1750 O.2       1 GTP600      0.0000 
     28 N1        234.6460  -17.0310  190.7190 N.am      1 GTP600      0.0000 
     29 C2        234.0150  -18.1970  190.3340 C.2       1 GTP600      0.0000 
     30 N2        234.4390  -18.8700  189.2700 N.pl3     1 GTP600      0.0000 
     31 N3        232.9390  -18.6690  191.0550 N.2       1 GTP600      0.0000 
     32 C4        232.4970  -17.9930  192.1400 C.2       1 GTP600      0.0000 
@<TRIPOS>BOND
     1    1    2 ar   
     2    1    3 ar   
     3    1    4 ar   
     4    1    5 1    
     5    5    6 1    
     6    6    7 ar   
     7    6    8 ar   
     8    6    9 1    
     9    9   10 1    
    10   10   11 ar   
    11   10   12 ar   
    12   10   13 1    
    13   13   14 1    
    14   14   15 1    
    15   15   16 1    
    16   15   17 1    
    17   16   21 1    
    18   17   18 1    
    19   17   19 1    
    20   19   20 1    
    21   19   21 1    
    22   21   22 1    
    23   22   23 1    
    24   22   32 1    
    25   23   24 2    
    26   24   25 1    
    27   25   26 1    
    28   25   32 2    
    29   26   27 2    
    30   26   28 am   
    31   28   29 1    
    32   29   30 1    
    33   29   31 2    
    34   31   32 1    
@<TRIPOS>SUBSTRUCTURE
     1 GTP600      1 GROUP   
@<TRIPOS>SET
ATOM$ORANGE STATIC     ATOMS   COLORGROUP SYSTEM 
20 14 14 15 15 17 17 19 19 21 21 23 23 25 25 26 26 29 \
29 32 32 

