#    Name: 6mze_11_GTP_CAVITY_N1_ALL
#    Modification time : Fri May 22 19:35:24 2020

@<TRIPOS>MOLECULE
6mze_11_GTP_CAVITY_N1_ALL
   83     0     6     0     0
SMALL
NO_CHARGES


@<TRIPOS>ATOM
      1 OG        121.3400  -34.3800   48.8500 O.3       1 SER1        0.0000 
      2 N         121.1300  -31.3800   48.9300 N.am      2 ALA2        0.0000 
      3 N         122.3000  -31.2700   48.0000 N.am      2 ALA2        0.0000 
      4 N         122.4000  -32.7700   47.9600 N.am      2 ALA2        0.0000 
      5 O         123.5700  -32.6600   47.0200 O.2       2 ALA2        0.0000 
      6 N         119.6200  -30.0700   52.0100 N.am      2 ALA2        0.0000 
      7 N         120.6800  -28.4700   51.1200 N.am      2 ALA2        0.0000 
      8 N         120.7900  -29.9600   51.0800 N.am      2 ALA2        0.0000 
      9 N         121.9500  -29.8500   50.1500 N.am      2 ALA2        0.0000 
     10 N         123.2300  -31.2400   49.1700 N.am      2 ALA2        0.0000 
     11 N         124.4000  -31.1300   48.2400 N.am      2 ALA2        0.0000 
     12 O         124.5100  -32.6300   48.2000 O.2       2 ALA2        0.0000 
     13 N         121.7200  -29.9300   52.2500 N.am      2 ALA2        0.0000 
     14 N         121.8300  -31.4300   52.2100 N.am      2 ALA2        0.0000 
     15 N         122.8900  -29.8200   51.3200 N.am      2 ALA2        0.0000 
     16 N         124.0600  -29.7100   50.3900 N.am      2 ALA2        0.0000 
     17 N         125.3300  -31.1000   49.4100 N.am      2 ALA2        0.0000 
     18 O         126.5000  -30.9900   48.4800 O.2       2 ALA2        0.0000 
     19 N         123.8200  -29.7900   52.4900 N.am      2 ALA2        0.0000 
     20 N         124.9900  -29.6800   51.5600 N.am      2 ALA2        0.0000 
     21 N         126.0500  -28.0700   50.6700 N.am      2 ALA2        0.0000 
     22 N         126.1600  -29.5700   50.6300 N.am      2 ALA2        0.0000 
     23 O         124.8600  -31.2500   53.6300 O.2       2 ALA2        0.0000 
     24 N         125.9200  -29.6400   52.7300 N.am      2 ALA2        0.0000 
     25 N         126.9900  -28.0400   51.8400 N.am      2 ALA2        0.0000 
     26 O         126.9700  -31.1000   53.8700 O.2       2 ALA2        0.0000 
     27 OD1       118.2000  -33.0600   47.4800 O.co2     3 ASP3        0.0000 
     28 OD1       117.7500  -30.1400   49.6700 O.co2     3 ASP3        0.0000 
     29 OD1       120.3000  -32.9100   47.7200 O.co2     3 ASP3        0.0000 
     30 OD1       120.4100  -34.4100   47.6700 O.co2     3 ASP3        0.0000 
     31 OD1       121.4700  -32.8000   46.7800 O.co2     3 ASP3        0.0000 
     32 OD1       121.5800  -34.3000   46.7400 O.co2     3 ASP3        0.0000 
     33 OD1       118.6800  -30.1100   50.8400 O.co2     3 ASP3        0.0000 
     34 OD1       119.7400  -28.5000   49.9500 O.co2     3 ASP3        0.0000 
     35 OD1       119.8500  -30.0000   49.9100 O.co2     3 ASP3        0.0000 
     36 OD1       123.6800  -34.1500   46.9800 O.co2     3 ASP3        0.0000 
     37 NZ        116.9200  -31.6700   48.4500 N.4       4 LYS4        0.0000 
     38 NZ        117.0300  -33.1700   48.4100 N.4       4 LYS4        0.0000 
     39 NZ        117.8600  -31.6400   49.6300 N.4       4 LYS4        0.0000 
     40 NZ        119.0300  -31.5300   48.6900 N.4       4 LYS4        0.0000 
     41 NZ        119.1300  -33.0200   48.6500 N.4       4 LYS4        0.0000 
     42 NZ        119.9600  -31.4900   49.8700 N.4       4 LYS4        0.0000 
     43 NZ        121.2400  -32.8800   48.8900 N.4       4 LYS4        0.0000 
     44 NZ        120.8900  -31.4600   51.0400 N.4       4 LYS4        0.0000 
     45 NZ        124.9700  -32.7400   53.5800 N.4       4 LYS4        0.0000 
     46 NZ        125.0800  -34.2400   53.5400 N.4       4 LYS4        0.0000 
     47 NZ        126.1400  -32.6300   52.6500 N.4       4 LYS4        0.0000 
     48 NZ        126.2500  -34.1300   52.6100 N.4       4 LYS4        0.0000 
     49 NZ        125.9000  -32.7100   54.7600 N.4       4 LYS4        0.0000 
     50 NZ        127.0700  -32.6000   53.8200 N.4       4 LYS4        0.0000 
     51 CA        116.1000  -33.2000   47.2400 C.3       5 GLY6        0.0000 
     52 CA        118.0900  -31.5600   47.5200 C.3       5 GLY6        0.0000 
     53 CA        118.9200  -30.0300   48.7300 C.3       5 GLY6        0.0000 
     54 CA        120.1900  -31.4200   47.7600 C.3       5 GLY6        0.0000 
     55 CA        121.0200  -29.8900   48.9700 C.3       5 GLY6        0.0000 
     56 CA        122.5100  -34.2700   47.9100 C.3       5 GLY6        0.0000 
     57 CA        122.1700  -32.8500   50.0600 C.3       5 GLY6        0.0000 
     58 CA        123.3400  -32.7400   49.1300 C.3       5 GLY6        0.0000 
     59 CA        123.4500  -34.2300   49.0900 C.3       5 GLY6        0.0000 
     60 CA        124.6100  -34.1200   48.1500 C.3       5 GLY6        0.0000 
     61 CA        120.6600  -31.5400   53.1500 C.3       5 GLY6        0.0000 
     62 CA        121.9300  -32.9200   52.1700 C.3       5 GLY6        0.0000 
     63 CA        123.1000  -32.8100   51.2400 C.3       5 GLY6        0.0000 
     64 CA        124.2700  -32.7000   50.3000 C.3       5 GLY6        0.0000 
     65 CA        124.3800  -34.2000   50.2600 C.3       5 GLY6        0.0000 
     66 CA        125.5500  -34.0900   49.3300 C.3       5 GLY6        0.0000 
     67 CA        126.6100  -32.4800   48.4400 C.3       5 GLY6        0.0000 
     68 CA        122.7600  -31.3900   53.3900 C.3       5 GLY6        0.0000 
     69 CA        122.8700  -32.8900   53.3400 C.3       5 GLY6        0.0000 
     70 CA        124.0400  -32.7800   52.4100 C.3       5 GLY6        0.0000 
     71 CA        125.2100  -32.6700   51.4800 C.3       5 GLY6        0.0000 
     72 CA        125.3100  -34.1600   51.4300 C.3       5 GLY6        0.0000 
     73 CA        123.6900  -31.3600   54.5600 C.3       5 GLY6        0.0000 
     74 CA        123.8000  -32.8500   54.5200 C.3       5 GLY6        0.0000 
     75 DU        122.0600  -31.3500   50.1100 H         6 CUB7        0.0000 
     76 DU        123.0000  -31.3200   51.2800 H         6 CUB7        0.0000 
     77 DU        124.1600  -31.2100   50.3500 H         6 CUB7        0.0000 
     78 DU        125.4400  -32.5900   49.3700 H         6 CUB7        0.0000 
     79 DU        123.9300  -31.2800   52.4500 H         6 CUB7        0.0000 
     80 DU        125.1000  -31.1700   51.5200 H         6 CUB7        0.0000 
     81 DU        126.2700  -31.0600   50.5900 H         6 CUB7        0.0000 
     82 DU        126.3700  -32.5600   50.5400 H         6 CUB7        0.0000 
     83 DU        126.0300  -31.1400   52.6900 H         6 CUB7        0.0000 
@<TRIPOS>BOND
@<TRIPOS>SUBSTRUCTURE
     1 SER1        1 GROUP   
     2 ALA2        2 GROUP   
     3 ASP3       27 GROUP   
     4 LYS4       37 GROUP   
     5 GLY6       51 GROUP   
     6 CUB7       75 GROUP   
@<TRIPOS>SET

