#    Name: 6mze_2_GDP_CAVITY_N1_ALL
#    Modification time : Fri May 22 19:33:38 2020

@<TRIPOS>MOLECULE
6mze_2_GDP_CAVITY_N1_ALL
  112     0     7     0     0
SMALL
NO_CHARGES


@<TRIPOS>ATOM
      1 OG        109.3400  -15.4700  255.3700 O.3       1 SER1        0.0000 
      2 OG        105.9200  -20.3700  260.1500 O.3       1 SER1        0.0000 
      3 OG        106.0200  -21.8600  260.1100 O.3       1 SER1        0.0000 
      4 OG        110.2700  -15.4400  256.5400 O.3       1 SER1        0.0000 
      5 OG        106.8500  -20.3300  261.3200 O.3       1 SER1        0.0000 
      6 OG        108.0200  -20.2200  260.3900 O.3       1 SER1        0.0000 
      7 OG        108.1300  -21.7200  260.3500 O.3       1 SER1        0.0000 
      8 OG        109.1900  -20.1100  259.4600 O.3       1 SER1        0.0000 
      9 OG        109.2900  -21.6100  259.4200 O.3       1 SER1        0.0000 
     10 OG        110.2500  -18.5100  258.5700 O.3       1 SER1        0.0000 
     11 OG        110.3600  -20.0000  258.5200 O.3       1 SER1        0.0000 
     12 OG        110.4600  -21.5000  258.4800 O.3       1 SER1        0.0000 
     13 OG        111.4200  -18.4000  257.6300 O.3       1 SER1        0.0000 
     14 OG        108.0000  -23.2900  262.4100 O.3       1 SER1        0.0000 
     15 OG        108.9500  -20.1900  261.5600 O.3       1 SER1        0.0000 
     16 OG        109.0600  -21.6900  261.5200 O.3       1 SER1        0.0000 
     17 OG        110.1200  -20.0800  260.6300 O.3       1 SER1        0.0000 
     18 OG        110.2300  -21.5800  260.5900 O.3       1 SER1        0.0000 
     19 OG        111.1800  -18.4700  259.7400 O.3       1 SER1        0.0000 
     20 O         104.9100  -12.7700  254.9700 O.2       2 ALA2        0.0000 
     21 O         105.2400  -17.2600  254.8500 O.2       2 ALA2        0.0000 
     22 O         105.9600  -14.2300  256.1100 O.2       2 ALA2        0.0000 
     23 N         106.1700  -17.2200  256.0200 N.am      2 ALA2        0.0000 
     24 O         107.0200  -12.6300  255.2100 O.2       2 ALA2        0.0000 
     25 O         107.1200  -14.1200  255.1700 O.2       2 ALA2        0.0000 
     26 O         107.2300  -15.6200  255.1300 O.2       2 ALA2        0.0000 
     27 O         107.3400  -17.1100  255.0900 O.2       2 ALA2        0.0000 
     28 O         108.2900  -14.0100  254.2400 O.2       2 ALA2        0.0000 
     29 O         108.4000  -15.5100  254.2000 O.2       2 ALA2        0.0000 
     30 N         106.0400  -18.8000  258.0900 N.am      2 ALA2        0.0000 
     31 N         106.1500  -20.2900  258.0400 N.am      2 ALA2        0.0000 
     32 N         107.1000  -17.1900  257.2000 N.am      2 ALA2        0.0000 
     33 N         107.2100  -18.6900  257.1500 N.am      2 ALA2        0.0000 
     34 N         108.2700  -17.0800  256.2600 N.am      2 ALA2        0.0000 
     35 O         109.4400  -16.9700  255.3300 O.2       2 ALA2        0.0000 
     36 N         105.8100  -18.8700  260.1900 N.am      2 ALA2        0.0000 
     37 N         106.7600  -15.7700  259.3400 N.am      2 ALA2        0.0000 
     38 N         106.8700  -17.2700  259.3000 N.am      2 ALA2        0.0000 
     39 N         108.1500  -18.6500  258.3300 N.am      2 ALA2        0.0000 
     40 N         108.2500  -20.1500  258.2800 N.am      2 ALA2        0.0000 
     41 O         109.5300  -21.5300  257.3100 O.2       2 ALA2        0.0000 
     42 O         110.3800  -16.9400  256.5000 O.2       2 ALA2        0.0000 
     43 N         106.7400  -18.8400  261.3700 N.am      2 ALA2        0.0000 
     44 N         107.9100  -18.7300  260.4300 N.am      2 ALA2        0.0000 
     45 O         110.5700  -22.9900  258.4400 O.2       2 ALA2        0.0000 
     46 O         111.2000  -15.4100  257.7200 O.2       2 ALA2        0.0000 
     47 O         111.3100  -16.9000  257.6700 O.2       2 ALA2        0.0000 
     48 O         108.8400  -18.6900  261.6100 O.2       2 ALA2        0.0000 
     49 O         109.1700  -23.1800  261.4800 O.2       2 ALA2        0.0000 
     50 O         109.2700  -24.6800  261.4400 O.2       2 ALA2        0.0000 
     51 O         110.0100  -18.5800  260.6700 O.2       2 ALA2        0.0000 
     52 O         110.3400  -23.0700  260.5500 O.2       2 ALA2        0.0000 
     53 O         110.4400  -24.5700  260.5000 O.2       2 ALA2        0.0000 
     54 O         111.0800  -16.9800  259.7800 O.2       2 ALA2        0.0000 
     55 O         109.7800  -18.6600  262.7800 O.2       2 ALA2        0.0000 
     56 O         110.1000  -23.1500  262.6500 O.2       2 ALA2        0.0000 
     57 O         111.2700  -23.0400  261.7200 O.2       2 ALA2        0.0000 
     58 O         109.5400  -18.7400  264.8900 O.2       2 ALA2        0.0000 
     59 N         110.9300  -21.6200  263.8700 N.am      2 ALA2        0.0000 
     60 O         111.0300  -23.1100  263.8300 O.2       2 ALA2        0.0000 
     61 N         112.1000  -21.5100  262.9400 N.am      2 ALA2        0.0000 
     62 O         112.2000  -23.0000  262.8900 O.2       2 ALA2        0.0000 
     63 N         111.7500  -20.0900  265.0800 N.am      2 ALA2        0.0000 
     64 N         111.8600  -21.5800  265.0400 N.am      2 ALA2        0.0000 
     65 N         111.9700  -23.0800  265.0000 N.am      2 ALA2        0.0000 
     66 N         112.9000  -23.0500  266.1700 N.am      2 ALA2        0.0000 
     67 N         114.0700  -22.9300  265.2400 N.am      2 ALA2        0.0000 
     68 N         114.1800  -24.4300  265.2000 N.am      2 ALA2        0.0000 
     69 OD1       107.0000  -15.7000  257.2400 O.co2     3 ASP3        0.0000 
     70 OD1       108.0600  -14.0900  256.3500 O.co2     3 ASP3        0.0000 
     71 OD1       108.1700  -15.5800  256.3000 O.co2     3 ASP3        0.0000 
     72 OD1       108.0400  -17.1600  258.3700 O.co2     3 ASP3        0.0000 
     73 OD1       109.2100  -17.0500  257.4400 O.co2     3 ASP3        0.0000 
     74 NZ        105.8500  -12.7400  256.1500 N.4       4 LYS4        0.0000 
     75 NZ        106.2600  -21.7900  258.0000 N.4       4 LYS4        0.0000 
     76 NZ        107.4300  -21.6800  257.0700 N.4       4 LYS4        0.0000 
     77 NZ        107.1900  -21.7500  259.1800 N.4       4 LYS4        0.0000 
     78 NZ        108.3600  -21.6400  258.2400 N.4       4 LYS4        0.0000 
     79 NZ        108.2300  -23.2200  260.3100 N.4       4 LYS4        0.0000 
     80 NZ        108.3400  -24.7100  260.2600 N.4       4 LYS4        0.0000 
     81 NZ        109.4000  -23.1000  259.3700 N.4       4 LYS4        0.0000 
     82 CZ        109.9900  -21.6500  262.7000 C.ar      5 PHE5        0.0000 
     83 CZ        109.6500  -20.2300  264.8400 C.ar      5 PHE5        0.0000 
     84 CZ        109.7600  -21.7300  264.8000 C.ar      5 PHE5        0.0000 
     85 CZ        109.8700  -23.2200  264.7600 C.ar      5 PHE5        0.0000 
     86 CZ        110.5800  -20.2000  266.0200 C.ar      5 PHE5        0.0000 
     87 CZ        110.6900  -21.6900  265.9800 C.ar      5 PHE5        0.0000 
     88 CZ        110.8000  -23.1900  265.9300 C.ar      5 PHE5        0.0000 
     89 CA        105.0200  -14.2700  254.9300 C.3       6 GLY6        0.0000 
     90 CA        105.1300  -15.7600  254.8900 C.3       6 GLY6        0.0000 
     91 CA        106.0600  -15.7300  256.0600 C.3       6 GLY6        0.0000 
     92 CA        109.3100  -18.5400  257.3900 C.3       6 GLY6        0.0000 
     93 CA        109.4200  -20.0400  257.3500 C.3       6 GLY6        0.0000 
     94 CA        109.6400  -23.0300  257.2700 C.3       6 GLY6        0.0000 
     95 CA        107.0600  -23.3300  261.2400 C.3       6 GLY6        0.0000 
     96 CA        108.9700  -17.1200  259.5400 C.3       6 GLY6        0.0000 
     97 CA        109.5100  -24.6000  259.3300 C.3       6 GLY6        0.0000 
     98 CA        110.1400  -17.0100  258.6100 C.3       6 GLY6        0.0000 
     99 CA        110.6800  -24.4900  258.4000 C.3       6 GLY6        0.0000 
    100 CA        111.5000  -22.9600  259.6100 C.3       6 GLY6        0.0000 
    101 CA        111.6100  -24.4600  259.5700 C.3       6 GLY6        0.0000 
    102 CA        109.8900  -20.1600  262.7400 C.3       6 GLY6        0.0000 
    103 CA        111.1600  -21.5400  261.7600 C.3       6 GLY6        0.0000 
    104 CA        112.4400  -22.9300  260.7900 C.3       6 GLY6        0.0000 
    105 CA        110.7100  -18.6300  263.9500 C.3       6 GLY6        0.0000 
    106 CA        110.8200  -20.1200  263.9100 C.3       6 GLY6        0.0000 
    107 CA        110.4800  -18.7000  266.0600 C.3       6 GLY6        0.0000 
    108 CA        113.1400  -22.9700  264.0700 C.3       6 GLY6        0.0000 
    109 DU        105.9400  -17.3000  258.1300 H         7 CUB7        0.0000 
    110 DU        106.9800  -18.7600  259.2600 H         7 CUB7        0.0000 
    111 DU        107.0800  -20.2600  259.2200 H         7 CUB7        0.0000 
    112 DU        109.0800  -18.6200  259.5000 H         7 CUB7        0.0000 
@<TRIPOS>BOND
@<TRIPOS>SUBSTRUCTURE
     1 SER1        1 GROUP   
     2 ALA2       20 GROUP   
     3 ASP3       69 GROUP   
     4 LYS4       74 GROUP   
     5 PHE5       82 GROUP   
     6 GLY6       89 GROUP   
     7 CUB7      109 GROUP   
@<TRIPOS>SET

