#    Name: 6mze_5_GTP_CAVITY_N1_ALL
#    Modification time : Fri May 22 19:34:18 2020

@<TRIPOS>MOLECULE
6mze_5_GTP_CAVITY_N1_ALL
   73     0     7     0     0
SMALL
NO_CHARGES


@<TRIPOS>ATOM
      1 OG        145.0100  -16.6700  121.5400 O.3       1 SER1        0.0000 
      2 OG        145.8300  -15.1400  122.7600 O.3       1 SER1        0.0000 
      3 OG        145.9400  -16.6300  122.7200 O.3       1 SER1        0.0000 
      4 OG        144.2200  -12.3300  125.8800 O.3       1 SER1        0.0000 
      5 OG        145.4900  -13.7200  124.9100 O.3       1 SER1        0.0000 
      6 OG        145.1500  -12.3000  127.0600 O.3       1 SER1        0.0000 
      7 OG        147.6000  -13.5800  125.1500 O.3       1 SER1        0.0000 
      8 OG        147.7000  -15.0700  125.1100 O.3       1 SER1        0.0000 
      9 OG        147.8100  -16.5700  125.0600 O.3       1 SER1        0.0000 
     10 OG        149.7000  -13.4300  125.3900 O.3       1 SER1        0.0000 
     11 OG        150.8700  -13.3200  124.4500 O.3       1 SER1        0.0000 
     12 OG        146.9100  -10.7400  129.4500 O.3       1 SER1        0.0000 
     13 N         140.8200  -13.8900  119.0400 N.am      2 ALA2        0.0000 
     14 O         141.8600  -15.3500  120.1700 O.2       2 ALA2        0.0000 
     15 O         142.9100  -16.8100  121.3000 O.2       2 ALA2        0.0000 
     16 O         143.8400  -16.7800  122.4800 O.2       2 ALA2        0.0000 
     17 O         143.9500  -18.2700  122.4400 O.2       2 ALA2        0.0000 
     18 O         144.0500  -19.7700  122.3900 O.2       2 ALA2        0.0000 
     19 O         145.1200  -18.1600  121.5000 O.2       2 ALA2        0.0000 
     20 O         145.7300  -13.6400  122.8000 O.2       2 ALA2        0.0000 
     21 N         146.0500  -18.1300  122.6800 N.am      2 ALA2        0.0000 
     22 O         144.6500  -18.3200  125.7200 O.2       2 ALA2        0.0000 
     23 O         146.6600  -13.6100  123.9700 O.2       2 ALA2        0.0000 
     24 O         146.6400  -16.6800  126.0000 O.2       2 ALA2        0.0000 
     25 N         147.4900  -12.0800  125.1900 N.am      2 ALA2        0.0000 
     26 N         148.6600  -11.9700  124.2600 N.am      2 ALA2        0.0000 
     27 O         148.7600  -13.4700  124.2100 O.2       2 ALA2        0.0000 
     28 O         149.8300  -11.8600  123.3200 O.2       2 ALA2        0.0000 
     29 N         148.5300  -13.5400  126.3200 N.am      2 ALA2        0.0000 
     30 O         147.0200  -12.2300  129.4000 O.2       2 ALA2        0.0000 
     31 OD1       146.3200  -12.1900  126.1200 O.co2     3 ASP3        0.0000 
     32 OD1       147.2500  -12.1600  127.3000 O.co2     3 ASP3        0.0000 
     33 OD1       148.4200  -12.0500  126.3600 O.co2     3 ASP3        0.0000 
     34 OD1       150.7600  -11.8300  124.5000 O.co2     3 ASP3        0.0000 
     35 OD1       148.1900  -12.1200  128.4700 O.co2     3 ASP3        0.0000 
     36 NZ        144.8800  -18.2400  123.6100 N.4       4 LYS4        0.0000 
     37 NZ        144.9900  -19.7400  123.5700 N.4       4 LYS4        0.0000 
     38 NZ        146.1600  -19.6300  122.6300 N.4       4 LYS4        0.0000 
     39 NZ        145.8100  -18.2100  124.7800 N.4       4 LYS4        0.0000 
     40 NZ        146.9800  -18.1000  123.8500 N.4       4 LYS4        0.0000 
     41 CZ        143.0300  -15.2400  119.2400 C.ar      5 PHE5        0.0000 
     42 CZ        143.8600  -13.7100  120.4500 C.ar      5 PHE5        0.0000 
     43 CZ        144.7900  -13.6800  121.6300 C.ar      5 PHE5        0.0000 
     44 CZ        144.9000  -15.1700  121.5900 C.ar      5 PHE5        0.0000 
     45 CA        140.9300  -15.3900  119.0000 C.3       6 GLY6        0.0000 
     46 CA        140.5900  -13.9700  121.1500 C.3       6 GLY6        0.0000 
     47 CA        140.7000  -15.4600  121.1100 C.3       6 GLY6        0.0000 
     48 CA        141.7600  -13.8600  120.2100 C.3       6 GLY6        0.0000 
     49 CA        141.6300  -15.4300  122.2800 C.3       6 GLY6        0.0000 
     50 CA        142.6900  -13.8200  121.3900 C.3       6 GLY6        0.0000 
     51 CA        142.8000  -15.3200  121.3500 C.3       6 GLY6        0.0000 
     52 CA        142.6700  -16.8900  123.4100 C.3       6 GLY6        0.0000 
     53 CA        142.7800  -18.3800  123.3700 C.3       6 GLY6        0.0000 
     54 CA        143.6200  -13.7900  122.5600 C.3       6 GLY6        0.0000 
     55 CA        143.7300  -15.2800  122.5200 C.3       6 GLY6        0.0000 
     56 CA        145.2200  -19.6600  121.4600 C.3       6 GLY6        0.0000 
     57 CA        143.6000  -16.8600  124.5800 C.3       6 GLY6        0.0000 
     58 CA        143.7100  -18.3500  124.5400 C.3       6 GLY6        0.0000 
     59 CA        144.5600  -13.7500  123.7400 C.3       6 GLY6        0.0000 
     60 CA        144.6700  -15.2500  123.6900 C.3       6 GLY6        0.0000 
     61 CA        144.5400  -16.8200  125.7600 C.3       6 GLY6        0.0000 
     62 CA        145.3900  -12.2200  124.9500 C.3       6 GLY6        0.0000 
     63 CA        145.6000  -15.2200  124.8700 C.3       6 GLY6        0.0000 
     64 CA        146.7700  -15.1100  123.9300 C.3       6 GLY6        0.0000 
     65 CA        146.8800  -16.6000  123.8900 C.3       6 GLY6        0.0000 
     66 CA        145.2600  -13.8000  127.0200 C.3       6 GLY6        0.0000 
     67 CA        146.4300  -13.6900  126.0800 C.3       6 GLY6        0.0000 
     68 CA        146.5300  -15.1800  126.0400 C.3       6 GLY6        0.0000 
     69 CA        146.0800  -12.2700  128.2300 C.3       6 GLY6        0.0000 
     70 CA        147.3600  -13.6500  127.2600 C.3       6 GLY6        0.0000 
     71 CA        147.4700  -15.1500  127.2100 C.3       6 GLY6        0.0000 
     72 DU        144.7700  -16.7500  123.6500 H         7 CUB7        0.0000 
     73 DU        145.7100  -16.7100  124.8200 H         7 CUB7        0.0000 
@<TRIPOS>BOND
@<TRIPOS>SUBSTRUCTURE
     1 SER1        1 GROUP   
     2 ALA2       13 GROUP   
     3 ASP3       31 GROUP   
     4 LYS4       36 GROUP   
     5 PHE5       41 GROUP   
     6 GLY6       45 GROUP   
     7 CUB7       72 GROUP   
@<TRIPOS>SET

