#    Name: 6mze_10_GDP_CAVITY_N1_ALL
#    Modification time : Fri May 22 19:35:10 2020

@<TRIPOS>MOLECULE
6mze_10_GDP_CAVITY_N1_ALL
   95     0     7     0     0
SMALL
NO_CHARGES


@<TRIPOS>ATOM
      1 OG         76.2100  -19.9700  116.9500 O.3       1 SER1        0.0000 
      2 OG         75.8700  -18.5600  119.1000 O.3       1 SER1        0.0000 
      3 OG         76.8200  -15.4500  118.2500 O.3       1 SER1        0.0000 
      4 OG         76.9300  -16.9500  118.2100 O.3       1 SER1        0.0000 
      5 OG         77.0300  -18.4500  118.1700 O.3       1 SER1        0.0000 
      6 OG         77.1400  -19.9400  118.1300 O.3       1 SER1        0.0000 
      7 OG         78.2000  -18.3400  117.2300 O.3       1 SER1        0.0000 
      8 OG         77.8600  -16.9200  119.3800 O.3       1 SER1        0.0000 
      9 OG         77.6300  -16.9900  121.4900 O.3       1 SER1        0.0000 
     10 OG         78.6900  -15.3900  120.6000 O.3       1 SER1        0.0000 
     11 OG         78.9000  -18.3800  120.5200 O.3       1 SER1        0.0000 
     12 OG         79.9600  -16.7700  119.6200 O.3       1 SER1        0.0000 
     13 OG         80.0700  -18.2700  119.5800 O.3       1 SER1        0.0000 
     14 OG         81.1300  -16.6600  118.6900 O.3       1 SER1        0.0000 
     15 OG         81.2400  -18.1600  118.6500 O.3       1 SER1        0.0000 
     16 OG         82.3000  -16.5500  117.7600 O.3       1 SER1        0.0000 
     17 OG         83.4700  -16.4400  116.8200 O.3       1 SER1        0.0000 
     18 OG         82.1700  -18.1200  119.8200 O.3       1 SER1        0.0000 
     19 O          76.5500  -21.3900  114.8000 O.2       2 ALA2        0.0000 
     20 O          77.7200  -21.2800  113.8700 O.2       2 ALA2        0.0000 
     21 O          75.8900  -15.4900  117.0800 O.2       2 ALA2        0.0000 
     22 O          77.1600  -16.8700  116.1000 O.2       2 ALA2        0.0000 
     23 N          79.8200  -21.1400  114.1100 N.am      2 ALA2        0.0000 
     24 O          81.1000  -22.5300  113.1300 O.2       2 ALA2        0.0000 
     25 O          75.5400  -14.0700  119.2300 O.2       2 ALA2        0.0000 
     26 N          79.3700  -18.2200  116.3000 N.am      2 ALA2        0.0000 
     27 N          79.4800  -19.7200  116.2600 N.am      2 ALA2        0.0000 
     28 N          80.6500  -19.6100  115.3300 N.am      2 ALA2        0.0000 
     29 N          80.7600  -21.1100  115.2800 N.am      2 ALA2        0.0000 
     30 O          81.9200  -21.0000  114.3500 O.2       2 ALA2        0.0000 
     31 O          75.4200  -15.6400  121.2900 O.2       2 ALA2        0.0000 
     32 O          76.5800  -15.5300  120.3600 O.2       2 ALA2        0.0000 
     33 O          76.9100  -20.0200  120.2300 O.2       2 ALA2        0.0000 
     34 O          77.6500  -13.9200  119.4700 O.2       2 ALA2        0.0000 
     35 N          79.2400  -19.8000  118.3700 N.am      2 ALA2        0.0000 
     36 N          79.3500  -21.2900  118.3200 N.am      2 ALA2        0.0000 
     37 N          80.5200  -21.1800  117.3900 N.am      2 ALA2        0.0000 
     38 O          81.4800  -18.0800  116.5400 O.2       2 ALA2        0.0000 
     39 O          81.5800  -19.5800  116.5000 O.2       2 ALA2        0.0000 
     40 O          75.1800  -15.7200  123.4000 O.2       2 ALA2        0.0000 
     41 N          75.2900  -17.2100  123.3600 N.am      2 ALA2        0.0000 
     42 O          76.3500  -15.6100  122.4700 O.2       2 ALA2        0.0000 
     43 O          77.5200  -15.5000  121.5300 O.2       2 ALA2        0.0000 
     44 O          77.8400  -19.9800  121.4100 O.2       2 ALA2        0.0000 
     45 O          79.0100  -19.8700  120.4700 O.2       2 ALA2        0.0000 
     46 N          80.1800  -19.7600  119.5400 N.am      2 ALA2        0.0000 
     47 N          81.3500  -19.6500  118.6100 N.am      2 ALA2        0.0000 
     48 N          81.1100  -19.7300  120.7100 N.am      2 ALA2        0.0000 
     49 OD1        77.4800  -21.3600  115.9800 O.co2     3 ASP3        0.0000 
     50 OD1        78.6500  -21.2500  115.0400 O.co2     3 ASP3        0.0000 
     51 OD1        79.9300  -22.6400  114.0700 O.co2     3 ASP3        0.0000 
     52 OD1        78.4200  -21.3300  117.1500 O.co2     3 ASP3        0.0000 
     53 OD1        79.5900  -21.2200  116.2200 O.co2     3 ASP3        0.0000 
     54 OD1        80.8600  -22.6000  115.2400 O.co2     3 ASP3        0.0000 
     55 OD1        80.6300  -22.6800  117.3500 O.co2     3 ASP3        0.0000 
     56 NZ         77.8800  -13.8500  117.3600 N.4       4 LYS4        0.0000 
     57 NZ         77.9900  -15.3400  117.3200 N.4       4 LYS4        0.0000 
     58 NZ         78.1000  -16.8400  117.2800 N.4       4 LYS4        0.0000 
     59 NZ         79.2700  -16.7300  116.3400 N.4       4 LYS4        0.0000 
     60 NZ         78.9200  -15.3100  118.4900 N.4       4 LYS4        0.0000 
     61 NZ         80.2000  -16.7000  117.5200 N.4       4 LYS4        0.0000 
     62 NZ         81.3700  -16.5900  116.5800 N.4       4 LYS4        0.0000 
     63 CZ         76.4600  -17.1000  122.4200 C.ar      5 PHE5        0.0000 
     64 CZ         77.7300  -18.4900  121.4500 C.ar      5 PHE5        0.0000 
     65 CZ         76.2200  -17.1800  124.5300 C.ar      5 PHE5        0.0000 
     66 CZ         76.3300  -18.6700  124.4900 C.ar      5 PHE5        0.0000 
     67 CZ         77.3900  -17.0700  123.6000 C.ar      5 PHE5        0.0000 
     68 CZ         77.5000  -18.5600  123.5600 C.ar      5 PHE5        0.0000 
     69 CA         75.7800  -13.9900  117.1200 C.3       6 GLY6        0.0000 
     70 CA         77.0500  -15.3800  116.1500 C.3       6 GLY6        0.0000 
     71 CA         77.2700  -18.3700  116.0600 C.3       6 GLY6        0.0000 
     72 CA         77.3800  -19.8600  116.0200 C.3       6 GLY6        0.0000 
     73 CA         78.5500  -19.7500  115.0900 C.3       6 GLY6        0.0000 
     74 CA         75.6500  -15.5600  119.1900 C.3       6 GLY6        0.0000 
     75 CA         75.7600  -17.0600  119.1400 C.3       6 GLY6        0.0000 
     76 CA         76.7100  -13.9600  118.2900 C.3       6 GLY6        0.0000 
     77 CA         77.2500  -21.4400  118.0800 C.3       6 GLY6        0.0000 
     78 CA         82.0300  -22.4900  114.3100 C.3       6 GLY6        0.0000 
     79 CA         75.5200  -17.1400  121.2500 C.3       6 GLY6        0.0000 
     80 CA         76.6900  -17.0300  120.3200 C.3       6 GLY6        0.0000 
     81 CA         76.8000  -18.5200  120.2800 C.3       6 GLY6        0.0000 
     82 CA         78.0800  -19.9100  119.3000 C.3       6 GLY6        0.0000 
     83 CA         75.4000  -18.7100  123.3200 C.3       6 GLY6        0.0000 
     84 CA         76.5600  -18.6000  122.3800 C.3       6 GLY6        0.0000 
     85 CA         76.6700  -20.0900  122.3400 C.3       6 GLY6        0.0000 
     86 CA         79.8600  -15.2800  119.6700 C.3       6 GLY6        0.0000 
     87 DU         78.3100  -19.8300  117.1900 H         7 CUB7        0.0000 
     88 DU         77.7500  -15.4200  119.4300 H         7 CUB7        0.0000 
     89 DU         77.9700  -18.4100  119.3400 H         7 CUB7        0.0000 
     90 DU         79.0300  -16.8100  118.4500 H         7 CUB7        0.0000 
     91 DU         79.1400  -18.3000  118.4100 H         7 CUB7        0.0000 
     92 DU         80.3100  -18.1900  117.4700 H         7 CUB7        0.0000 
     93 DU         80.4100  -19.6900  117.4300 H         7 CUB7        0.0000 
     94 DU         81.6900  -21.0700  116.4600 H         7 CUB7        0.0000 
     95 DU         82.4100  -18.0500  117.7100 H         7 CUB7        0.0000 
@<TRIPOS>BOND
@<TRIPOS>SUBSTRUCTURE
     1 SER1        1 GROUP   
     2 ALA2       19 GROUP   
     3 ASP3       49 GROUP   
     4 LYS4       56 GROUP   
     5 PHE5       63 GROUP   
     6 GLY6       69 GROUP   
     7 CUB7       87 GROUP   
@<TRIPOS>SET

