#    Name: 6mze_12_GDP
#    Modification time : Fri May 22 19:35:29 2020

@<TRIPOS>MOLECULE
6mze_12_GDP
   28    30     1     0     1
SMALL
NO_CHARGES


@<TRIPOS>ATOM
      1 PB        107.5220  -32.2460   15.2490 P.3       1 GDP600      0.0000 
      2 O1B       106.0880  -32.5140   14.8620 O.co2     1 GDP600      0.0000 
      3 O2B       108.3480  -33.4580   14.8930 O.co2     1 GDP600      0.0000 
      4 O3B       107.6090  -31.9740   16.7330 O.co2     1 GDP600      0.0000 
      5 O3A       108.0290  -30.9590   14.4270 O.3       1 GDP600      0.0000 
      6 PA        109.4460  -30.2430   14.7010 P.3       1 GDP600      0.0000 
      7 O1A       110.4290  -30.5140   13.5830 O.co2     1 GDP600      0.0000 
      8 O2A       110.0080  -30.6360   16.0490 O.co2     1 GDP600      0.0000 
      9 O5'       108.9840  -28.7000   14.6970 O.3       1 GDP600      0.0000 
     10 C5'       109.5670  -27.7350   13.8250 C.3       1 GDP600      0.0000 
     11 C4'       110.0840  -26.5680   14.6530 C.3       1 GDP600      0.0000 
     12 O4'       111.1450  -27.0490   15.4730 O.3       1 GDP600      0.0000 
     13 C3'       110.6760  -25.4680   13.7900 C.3       1 GDP600      0.0000 
     14 O3'       110.5560  -24.2340   14.5020 O.3       1 GDP600      0.0000 
     15 C2'       112.1310  -25.8590   13.6880 C.3       1 GDP600      0.0000 
     16 O2'       112.9370  -24.6900   13.5230 O.3       1 GDP600      0.0000 
     17 C1'       112.3930  -26.5100   15.0370 C.3       1 GDP600      0.0000 
     18 N9        113.3870  -27.6090   14.9660 N.pl3     1 GDP600      0.0000 
     19 C8        113.2480  -28.7730   14.3030 C.2       1 GDP600      0.0000 
     20 N7        114.3470  -29.5580   14.4600 N.2       1 GDP600      0.0000 
     21 C5        115.2080  -28.8910   15.2550 C.2       1 GDP600      0.0000 
     22 C6        116.5550  -29.1270   15.8310 C.2       1 GDP600      0.0000 
     23 O6        117.1740  -30.1860   15.6000 O.2       1 GDP600      0.0000 
     24 N1        117.0920  -28.1740   16.6070 N.am      1 GDP600      0.0000 
     25 C2        116.4550  -27.0190   16.8780 C.2       1 GDP600      0.0000 
     26 N2        117.0630  -26.1020   17.6720 N.pl3     1 GDP600      0.0000 
     27 N3        115.2220  -26.7370   16.3860 N.2       1 GDP600      0.0000 
     28 C4        114.5650  -27.6120   15.5880 C.2       1 GDP600      0.0000 
@<TRIPOS>BOND
     1    1    2 ar   
     2    1    3 ar   
     3    1    4 ar   
     4    1    5 1    
     5    5    6 1    
     6    6    7 ar   
     7    6    8 ar   
     8    6    9 1    
     9    9   10 1    
    10   10   11 1    
    11   11   12 1    
    12   11   13 1    
    13   12   17 1    
    14   13   14 1    
    15   13   15 1    
    16   15   16 1    
    17   15   17 1    
    18   17   18 1    
    19   18   19 1    
    20   18   28 1    
    21   19   20 2    
    22   20   21 1    
    23   21   22 1    
    24   21   28 2    
    25   22   23 2    
    26   22   24 am   
    27   24   25 1    
    28   25   26 1    
    29   25   27 2    
    30   27   28 1    
@<TRIPOS>SUBSTRUCTURE
     1 GDP600      1 GROUP   
@<TRIPOS>SET
ATOM$ORANGE STATIC     ATOMS   COLORGROUP SYSTEM 
20 10 10 11 11 13 13 15 15 17 17 19 19 21 21 22 22 25 \
25 28 28 

