#    Name: 6mze_11_GTP
#    Modification time : Fri May 22 19:35:22 2020

@<TRIPOS>MOLECULE
6mze_11_GTP
   32    34     1     0     1
SMALL
NO_CHARGES


@<TRIPOS>ATOM
      1 PG        114.0380  -27.7360   53.9520 P.3       1 GTP600      0.0000 
      2 O1G       113.3550  -26.6890   53.1060 O.co2     1 GTP600      0.0000 
      3 O2G       115.3900  -28.0500   53.3590 O.co2     1 GTP600      0.0000 
      4 O3G       113.2040  -28.9950   53.9730 O.co2     1 GTP600      0.0000 
      5 O3B       114.1900  -27.1550   55.4500 O.3       1 GTP600      0.0000 
      6 PB        115.6130  -27.1360   56.2080 P.3       1 GTP600      0.0000 
      7 O1B       116.3870  -28.4050   55.9470 O.co2     1 GTP600      0.0000 
      8 O2B       115.3750  -26.9550   57.6900 O.co2     1 GTP600      0.0000 
      9 O3A       116.3860  -25.8460   55.6200 O.3       1 GTP600      0.0000 
     10 PA        117.8430  -25.4510   56.1900 P.3       1 GTP600      0.0000 
     11 O1A       118.8570  -26.4840   55.7600 O.co2     1 GTP600      0.0000 
     12 O2A       117.7840  -25.3600   57.6950 O.co2     1 GTP600      0.0000 
     13 O5'       118.2330  -24.0210   55.5440 O.3       1 GTP600      0.0000 
     14 C5'       117.5870  -22.8340   55.9560 C.3       1 GTP600      0.0000 
     15 C4'       118.5480  -21.7820   56.4820 C.3       1 GTP600      0.0000 
     16 O4'       119.3470  -22.3970   57.4610 O.3       1 GTP600      0.0000 
     17 C3'       119.4630  -21.2430   55.3960 C.3       1 GTP600      0.0000 
     18 O3'       119.3330  -19.8410   55.3440 O.3       1 GTP600      0.0000 
     19 C2'       120.8590  -21.6230   55.8380 C.3       1 GTP600      0.0000 
     20 O2'       121.6980  -20.4980   55.7230 O.3       1 GTP600      0.0000 
     21 C1'       120.6930  -22.0280   57.2940 C.3       1 GTP600      0.0000 
     22 N9        121.4830  -23.2130   57.6620 N.pl3     1 GTP600      0.0000 
     23 C8        121.3420  -24.4820   57.1600 C.2       1 GTP600      0.0000 
     24 N7        122.2430  -25.2880   57.7680 N.2       1 GTP600      0.0000 
     25 C5        122.9430  -24.5500   58.6600 C.2       1 GTP600      0.0000 
     26 C6        123.9730  -24.8580   59.5400 C.2       1 GTP600      0.0000 
     27 O6        124.4090  -26.0060   59.5980 O.2       1 GTP600      0.0000 
     28 N1        124.5110  -23.8680   60.3400 N.am      1 GTP600      0.0000 
     29 C2        124.0230  -22.5790   60.2680 C.2       1 GTP600      0.0000 
     30 N2        124.5360  -21.6250   61.0410 N.pl3     1 GTP600      0.0000 
     31 N3        123.0000  -22.2800   59.3930 N.2       1 GTP600      0.0000 
     32 C4        122.4710  -23.2460   58.6050 C.2       1 GTP600      0.0000 
@<TRIPOS>BOND
     1    1    2 ar   
     2    1    3 ar   
     3    1    4 ar   
     4    1    5 1    
     5    5    6 1    
     6    6    7 ar   
     7    6    8 ar   
     8    6    9 1    
     9    9   10 1    
    10   10   11 ar   
    11   10   12 ar   
    12   10   13 1    
    13   13   14 1    
    14   14   15 1    
    15   15   16 1    
    16   15   17 1    
    17   16   21 1    
    18   17   18 1    
    19   17   19 1    
    20   19   20 1    
    21   19   21 1    
    22   21   22 1    
    23   22   23 1    
    24   22   32 1    
    25   23   24 2    
    26   24   25 1    
    27   25   26 1    
    28   25   32 2    
    29   26   27 2    
    30   26   28 am   
    31   28   29 1    
    32   29   30 1    
    33   29   31 2    
    34   31   32 1    
@<TRIPOS>SUBSTRUCTURE
     1 GTP600      1 GROUP   
@<TRIPOS>SET
ATOM$ORANGE STATIC     ATOMS   COLORGROUP SYSTEM 
20 14 14 15 15 17 17 19 19 21 21 23 23 25 25 26 26 29 \
29 32 32 

