#    Name: 6mze_8_GDP_CAVITY_N1_4
#    Modification time : Fri May 22 19:34:48 2020

@<TRIPOS>MOLECULE
6mze_8_GDP_CAVITY_N1_4
   94     0     7     0     0
SMALL
NO_CHARGES


@<TRIPOS>ATOM
      1 OG        217.1900  -25.2100  235.0100 O.3       1 SER1        0.0000 
      2 OG        217.2900  -26.7100  234.9700 O.3       1 SER1        0.0000 
      3 OG        217.4000  -28.2000  234.9300 O.3       1 SER1        0.0000 
      4 OG        218.6800  -29.5900  233.9500 O.3       1 SER1        0.0000 
      5 OG        218.2300  -26.6700  236.1400 O.3       1 SER1        0.0000 
      6 OG        219.5000  -28.0600  235.1700 O.3       1 SER1        0.0000 
      7 OG        218.2100  -29.7400  238.1700 O.3       1 SER1        0.0000 
      8 OG        218.3100  -31.2400  238.1200 O.3       1 SER1        0.0000 
      9 OG        219.3800  -29.6300  237.2300 O.3       1 SER1        0.0000 
     10 OG        220.4400  -28.0200  236.3400 O.3       1 SER1        0.0000 
     11 OG        220.5400  -29.5200  236.3000 O.3       1 SER1        0.0000 
     12 OG        220.6500  -31.0200  236.2600 O.3       1 SER1        0.0000 
     13 OG        220.2000  -28.1000  238.4500 O.3       1 SER1        0.0000 
     14 O         216.5700  -29.7300  233.7100 O.2       2 ALA2        0.0000 
     15 O         219.0200  -31.0100  231.8000 O.2       2 ALA2        0.0000 
     16 O         214.7400  -23.9400  236.9200 O.2       2 ALA2        0.0000 
     17 O         214.8500  -25.4300  236.8800 O.2       2 ALA2        0.0000 
     18 O         218.7800  -31.0800  233.9100 O.2       2 ALA2        0.0000 
     19 O         219.9500  -30.9700  232.9800 O.2       2 ALA2        0.0000 
     20 O         214.6100  -25.5100  238.9900 O.2       2 ALA2        0.0000 
     21 N         215.7800  -25.4000  238.0500 N.am      2 ALA2        0.0000 
     22 N         215.8900  -26.8900  238.0100 N.am      2 ALA2        0.0000 
     23 N         216.1000  -29.8800  237.9300 N.am      2 ALA2        0.0000 
     24 N         217.1700  -28.2800  237.0300 N.am      2 ALA2        0.0000 
     25 O         219.7200  -31.0500  235.0800 O.2       2 ALA2        0.0000 
     26 O         220.7800  -29.4400  234.1900 O.2       2 ALA2        0.0000 
     27 O         220.8900  -30.9400  234.1500 O.2       2 ALA2        0.0000 
     28 O         221.9500  -29.3300  233.2600 O.2       2 ALA2        0.0000 
     29 O         223.1200  -29.2200  232.3200 O.2       2 ALA2        0.0000 
     30 N         224.1800  -27.6200  231.4300 N.am      2 ALA2        0.0000 
     31 N         224.2900  -29.1100  231.3900 N.am      2 ALA2        0.0000 
     32 N         216.8200  -26.8600  239.1800 N.am      2 ALA2        0.0000 
     33 N         216.9300  -28.3600  239.1400 N.am      2 ALA2        0.0000 
     34 O         217.0400  -29.8500  239.1000 O.2       2 ALA2        0.0000 
     35 N         217.8800  -25.2500  238.2900 N.am      2 ALA2        0.0000 
     36 N         217.9900  -26.7500  238.2500 N.am      2 ALA2        0.0000 
     37 N         219.1600  -26.6400  237.3200 N.am      2 ALA2        0.0000 
     38 O         220.3300  -26.5300  236.3800 O.2       2 ALA2        0.0000 
     39 O         222.9900  -30.8000  234.3900 O.2       2 ALA2        0.0000 
     40 N         223.9400  -27.6900  233.5400 N.am      2 ALA2        0.0000 
     41 O         224.0500  -29.1900  233.5000 O.2       2 ALA2        0.0000 
     42 O         224.1600  -30.6900  233.4600 O.2       2 ALA2        0.0000 
     43 N         225.1100  -27.5800  232.6100 N.am      2 ALA2        0.0000 
     44 N         225.2200  -29.0800  232.5600 N.am      2 ALA2        0.0000 
     45 N         218.9300  -26.7200  239.4200 N.am      2 ALA2        0.0000 
     46 N         219.0300  -28.2100  239.3800 N.am      2 ALA2        0.0000 
     47 O         221.3700  -27.9900  237.5100 O.2       2 ALA2        0.0000 
     48 O         223.6000  -26.2700  235.6900 O.2       2 ALA2        0.0000 
     49 OD1       215.9100  -23.8300  235.9900 O.co2     3 ASP3        0.0000 
     50 OD1       214.5100  -24.0100  239.0300 O.co2     3 ASP3        0.0000 
     51 OD1       215.6700  -23.9000  238.0900 O.co2     3 ASP3        0.0000 
     52 OD1       216.8400  -23.7900  237.1600 O.co2     3 ASP3        0.0000 
     53 OD1       216.9500  -25.2900  237.1200 O.co2     3 ASP3        0.0000 
     54 OD1       215.3300  -22.4800  240.2400 O.co2     3 ASP3        0.0000 
     55 OD1       216.7200  -25.3600  239.2300 O.co2     3 ASP3        0.0000 
     56 OD1       217.5400  -23.8300  240.4400 O.co2     3 ASP3        0.0000 
     57 NZ        216.3400  -29.8100  235.8200 N.4       4 LYS4        0.0000 
     58 NZ        217.5100  -29.7000  234.8900 N.4       4 LYS4        0.0000 
     59 NZ        217.6200  -31.1900  234.8400 N.4       4 LYS4        0.0000 
     60 NZ        217.2700  -29.7700  236.9900 N.4       4 LYS4        0.0000 
     61 NZ        218.5500  -31.1600  236.0200 N.4       4 LYS4        0.0000 
     62 CZ        221.7100  -29.4100  235.3700 C.ar      5 PHE5        0.0000 
     63 CZ        221.8200  -30.9100  235.3200 C.ar      5 PHE5        0.0000 
     64 CZ        222.8800  -29.3000  234.4300 C.ar      5 PHE5        0.0000 
     65 CZ        222.5400  -27.8800  236.5800 C.ar      5 PHE5        0.0000 
     66 CZ        223.7100  -27.7700  235.6500 C.ar      5 PHE5        0.0000 
     67 CZ        223.8200  -29.2700  235.6100 C.ar      5 PHE5        0.0000 
     68 CZ        224.8800  -27.6600  234.7100 C.ar      5 PHE5        0.0000 
     69 CZ        224.9800  -29.1600  234.6700 C.ar      5 PHE5        0.0000 
     70 CA        216.6800  -31.2300  233.6700 C.3       6 GLY6        0.0000 
     71 CA        217.7400  -29.6200  232.7800 C.3       6 GLY6        0.0000 
     72 CA        217.8500  -31.1200  232.7400 C.3       6 GLY6        0.0000 
     73 CA        218.9100  -29.5100  231.8500 C.3       6 GLY6        0.0000 
     74 CA        216.0200  -25.3200  235.9500 C.3       6 GLY6        0.0000 
     75 CA        216.1200  -26.8200  235.9000 C.3       6 GLY6        0.0000 
     76 CA        216.2300  -28.3100  235.8600 C.3       6 GLY6        0.0000 
     77 CA        219.8500  -29.4800  233.0200 C.3       6 GLY6        0.0000 
     78 CA        221.0100  -29.3700  232.0800 C.3       6 GLY6        0.0000 
     79 CA        218.1200  -25.1800  236.1900 C.3       6 GLY6        0.0000 
     80 CA        219.4000  -26.5600  235.2100 C.3       6 GLY6        0.0000 
     81 CA        219.8300  -32.5500  235.0400 C.3       6 GLY6        0.0000 
     82 CA        220.6700  -27.9500  234.2300 C.3       6 GLY6        0.0000 
     83 CA        219.4800  -31.1300  237.1900 C.3       6 GLY6        0.0000 
     84 CA        221.5000  -26.4200  235.4500 C.3       6 GLY6        0.0000 
     85 CA        221.6100  -27.9100  235.4100 C.3       6 GLY6        0.0000 
     86 CA        222.7700  -27.8000  234.4700 C.3       6 GLY6        0.0000 
     87 CA        223.8400  -26.2000  233.5800 C.3       6 GLY6        0.0000 
     88 CA        224.7700  -26.1600  234.7600 C.3       6 GLY6        0.0000 
     89 DU        217.0600  -26.7800  237.0800 H         7 CUB7        0.0000 
     90 DU        218.3300  -28.1700  236.1000 H         7 CUB7        0.0000 
     91 DU        218.4400  -29.6600  236.0600 H         7 CUB7        0.0000 
     92 DU        219.6100  -29.5500  235.1300 H         7 CUB7        0.0000 
     93 DU        218.1000  -28.2500  238.2100 H         7 CUB7        0.0000 
     94 DU        219.2700  -28.1300  237.2700 H         7 CUB7        0.0000 
@<TRIPOS>BOND
@<TRIPOS>SUBSTRUCTURE
     1 SER1        1 GROUP   
     2 ALA2       14 GROUP   
     3 ASP3       49 GROUP   
     4 LYS4       57 GROUP   
     5 PHE5       62 GROUP   
     6 GLY6       70 GROUP   
     7 CUB7       89 GROUP   
@<TRIPOS>SET

