#    Name: 6mze_13_GTP
#    Modification time : Fri May 22 19:35:41 2020

@<TRIPOS>MOLECULE
6mze_13_GTP
   32    34     1     0     1
SMALL
NO_CHARGES


@<TRIPOS>ATOM
      1 PG         41.3390  -29.1790  -12.1510 P.3       1 GTP600      0.0000 
      2 O1G        40.8290  -29.6730  -13.4850 O.co2     1 GTP600      0.0000 
      3 O2G        40.3930  -28.1400  -11.6010 O.co2     1 GTP600      0.0000 
      4 O3G        41.4340  -30.3390  -11.1880 O.co2     1 GTP600      0.0000 
      5 O3B        42.7890  -28.4960  -12.3240 O.3       1 GTP600      0.0000 
      6 PB         43.5860  -28.5540  -13.7240 P.3       1 GTP600      0.0000 
      7 O1B        43.4610  -29.9090  -14.3780 O.co2     1 GTP600      0.0000 
      8 O2B        45.0360  -28.2150  -13.4690 O.co2     1 GTP600      0.0000 
      9 O3A        42.9220  -27.3940  -14.6290 O.3       1 GTP600      0.0000 
     10 PA         43.5010  -27.0980  -16.1040 P.3       1 GTP600      0.0000 
     11 O1A        43.1620  -28.2460  -17.0210 O.co2     1 GTP600      0.0000 
     12 O2A        44.9960  -26.8930  -16.0390 O.co2     1 GTP600      0.0000 
     13 O5'        42.7610  -25.7660  -16.6380 O.3       1 GTP600      0.0000 
     14 C5'        43.0640  -24.4950  -16.1040 C.3       1 GTP600      0.0000 
     15 C4'        43.5310  -23.5220  -17.1750 C.3       1 GTP600      0.0000 
     16 O4'        44.5790  -24.1310  -17.8910 O.3       1 GTP600      0.0000 
     17 C3'        42.4290  -23.1840  -18.1640 C.3       1 GTP600      0.0000 
     18 O3'        42.2470  -21.7860  -18.1820 O.3       1 GTP600      0.0000 
     19 C2'        42.9390  -23.6650  -19.5050 C.3       1 GTP600      0.0000 
     20 O2'        42.7530  -22.6520  -20.4650 O.3       1 GTP600      0.0000 
     21 C1'        44.4200  -23.9220  -19.2740 C.3       1 GTP600      0.0000 
     22 N9         44.9080  -25.1400  -19.9400 N.pl3     1 GTP600      0.0000 
     23 C8         44.5130  -26.4290  -19.6890 C.2       1 GTP600      0.0000 
     24 N7         45.2110  -27.2600  -20.4980 N.2       1 GTP600      0.0000 
     25 C5         46.0560  -26.5160  -21.2490 C.2       1 GTP600      0.0000 
     26 C6         46.9830  -26.8440  -22.2300 C.2       1 GTP600      0.0000 
     27 O6         47.1500  -28.0190  -22.5510 O.2       1 GTP600      0.0000 
     28 N1         47.7120  -25.8460  -22.8450 N.am      1 GTP600      0.0000 
     29 C2         47.5190  -24.5270  -22.4850 C.2       1 GTP600      0.0000 
     30 N2         48.2220  -23.5640  -23.0750 N.pl3     1 GTP600      0.0000 
     31 N3         46.5950  -24.2090  -21.5120 N.2       1 GTP600      0.0000 
     32 C4         45.8770  -25.1840  -20.9050 C.2       1 GTP600      0.0000 
@<TRIPOS>BOND
     1    1    2 ar   
     2    1    3 ar   
     3    1    4 ar   
     4    1    5 1    
     5    5    6 1    
     6    6    7 ar   
     7    6    8 ar   
     8    6    9 1    
     9    9   10 1    
    10   10   11 ar   
    11   10   12 ar   
    12   10   13 1    
    13   13   14 1    
    14   14   15 1    
    15   15   16 1    
    16   15   17 1    
    17   16   21 1    
    18   17   18 1    
    19   17   19 1    
    20   19   20 1    
    21   19   21 1    
    22   21   22 1    
    23   22   23 1    
    24   22   32 1    
    25   23   24 2    
    26   24   25 1    
    27   25   26 1    
    28   25   32 2    
    29   26   27 2    
    30   26   28 am   
    31   28   29 1    
    32   29   30 1    
    33   29   31 2    
    34   31   32 1    
@<TRIPOS>SUBSTRUCTURE
     1 GTP600      1 GROUP   
@<TRIPOS>SET
ATOM$ORANGE STATIC     ATOMS   COLORGROUP SYSTEM 
20 14 14 15 15 17 17 19 19 21 21 23 23 25 25 26 26 29 \
29 32 32 

