#    Name: 6mze_15_GTP
#    Modification time : Fri May 22 19:36:00 2020

@<TRIPOS>MOLECULE
6mze_15_GTP
   32    34     1     0     1
SMALL
NO_CHARGES


@<TRIPOS>ATOM
      1 PG        -36.4170  -29.1350   56.2790 P.3       1 GTP600      0.0000 
      2 O1G       -35.5620  -30.3290   56.6350 O.co2     1 GTP600      0.0000 
      3 O2G       -37.7720  -29.2770   56.9290 O.co2     1 GTP600      0.0000 
      4 O3G       -35.7540  -27.8670   56.7600 O.co2     1 GTP600      0.0000 
      5 O3B       -36.5750  -29.0440   54.6780 O.3       1 GTP600      0.0000 
      6 PB        -37.9960  -29.2810   53.9550 P.3       1 GTP600      0.0000 
      7 O1B       -37.7490  -29.5440   52.4880 O.co2     1 GTP600      0.0000 
      8 O2B       -38.7570  -30.4280   54.5780 O.co2     1 GTP600      0.0000 
      9 O3A       -38.7840  -27.8830   54.1210 O.3       1 GTP600      0.0000 
     10 PA        -40.2450  -27.7010   53.4610 P.3       1 GTP600      0.0000 
     11 O1A       -40.2050  -28.0890   52.0030 O.co2     1 GTP600      0.0000 
     12 O2A       -41.2440  -28.5490   54.2070 O.co2     1 GTP600      0.0000 
     13 O5'       -40.6420  -26.1460   53.6350 O.3       1 GTP600      0.0000 
     14 C5'       -40.0030  -25.1420   52.8770 C.3       1 GTP600      0.0000 
     15 C4'       -40.9860  -24.3220   52.0590 C.3       1 GTP600      0.0000 
     16 O4'       -41.7800  -25.2170   51.3180 O.3       1 GTP600      0.0000 
     17 C3'       -41.9090  -23.4920   52.9340 C.3       1 GTP600      0.0000 
     18 O3'       -41.7930  -22.1370   52.5630 O.3       1 GTP600      0.0000 
     19 C2'       -43.3010  -24.0040   52.6310 C.3       1 GTP600      0.0000 
     20 O2'       -44.1560  -22.9090   52.4010 O.3       1 GTP600      0.0000 
     21 C1'       -43.1320  -24.8310   51.3670 C.3       1 GTP600      0.0000 
     22 N9        -43.9180  -26.0740   51.3790 N.pl3     1 GTP600      0.0000 
     23 C8        -43.7770  -27.1300   52.2430 C.2       1 GTP600      0.0000 
     24 N7        -44.6760  -28.0840   51.9080 N.2       1 GTP600      0.0000 
     25 C5        -45.3750  -27.6540   50.8330 C.2       1 GTP600      0.0000 
     26 C6        -46.4040  -28.2200   50.0920 C.2       1 GTP600      0.0000 
     27 O6        -46.8340  -29.3330   50.3890 O.2       1 GTP600      0.0000 
     28 N1        -46.9410  -27.5230   49.0270 N.am      1 GTP600      0.0000 
     29 C2        -46.4550  -26.2720   48.7030 C.2       1 GTP600      0.0000 
     30 N2        -46.9670  -25.6000   47.6760 N.pl3     1 GTP600      0.0000 
     31 N3        -45.4340  -25.7160   49.4450 N.2       1 GTP600      0.0000 
     32 C4        -44.9050  -26.3950   50.4890 C.2       1 GTP600      0.0000 
@<TRIPOS>BOND
     1    1    2 ar   
     2    1    3 ar   
     3    1    4 ar   
     4    1    5 1    
     5    5    6 1    
     6    6    7 ar   
     7    6    8 ar   
     8    6    9 1    
     9    9   10 1    
    10   10   11 ar   
    11   10   12 ar   
    12   10   13 1    
    13   13   14 1    
    14   14   15 1    
    15   15   16 1    
    16   15   17 1    
    17   16   21 1    
    18   17   18 1    
    19   17   19 1    
    20   19   20 1    
    21   19   21 1    
    22   21   22 1    
    23   22   23 1    
    24   22   32 1    
    25   23   24 2    
    26   24   25 1    
    27   25   26 1    
    28   25   32 2    
    29   26   27 2    
    30   26   28 am   
    31   28   29 1    
    32   29   30 1    
    33   29   31 2    
    34   31   32 1    
@<TRIPOS>SUBSTRUCTURE
     1 GTP600      1 GROUP   
@<TRIPOS>SET
ATOM$ORANGE STATIC     ATOMS   COLORGROUP SYSTEM 
20 14 14 15 15 17 17 19 19 21 21 23 23 25 25 26 26 29 \
29 32 32 

