#    Name: 6mze_16_GDP_CAVITY_N1_8
#    Modification time : Fri May 22 19:36:07 2020

@<TRIPOS>MOLECULE
6mze_16_GDP_CAVITY_N1_8
   85     0     7     0     0
SMALL
NO_CHARGES


@<TRIPOS>ATOM
      1 OG        -35.9800  -16.8800   94.9400 O.3       1 SER1        0.0000 
      2 OG        -35.8800  -18.3700   94.9000 O.3       1 SER1        0.0000 
      3 OG        -34.8200  -16.7700   94.0000 O.3       1 SER1        0.0000 
      4 OG        -33.6500  -16.6600   93.0700 O.3       1 SER1        0.0000 
      5 OG        -33.5400  -18.1500   93.0300 O.3       1 SER1        0.0000 
      6 OG        -32.4800  -16.5500   92.1400 O.3       1 SER1        0.0000 
      7 OG        -34.9400  -18.3400   96.0700 O.3       1 SER1        0.0000 
      8 OG        -33.9900  -15.2400   95.2200 O.3       1 SER1        0.0000 
      9 OG        -33.8800  -16.7300   95.1800 O.3       1 SER1        0.0000 
     10 OG        -32.7100  -16.6200   94.2400 O.3       1 SER1        0.0000 
     11 OG        -32.6100  -18.1200   94.2000 O.3       1 SER1        0.0000 
     12 OG        -32.5000  -19.6200   94.1600 O.3       1 SER1        0.0000 
     13 OG        -31.2200  -21.0000   93.1800 O.3       1 SER1        0.0000 
     14 OG        -34.2200  -15.3200   97.3300 O.3       1 SER1        0.0000 
     15 OG        -34.1200  -16.8100   97.2800 O.3       1 SER1        0.0000 
     16 OG        -33.0600  -15.2100   96.3900 O.3       1 SER1        0.0000 
     17 OG        -33.2900  -15.2800   98.5000 O.3       1 SER1        0.0000 
     18 OG        -32.1200  -15.1700   97.5700 O.3       1 SER1        0.0000 
     19 OG        -31.1900  -15.1400   98.7400 O.3       1 SER1        0.0000 
     20 N         -38.6800  -18.4800   91.3800 N.am      2 ALA2        0.0000 
     21 O         -37.8500  -16.9500   92.5900 O.2       2 ALA2        0.0000 
     22 N         -37.7500  -18.4400   92.5500 N.am      2 ALA2        0.0000 
     23 O         -36.6800  -16.8400   91.6600 O.2       2 ALA2        0.0000 
     24 O         -35.8600  -15.3100   92.8700 O.2       2 ALA2        0.0000 
     25 O         -35.7500  -16.8000   92.8300 O.2       2 ALA2        0.0000 
     26 O         -34.6900  -15.2000   91.9400 O.2       2 ALA2        0.0000 
     27 O         -35.7700  -19.8700   94.8500 O.2       2 ALA2        0.0000 
     28 O         -35.0300  -13.7800   94.0900 O.2       2 ALA2        0.0000 
     29 O         -34.9200  -15.2700   94.0500 O.2       2 ALA2        0.0000 
     30 O         -33.8600  -13.6700   93.1500 O.2       2 ALA2        0.0000 
     31 O         -33.7500  -15.1600   93.1100 O.2       2 ALA2        0.0000 
     32 O         -32.3900  -21.1100   94.1200 O.2       2 ALA2        0.0000 
     33 O         -31.5400  -16.5100   93.3100 O.2       2 ALA2        0.0000 
     34 N         -34.0100  -18.3100   97.2400 N.am      2 ALA2        0.0000 
     35 O         -30.6100  -16.4800   94.4800 O.2       2 ALA2        0.0000 
     36 N         -32.9700  -19.7700   98.3700 N.am      2 ALA2        0.0000 
     37 N         -32.0100  -16.6700   97.5200 N.am      2 ALA2        0.0000 
     38 N         -30.8500  -16.5600   96.5900 N.am      2 ALA2        0.0000 
     39 N         -30.7400  -18.0500   96.5500 N.am      2 ALA2        0.0000 
     40 O         -31.0800  -16.6300   98.7000 O.2       2 ALA2        0.0000 
     41 N         -29.7000  -19.5100   97.6800 N.am      2 ALA2        0.0000 
     42 N         -28.5300  -19.4000   96.7500 N.am      2 ALA2        0.0000 
     43 O         -28.4200  -20.9000   96.7000 O.2       2 ALA2        0.0000 
     44 O         -30.0400  -18.0900   99.8300 O.2       2 ALA2        0.0000 
     45 O         -28.7600  -19.4800   98.8500 O.2       2 ALA2        0.0000 
     46 O         -27.4900  -20.8700   97.8800 O.2       2 ALA2        0.0000 
     47 OD1       -32.7300  -19.6900   96.2700 O.co2     3 ASP3        0.0000 
     48 OD1       -31.5600  -19.5800   95.3300 O.co2     3 ASP3        0.0000 
     49 OD1       -30.2900  -20.9700   94.3600 O.co2     3 ASP3        0.0000 
     50 OD1       -31.9100  -18.1600   97.4800 O.co2     3 ASP3        0.0000 
     51 OD1       -30.6300  -19.5500   96.5100 O.co2     3 ASP3        0.0000 
     52 OD1       -29.3500  -20.9300   95.5300 O.co2     3 ASP3        0.0000 
     53 OD1       -30.8700  -19.6200   98.6100 O.co2     3 ASP3        0.0000 
     54 OD1       -29.9300  -19.5900   99.7900 O.co2     3 ASP3        0.0000 
     55 OD1       -29.8200  -21.0900   99.7400 O.co2     3 ASP3        0.0000 
     56 OD1       -28.6600  -20.9800   98.8100 O.co2     3 ASP3        0.0000 
     57 NZ        -32.8200  -15.1300   94.2900 N.4       4 LYS4        0.0000 
     58 NZ        -31.6500  -15.0200   93.3500 N.4       4 LYS4        0.0000 
     59 NZ        -31.8900  -15.1000   95.4600 N.4       4 LYS4        0.0000 
     60 NZ        -31.7800  -16.5900   95.4200 N.4       4 LYS4        0.0000 
     61 NZ        -30.9500  -15.0600   96.6300 N.4       4 LYS4        0.0000 
     62 CZ        -38.9100  -18.5500   93.4800 C.ar      5 PHE5        0.0000 
     63 CZ        -37.9800  -18.5200   94.6600 C.ar      5 PHE5        0.0000 
     64 CZ        -37.0300  -15.4200   93.8100 C.ar      5 PHE5        0.0000 
     65 CZ        -36.9200  -16.9100   93.7600 C.ar      5 PHE5        0.0000 
     66 CA        -36.8100  -18.4100   93.7200 C.3       6 GLY6        0.0000 
     67 CA        -36.7000  -19.9000   93.6800 C.3       6 GLY6        0.0000 
     68 CA        -35.6400  -18.3000   92.7900 C.3       6 GLY6        0.0000 
     69 CA        -34.5800  -16.6900   91.9000 C.3       6 GLY6        0.0000 
     70 CA        -33.5200  -15.0900   91.0100 C.3       6 GLY6        0.0000 
     71 CA        -34.7100  -18.2600   93.9600 C.3       6 GLY6        0.0000 
     72 CA        -34.6000  -19.7600   93.9200 C.3       6 GLY6        0.0000 
     73 CA        -32.5900  -15.0500   92.1800 C.3       6 GLY6        0.0000 
     74 CA        -34.1000  -13.7400   95.2600 C.3       6 GLY6        0.0000 
     75 CA        -33.6700  -19.7300   95.0900 C.3       6 GLY6        0.0000 
     76 CA        -31.6700  -18.0900   95.3700 C.3       6 GLY6        0.0000 
     77 CA        -30.5000  -17.9800   94.4400 C.3       6 GLY6        0.0000 
     78 CA        -30.4000  -19.4700   94.4000 C.3       6 GLY6        0.0000 
     79 CA        -29.4600  -19.4400   95.5700 C.3       6 GLY6        0.0000 
     80 CA        -27.8300  -19.4500  100.0300 C.3       6 GLY6        0.0000 
     81 CA        -27.7200  -20.9400   99.9800 C.3       6 GLY6        0.0000 
     82 DU        -33.7700  -18.2300   95.1400 H         7 CUB7        0.0000 
     83 DU        -32.9500  -16.7000   96.3500 H         7 CUB7        0.0000 
     84 DU        -32.8400  -18.2000   96.3100 H         7 CUB7        0.0000 
     85 DU        -33.1800  -16.7800   98.4600 H         7 CUB7        0.0000 
@<TRIPOS>BOND
@<TRIPOS>SUBSTRUCTURE
     1 SER1        1 GROUP   
     2 ALA2       20 GROUP   
     3 ASP3       47 GROUP   
     4 LYS4       57 GROUP   
     5 PHE5       62 GROUP   
     6 GLY6       66 GROUP   
     7 CUB7       82 GROUP   
@<TRIPOS>SET

