#    Name: 6mze_9_GTP_CAVITY_N1_12
#    Modification time : Fri May 22 19:35:03 2020

@<TRIPOS>MOLECULE
6mze_9_GTP_CAVITY_N1_12
   83     0     6     0     0
SMALL
NO_CHARGES


@<TRIPOS>ATOM
      1 OG         43.1300  -24.1700  128.0600 O.3       1 SER1        0.0000 
      2 N          40.6000  -18.3300  127.9900 N.am      2 ALA2        0.0000 
      3 N          40.7000  -19.8200  127.9500 N.am      2 ALA2        0.0000 
      4 N          41.7700  -18.2200  127.0600 N.am      2 ALA2        0.0000 
      5 N          44.5300  -23.9800  125.0200 N.am      2 ALA2        0.0000 
      6 O          37.0700  -21.7300  132.8100 O.2       2 ALA2        0.0000 
      7 O          38.1300  -20.1200  131.9200 O.2       2 ALA2        0.0000 
      8 O          38.2400  -21.6200  131.8800 O.2       2 ALA2        0.0000 
      9 N          38.4500  -24.6100  131.8000 N.am      2 ALA2        0.0000 
     10 O          39.3000  -20.0100  130.9900 O.2       2 ALA2        0.0000 
     11 N          40.4700  -19.9000  130.0600 N.am      2 ALA2        0.0000 
     12 N          41.6400  -19.7900  129.1200 N.am      2 ALA2        0.0000 
     13 N          42.8100  -19.6800  128.1900 N.am      2 ALA2        0.0000 
     14 O          37.9000  -20.2000  134.0300 O.2       2 ALA2        0.0000 
     15 N          38.9600  -18.5900  133.1400 N.am      2 ALA2        0.0000 
     16 N          40.1300  -18.4800  132.2000 N.am      2 ALA2        0.0000 
     17 N          40.2300  -19.9800  132.1600 N.am      2 ALA2        0.0000 
     18 N          41.2900  -18.3700  131.2700 N.am      2 ALA2        0.0000 
     19 N          41.4000  -19.8700  131.2300 N.am      2 ALA2        0.0000 
     20 N          42.6800  -21.2500  130.2500 N.am      2 ALA2        0.0000 
     21 N          43.8500  -21.1400  129.3200 N.am      2 ALA2        0.0000 
     22 N          41.0600  -18.4500  133.3800 N.am      2 ALA2        0.0000 
     23 O          42.2300  -18.3400  132.4400 O.2       2 ALA2        0.0000 
     24 O          42.4400  -21.3300  132.3600 O.2       2 ALA2        0.0000 
     25 O          43.6100  -21.2200  131.4300 O.2       2 ALA2        0.0000 
     26 OD1        40.9400  -19.7500  125.8400 O.co2     3 ASP3        0.0000 
     27 OD1        42.1100  -19.6400  124.9100 O.co2     3 ASP3        0.0000 
     28 OD1        44.4300  -22.4900  125.0600 O.co2     3 ASP3        0.0000 
     29 OD1        44.1900  -22.5600  127.1700 O.co2     3 ASP3        0.0000 
     30 OD1        44.3000  -24.0600  127.1300 O.co2     3 ASP3        0.0000 
     31 OD1        43.9500  -22.6400  129.2800 O.co2     3 ASP3        0.0000 
     32 OD1        44.0600  -24.1300  129.2400 O.co2     3 ASP3        0.0000 
     33 OD1        45.0200  -21.0300  128.3900 O.co2     3 ASP3        0.0000 
     34 OD1        44.8900  -22.6000  130.4500 O.co2     3 ASP3        0.0000 
     35 NZ         42.2100  -21.1300  124.8700 N.4       4 LYS4        0.0000 
     36 NZ         43.3800  -21.0200  123.9300 N.4       4 LYS4        0.0000 
     37 NZ         43.4900  -22.5200  123.8900 N.4       4 LYS4        0.0000 
     38 NZ         40.8100  -21.3200  127.9100 N.4       4 LYS4        0.0000 
     39 NZ         41.9800  -21.2100  126.9700 N.4       4 LYS4        0.0000 
     40 NZ         43.2600  -22.6000  126.0000 N.4       4 LYS4        0.0000 
     41 NZ         43.3600  -24.0900  125.9600 N.4       4 LYS4        0.0000 
     42 NZ         38.3500  -23.1100  131.8400 N.4       4 LYS4        0.0000 
     43 NZ         43.0200  -22.6700  128.1000 N.4       4 LYS4        0.0000 
     44 NZ         36.8300  -21.8000  134.9200 N.4       4 LYS4        0.0000 
     45 NZ         38.0000  -21.6900  133.9900 N.4       4 LYS4        0.0000 
     46 NZ         39.2800  -23.0800  133.0100 N.4       4 LYS4        0.0000 
     47 CA         37.3000  -21.6500  130.7100 C.3       5 GLY6        0.0000 
     48 CA         37.4100  -23.1500  130.6600 C.3       5 GLY6        0.0000 
     49 CA         38.4700  -21.5400  129.7700 C.3       5 GLY6        0.0000 
     50 CA         38.5800  -23.0400  129.7300 C.3       5 GLY6        0.0000 
     51 CA         39.6400  -21.4300  128.8400 C.3       5 GLY6        0.0000 
     52 CA         39.7500  -22.9300  128.8000 C.3       5 GLY6        0.0000 
     53 CA         41.8700  -19.7100  127.0200 C.3       5 GLY6        0.0000 
     54 CA         43.0400  -19.6000  126.0800 C.3       5 GLY6        0.0000 
     55 CA         43.1500  -21.1000  126.0400 C.3       5 GLY6        0.0000 
     56 CA         44.3200  -20.9900  125.1100 C.3       5 GLY6        0.0000 
     57 CA         39.5100  -23.0000  130.9000 C.3       5 GLY6        0.0000 
     58 CA         40.6800  -22.8900  129.9700 C.3       5 GLY6        0.0000 
     59 CA         41.5300  -18.3000  129.1600 C.3       5 GLY6        0.0000 
     60 CA         41.8500  -22.7800  129.0400 C.3       5 GLY6        0.0000 
     61 CA         42.9100  -21.1800  128.1500 C.3       5 GLY6        0.0000 
     62 CA         44.0800  -21.0700  127.2100 C.3       5 GLY6        0.0000 
     63 CA         40.4500  -22.9700  132.0800 C.3       5 GLY6        0.0000 
     64 CA         41.6200  -22.8600  131.1400 C.3       5 GLY6        0.0000 
     65 CA         42.7900  -22.7500  130.2100 C.3       5 GLY6        0.0000 
     66 CA         42.8900  -24.2400  130.1700 C.3       5 GLY6        0.0000 
     67 CA         40.9500  -16.9500  133.4200 C.3       5 GLY6        0.0000 
     68 CA         42.3400  -19.8300  132.4000 C.3       5 GLY6        0.0000 
     69 CA         42.5500  -22.8200  132.3200 C.3       5 GLY6        0.0000 
     70 CA         43.7200  -22.7100  131.3800 C.3       5 GLY6        0.0000 
     71 DU         39.4100  -21.5100  130.9500 H         6 CUB7        0.0000 
     72 DU         40.5800  -21.4000  130.0100 H         6 CUB7        0.0000 
     73 DU         41.7400  -21.2900  129.0800 H         6 CUB7        0.0000 
     74 DU         39.0600  -20.0900  133.1000 H         6 CUB7        0.0000 
     75 DU         39.1700  -21.5800  133.0500 H         6 CUB7        0.0000 
     76 DU         40.3400  -21.4700  132.1200 H         6 CUB7        0.0000 
     77 DU         41.5100  -21.3600  131.1900 H         6 CUB7        0.0000 
     78 DU         38.8300  -20.1600  135.2000 H         6 CUB7        0.0000 
     79 DU         39.8900  -18.5600  134.3100 H         6 CUB7        0.0000 
     80 DU         40.1100  -21.5500  134.2300 H         6 CUB7        0.0000 
     81 DU         41.1700  -19.9400  133.3400 H         6 CUB7        0.0000 
     82 DU         41.2700  -21.4400  133.2900 H         6 CUB7        0.0000 
     83 DU         41.3800  -22.9300  133.2500 H         6 CUB7        0.0000 
@<TRIPOS>BOND
@<TRIPOS>SUBSTRUCTURE
     1 SER1        1 GROUP   
     2 ALA2        2 GROUP   
     3 ASP3       26 GROUP   
     4 LYS4       35 GROUP   
     5 GLY6       47 GROUP   
     6 CUB7       71 GROUP   
@<TRIPOS>SET

