#    Name: 6mze_5_GTP
#    Modification time : Fri May 22 19:34:16 2020

@<TRIPOS>MOLECULE
6mze_5_GTP
   32    34     1     0     1
SMALL
NO_CHARGES


@<TRIPOS>ATOM
      1 PG        147.5440  -11.0030  129.5060 P.3       1 GTP600      0.0000 
      2 O1G       148.0800  -10.5970  128.1540 O.co2     1 GTP600      0.0000 
      3 O2G       148.4370  -12.0590  130.1130 O.co2     1 GTP600      0.0000 
      4 O3G       147.5020   -9.7960  130.4140 O.co2     1 GTP600      0.0000 
      5 O3B       146.0650  -11.6220  129.3460 O.3       1 GTP600      0.0000 
      6 PB        145.2920  -11.5890  127.9330 P.3       1 GTP600      0.0000 
      7 O1B       145.4740  -10.2700  127.2160 O.co2     1 GTP600      0.0000 
      8 O2B       143.8310  -11.8740  128.1910 O.co2     1 GTP600      0.0000 
      9 O3A       145.9050  -12.8240  127.0950 O.3       1 GTP600      0.0000 
     10 PA        145.3220  -13.1210  125.6240 P.3       1 GTP600      0.0000 
     11 O1A       145.7870  -12.0470  124.6770 O.co2     1 GTP600      0.0000 
     12 O2A       143.8160  -13.1880  125.6740 O.co2     1 GTP600      0.0000 
     13 O5'       145.9390  -14.5200  125.1210 O.3       1 GTP600      0.0000 
     14 C5'       145.5090  -15.7450  125.6690 C.3       1 GTP600      0.0000 
     15 C4'       144.9610  -16.6610  124.5770 C.3       1 GTP600      0.0000 
     16 O4'       143.9560  -16.0270  123.7970 O.3       1 GTP600      0.0000 
     17 C3'       146.0540  -17.0880  123.6150 C.3       1 GTP600      0.0000 
     18 O3'       146.1720  -18.4910  123.6790 O.3       1 GTP600      0.0000 
     19 C2'       145.5730  -16.6480  122.2420 C.3       1 GTP600      0.0000 
     20 O2'       145.7380  -17.7220  121.3470 O.3       1 GTP600      0.0000 
     21 C1'       144.1000  -16.2930  122.4090 C.3       1 GTP600      0.0000 
     22 N9        143.6750  -15.0940  121.6390 N.pl3     1 GTP600      0.0000 
     23 C8        144.1490  -13.8290  121.8550 C.2       1 GTP600      0.0000 
     24 N7        143.5690  -12.9570  120.9990 N.2       1 GTP600      0.0000 
     25 C5        142.7050  -13.6480  120.2200 C.2       1 GTP600      0.0000 
     26 C6        141.8710  -13.2280  119.1840 C.2       1 GTP600      0.0000 
     27 O6        141.8940  -12.0280  118.9130 O.2       1 GTP600      0.0000 
     28 N1        141.0490  -14.1160  118.4760 N.am      1 GTP600      0.0000 
     29 C2        141.1320  -15.4490  118.9010 C.2       1 GTP600      0.0000 
     30 N2        140.4020  -16.3870  118.3140 N.pl3     1 GTP600      0.0000 
     31 N3        141.9680  -15.8640  119.9330 N.2       1 GTP600      0.0000 
     32 C4        142.7590  -14.9860  120.6000 C.2       1 GTP600      0.0000 
@<TRIPOS>BOND
     1    1    2 ar   
     2    1    3 ar   
     3    1    4 ar   
     4    1    5 1    
     5    5    6 1    
     6    6    7 ar   
     7    6    8 ar   
     8    6    9 1    
     9    9   10 1    
    10   10   11 ar   
    11   10   12 ar   
    12   10   13 1    
    13   13   14 1    
    14   14   15 1    
    15   15   16 1    
    16   15   17 1    
    17   16   21 1    
    18   17   18 1    
    19   17   19 1    
    20   19   20 1    
    21   19   21 1    
    22   21   22 1    
    23   22   23 1    
    24   22   32 1    
    25   23   24 2    
    26   24   25 1    
    27   25   26 1    
    28   25   32 2    
    29   26   27 2    
    30   26   28 am   
    31   28   29 1    
    32   29   30 1    
    33   29   31 2    
    34   31   32 1    
@<TRIPOS>SUBSTRUCTURE
     1 GTP600      1 GROUP   
@<TRIPOS>SET
ATOM$ORANGE STATIC     ATOMS   COLORGROUP SYSTEM 
20 14 14 15 15 17 17 19 19 21 21 23 23 25 25 26 26 29 \
29 32 32 

