#    Name: 6mze_11_GTP_CAVITY_N1_6
#    Modification time : Fri May 22 19:35:24 2020

@<TRIPOS>MOLECULE
6mze_11_GTP_CAVITY_N1_6
    9     0     4     0     0
SMALL
NO_CHARGES


@<TRIPOS>ATOM
      1 N         119.6200  -30.0700   52.0100 N.am      1 ALA2        0.0000 
      2 N         120.6800  -28.4700   51.1200 N.am      1 ALA2        0.0000 
      3 N         121.7200  -29.9300   52.2500 N.am      1 ALA2        0.0000 
      4 OD1       117.7500  -30.1400   49.6700 O.co2     2 ASP3        0.0000 
      5 OD1       118.6800  -30.1100   50.8400 O.co2     2 ASP3        0.0000 
      6 OD1       119.7400  -28.5000   49.9500 O.co2     2 ASP3        0.0000 
      7 OD1       119.8500  -30.0000   49.9100 O.co2     2 ASP3        0.0000 
      8 NZ        117.8600  -31.6400   49.6300 N.4       3 LYS4        0.0000 
      9 CA        120.6600  -31.5400   53.1500 C.3       4 GLY6        0.0000 
@<TRIPOS>BOND
@<TRIPOS>SUBSTRUCTURE
     1 ALA2        1 GROUP   
     2 ASP3        4 GROUP   
     3 LYS4        8 GROUP   
     4 GLY6        9 GROUP   
@<TRIPOS>SET

