#    Name: 6mze_2_GDP
#    Modification time : Fri May 22 19:33:36 2020

@<TRIPOS>MOLECULE
6mze_2_GDP
   28    30     1     0     1
SMALL
NO_CHARGES


@<TRIPOS>ATOM
      1 PB        110.8680  -16.3470  256.9760 P.3       1 GDP600      0.0000 
      2 O1B       110.4920  -15.9250  255.5760 O.co2     1 GDP600      0.0000 
      3 O2B       110.5810  -15.2040  257.9190 O.co2     1 GDP600      0.0000 
      4 O3B       112.3350  -16.7090  257.0230 O.co2     1 GDP600      0.0000 
      5 O3A       109.9780  -17.6300  257.3630 O.3       1 GDP600      0.0000 
      6 PA        110.2120  -18.4970  258.6990 P.3       1 GDP600      0.0000 
      7 O1A       111.5830  -18.2390  259.2860 O.co2     1 GDP600      0.0000 
      8 O2A       109.1100  -18.2570  259.7090 O.co2     1 GDP600      0.0000 
      9 O5'       110.1180  -19.9850  258.0910 O.3       1 GDP600      0.0000 
     10 C5'       109.1930  -20.9520  258.5800 C.3       1 GDP600      0.0000 
     11 C4'       109.9500  -22.2110  258.9750 C.3       1 GDP600      0.0000 
     12 O4'       110.7950  -21.8850  260.0750 O.3       1 GDP600      0.0000 
     13 C3'       109.0250  -23.3110  259.4610 C.3       1 GDP600      0.0000 
     14 O3'       109.6650  -24.5650  259.2190 O.3       1 GDP600      0.0000 
     15 C2'       108.9440  -23.0590  260.9480 C.3       1 GDP600      0.0000 
     16 O2'       108.7110  -24.2910  261.6360 O.3       1 GDP600      0.0000 
     17 C1'       110.3280  -22.5160  261.2670 C.3       1 GDP600      0.0000 
     18 N9        110.3190  -21.5170  262.3650 N.pl3     1 GDP600      0.0000 
     19 C8        109.7240  -20.3080  262.3450 C.2       1 GDP600      0.0000 
     20 N7        109.9230  -19.6440  263.5140 N.2       1 GDP600      0.0000 
     21 C5        110.6760  -20.4370  264.3010 C.2       1 GDP600      0.0000 
     22 C6        111.2600  -20.3620  265.6610 C.2       1 GDP600      0.0000 
     23 O6        111.0860  -19.3530  266.3790 O.2       1 GDP600      0.0000 
     24 N1        111.9790  -21.4050  266.1000 N.am      1 GDP600      0.0000 
     25 C2        112.1850  -22.5070  265.3520 C.2       1 GDP600      0.0000 
     26 N2        112.9240  -23.5210  265.8660 N.pl3     1 GDP600      0.0000 
     27 N3        111.6810  -22.6430  264.1000 N.2       1 GDP600      0.0000 
     28 C4        110.9370  -21.6630  263.5350 C.2       1 GDP600      0.0000 
@<TRIPOS>BOND
     1    1    2 ar   
     2    1    3 ar   
     3    1    4 ar   
     4    1    5 1    
     5    5    6 1    
     6    6    7 ar   
     7    6    8 ar   
     8    6    9 1    
     9    9   10 1    
    10   10   11 1    
    11   11   12 1    
    12   11   13 1    
    13   12   17 1    
    14   13   14 1    
    15   13   15 1    
    16   15   16 1    
    17   15   17 1    
    18   17   18 1    
    19   18   19 1    
    20   18   28 1    
    21   19   20 2    
    22   20   21 1    
    23   21   22 1    
    24   21   28 2    
    25   22   23 2    
    26   22   24 am   
    27   24   25 1    
    28   25   26 1    
    29   25   27 2    
    30   27   28 1    
@<TRIPOS>SUBSTRUCTURE
     1 GDP600      1 GROUP   
@<TRIPOS>SET
ATOM$ORANGE STATIC     ATOMS   COLORGROUP SYSTEM 
20 10 10 11 11 13 13 15 15 17 17 19 19 21 21 22 22 25 \
25 28 28 

