#    Name: 6mze_11_GTP_CAVITY_N1_8
#    Modification time : Fri May 22 19:35:24 2020

@<TRIPOS>MOLECULE
6mze_11_GTP_CAVITY_N1_8
   32     0     5     0     0
SMALL
NO_CHARGES


@<TRIPOS>ATOM
      1 N         121.1300  -31.3800   48.9300 N.am      1 ALA2        0.0000 
      2 N         119.6200  -30.0700   52.0100 N.am      1 ALA2        0.0000 
      3 N         120.6800  -28.4700   51.1200 N.am      1 ALA2        0.0000 
      4 N         120.7900  -29.9600   51.0800 N.am      1 ALA2        0.0000 
      5 N         121.9500  -29.8500   50.1500 N.am      1 ALA2        0.0000 
      6 N         121.7200  -29.9300   52.2500 N.am      1 ALA2        0.0000 
      7 N         121.8300  -31.4300   52.2100 N.am      1 ALA2        0.0000 
      8 N         122.8900  -29.8200   51.3200 N.am      1 ALA2        0.0000 
      9 N         123.8200  -29.7900   52.4900 N.am      1 ALA2        0.0000 
     10 O         124.8600  -31.2500   53.6300 O.2       1 ALA2        0.0000 
     11 N         125.9200  -29.6400   52.7300 N.am      1 ALA2        0.0000 
     12 OD1       117.7500  -30.1400   49.6700 O.co2     2 ASP3        0.0000 
     13 OD1       118.6800  -30.1100   50.8400 O.co2     2 ASP3        0.0000 
     14 OD1       119.7400  -28.5000   49.9500 O.co2     2 ASP3        0.0000 
     15 OD1       119.8500  -30.0000   49.9100 O.co2     2 ASP3        0.0000 
     16 NZ        116.9200  -31.6700   48.4500 N.4       3 LYS4        0.0000 
     17 NZ        117.0300  -33.1700   48.4100 N.4       3 LYS4        0.0000 
     18 NZ        117.8600  -31.6400   49.6300 N.4       3 LYS4        0.0000 
     19 NZ        119.0300  -31.5300   48.6900 N.4       3 LYS4        0.0000 
     20 NZ        119.1300  -33.0200   48.6500 N.4       3 LYS4        0.0000 
     21 NZ        119.9600  -31.4900   49.8700 N.4       3 LYS4        0.0000 
     22 NZ        120.8900  -31.4600   51.0400 N.4       3 LYS4        0.0000 
     23 CA        118.0900  -31.5600   47.5200 C.3       4 GLY6        0.0000 
     24 CA        118.9200  -30.0300   48.7300 C.3       4 GLY6        0.0000 
     25 CA        121.0200  -29.8900   48.9700 C.3       4 GLY6        0.0000 
     26 CA        120.6600  -31.5400   53.1500 C.3       4 GLY6        0.0000 
     27 CA        121.9300  -32.9200   52.1700 C.3       4 GLY6        0.0000 
     28 CA        122.7600  -31.3900   53.3900 C.3       4 GLY6        0.0000 
     29 CA        122.8700  -32.8900   53.3400 C.3       4 GLY6        0.0000 
     30 CA        123.6900  -31.3600   54.5600 C.3       4 GLY6        0.0000 
     31 DU        123.0000  -31.3200   51.2800 H         5 CUB7        0.0000 
     32 DU        123.9300  -31.2800   52.4500 H         5 CUB7        0.0000 
@<TRIPOS>BOND
@<TRIPOS>SUBSTRUCTURE
     1 ALA2        1 GROUP   
     2 ASP3       12 GROUP   
     3 LYS4       16 GROUP   
     4 GLY6       23 GROUP   
     5 CUB7       31 GROUP   
@<TRIPOS>SET

