#    Name: 6mze_14_GDP_CAVITY_N1_8
#    Modification time : Fri May 22 19:35:49 2020

@<TRIPOS>MOLECULE
6mze_14_GDP_CAVITY_N1_8
  111     0     7     0     0
SMALL
NO_CHARGES


@<TRIPOS>ATOM
      1 OG         -1.4700  -32.4900  -10.7000 O.3       1 SER1        0.0000 
      2 OG         -1.3600  -33.9900  -10.7500 O.3       1 SER1        0.0000 
      3 OG         -0.4100  -30.8800  -11.6000 O.3       1 SER1        0.0000 
      4 OG         -0.3000  -32.3800  -11.6400 O.3       1 SER1        0.0000 
      5 OG         -0.1900  -33.8700  -11.6800 O.3       1 SER1        0.0000 
      6 OG          0.8700  -32.2700  -12.5700 O.3       1 SER1        0.0000 
      7 OG          0.9800  -33.7600  -12.6100 O.3       1 SER1        0.0000 
      8 OG          1.5700  -32.3100   -9.2900 O.3       1 SER1        0.0000 
      9 OG          1.6800  -33.8100   -9.3300 O.3       1 SER1        0.0000 
     10 OG          2.7400  -32.2000  -10.2300 O.3       1 SER1        0.0000 
     11 OG          2.8500  -33.7000  -10.2700 O.3       1 SER1        0.0000 
     12 OG          2.5000  -32.2800   -8.1200 O.3       1 SER1        0.0000 
     13 OG          2.6100  -33.7700   -8.1600 O.3       1 SER1        0.0000 
     14 OG          2.7200  -35.2700   -8.2000 O.3       1 SER1        0.0000 
     15 OG          3.5700  -30.6700   -9.0100 O.3       1 SER1        0.0000 
     16 OG          3.8900  -35.1600   -9.1400 O.3       1 SER1        0.0000 
     17 OG          3.6500  -35.2300   -7.0300 O.3       1 SER1        0.0000 
     18 O           3.0700  -36.4200  -19.9500 O.2       2 ALA2        0.0000 
     19 O           2.8300  -36.4900  -17.8500 O.2       2 ALA2        0.0000 
     20 N           3.4400  -31.9700  -16.5500 N.am      2 ALA2        0.0000 
     21 N           3.5500  -33.4700  -16.5900 N.am      2 ALA2        0.0000 
     22 O           3.6600  -34.9600  -16.6300 O.2       2 ALA2        0.0000 
     23 N          -1.2500  -35.4800  -10.7900 N.am      2 ALA2        0.0000 
     24 O          -0.0800  -35.3700  -11.7200 O.2       2 ALA2        0.0000 
     25 O           1.9300  -30.6600  -13.4600 O.2       2 ALA2        0.0000 
     26 O           2.2500  -35.1500  -13.5900 O.2       2 ALA2        0.0000 
     27 O           3.2100  -32.0500  -14.4400 O.2       2 ALA2        0.0000 
     28 N           4.3800  -31.9400  -15.3700 N.am      2 ALA2        0.0000 
     29 N           4.4900  -33.4300  -15.4100 N.am      2 ALA2        0.0000 
     30 N           5.4400  -30.3300  -16.2600 N.am      2 ALA2        0.0000 
     31 N           5.5500  -31.8300  -16.3100 N.am      2 ALA2        0.0000 
     32 O          -2.8700  -32.6800   -7.6600 O.2       2 ALA2        0.0000 
     33 N          -1.7000  -32.5700   -8.6000 N.am      2 ALA2        0.0000 
     34 N          -1.4900  -35.5600   -8.6800 N.am      2 ALA2        0.0000 
     35 N          -1.3800  -37.0500   -8.7200 N.am      2 ALA2        0.0000 
     36 N          -0.3200  -35.4500   -9.6200 N.am      2 ALA2        0.0000 
     37 N           0.8500  -35.3400  -10.5500 N.am      2 ALA2        0.0000 
     38 O           1.5900  -29.2400  -11.3100 O.2       2 ALA2        0.0000 
     39 O           1.7000  -30.7400  -11.3600 O.2       2 ALA2        0.0000 
     40 O           2.0200  -35.2300  -11.4800 O.2       2 ALA2        0.0000 
     41 O           2.8700  -30.6300  -12.2900 O.2       2 ALA2        0.0000 
     42 N           4.1400  -32.0100  -13.2700 N.am      2 ALA2        0.0000 
     43 N           5.3100  -31.9000  -14.2000 N.am      2 ALA2        0.0000 
     44 N          -1.7200  -35.6300   -6.5800 N.am      2 ALA2        0.0000 
     45 N          -0.7700  -32.5300   -7.4200 N.am      2 ALA2        0.0000 
     46 N          -0.6600  -34.0300   -7.4700 N.am      2 ALA2        0.0000 
     47 N          -0.5500  -35.5200   -7.5100 N.am      2 ALA2        0.0000 
     48 N          -0.4500  -37.0200   -7.5500 N.am      2 ALA2        0.0000 
     49 N           0.4000  -32.4200   -8.3600 N.am      2 ALA2        0.0000 
     50 N           0.6200  -35.4100   -8.4400 N.am      2 ALA2        0.0000 
     51 O           2.9500  -35.1900  -10.3100 O.2       2 ALA2        0.0000 
     52 O           3.6900  -29.1000  -11.0700 O.2       2 ALA2        0.0000 
     53 O          -1.7400  -38.7000   -4.5500 O.2       2 ALA2        0.0000 
     54 N          -0.7900  -35.6000   -5.4000 N.am      2 ALA2        0.0000 
     55 N           0.3800  -35.4900   -6.3400 N.am      2 ALA2        0.0000 
     56 O           2.4000  -30.7800   -8.0800 O.2       2 ALA2        0.0000 
     57 O           2.8300  -36.7600   -8.2400 O.2       2 ALA2        0.0000 
     58 O           3.4600  -29.1800   -8.9700 O.2       2 ALA2        0.0000 
     59 O           0.1500  -35.5700   -4.2300 O.2       2 ALA2        0.0000 
     60 O           0.2500  -37.0600   -4.2700 O.2       2 ALA2        0.0000 
     61 O           1.3100  -35.4500   -5.1600 O.2       2 ALA2        0.0000 
     62 OD1        -1.5100  -38.6200   -6.6600 O.co2     3 ASP3        0.0000 
     63 OD1        -0.6800  -37.0900   -5.4400 O.co2     3 ASP3        0.0000 
     64 OD1        -0.5700  -38.5900   -5.4900 O.co2     3 ASP3        0.0000 
     65 OD1         0.4900  -36.9800   -6.3800 O.co2     3 ASP3        0.0000 
     66 OD1         1.6600  -36.8700   -7.3100 O.co2     3 ASP3        0.0000 
     67 OD1         0.3600  -38.5600   -4.3100 O.co2     3 ASP3        0.0000 
     68 OD1         1.4200  -36.9500   -5.2000 O.co2     3 ASP3        0.0000 
     69 OD1         2.5900  -36.8400   -6.1400 O.co2     3 ASP3        0.0000 
     70 NZ         -0.6400  -30.9600   -9.4900 N.4       4 LYS4        0.0000 
     71 NZ          0.4200  -29.3500  -10.3800 N.4       4 LYS4        0.0000 
     72 NZ          0.5300  -30.8500  -10.4200 N.4       4 LYS4        0.0000 
     73 NZ          0.2900  -30.9300   -8.3200 N.4       4 LYS4        0.0000 
     74 NZ          1.3600  -29.3200   -9.2100 N.4       4 LYS4        0.0000 
     75 NZ          1.4600  -30.8200   -9.2500 N.4       4 LYS4        0.0000 
     76 CZ          2.2800  -32.0800  -15.6100 C.ar      5 PHE5        0.0000 
     77 CZ          2.3800  -33.5800  -15.6500 C.ar      5 PHE5        0.0000 
     78 CZ          2.4900  -35.0700  -15.7000 C.ar      5 PHE5        0.0000 
     79 CZ          2.0400  -32.1600  -13.5100 C.ar      5 PHE5        0.0000 
     80 CZ          2.1500  -33.6500  -13.5500 C.ar      5 PHE5        0.0000 
     81 CA         -1.5700  -30.9900  -10.6600 C.3       6 GLY6        0.0000 
     82 CA         -0.5100  -29.3900  -11.5500 C.3       6 GLY6        0.0000 
     83 CA          0.6600  -29.2800  -12.4900 C.3       6 GLY6        0.0000 
     84 CA          3.3200  -33.5400  -14.4800 C.3       6 GLY6        0.0000 
     85 CA          3.4200  -35.0400  -14.5200 C.3       6 GLY6        0.0000 
     86 CA          1.9100  -33.7300  -11.4400 C.3       6 GLY6        0.0000 
     87 CA          2.9700  -32.1300  -12.3300 C.3       6 GLY6        0.0000 
     88 CA          3.0800  -33.6200  -12.3700 C.3       6 GLY6        0.0000 
     89 CA          3.1900  -35.1200  -12.4200 C.3       6 GLY6        0.0000 
     90 CA          0.7200  -36.9100   -8.4800 C.3       6 GLY6        0.0000 
     91 CA          0.8300  -38.4000   -8.5300 C.3       6 GLY6        0.0000 
     92 CA          1.7800  -35.3000   -9.3800 C.3       6 GLY6        0.0000 
     93 CA          2.5200  -29.2100  -10.1400 C.3       6 GLY6        0.0000 
     94 CA          2.6300  -30.7100  -10.1800 C.3       6 GLY6        0.0000 
     95 CA          3.8000  -30.6000  -11.1200 C.3       6 GLY6        0.0000 
     96 CA          3.9100  -32.0900  -11.1600 C.3       6 GLY6        0.0000 
     97 CA         -1.8500  -37.2000   -4.5100 C.3       6 GLY6        0.0000 
     98 CA          1.2300  -30.8900   -7.1400 C.3       6 GLY6        0.0000 
     99 CA          1.3300  -32.3900   -7.1800 C.3       6 GLY6        0.0000 
    100 CA          1.4400  -33.8800   -7.2300 C.3       6 GLY6        0.0000 
    101 CA          1.5500  -35.3800   -7.2700 C.3       6 GLY6        0.0000 
    102 CA          2.2900  -29.2900   -8.0300 C.3       6 GLY6        0.0000 
    103 CA          2.4800  -35.3400   -6.1000 C.3       6 GLY6        0.0000 
    104 DU         -1.5900  -34.0600   -8.6400 H         7 CUB7        0.0000 
    105 DU         -0.5300  -32.4600   -9.5300 H         7 CUB7        0.0000 
    106 DU         -0.4300  -33.9500   -9.5700 H         7 CUB7        0.0000 
    107 DU          0.6400  -32.3500  -10.4700 H         7 CUB7        0.0000 
    108 DU          0.7400  -33.8400  -10.5100 H         7 CUB7        0.0000 
    109 DU          1.8100  -32.2400  -11.4000 H         7 CUB7        0.0000 
    110 DU         -1.6100  -37.1300   -6.6200 H         7 CUB7        0.0000 
    111 DU          0.5100  -33.9200   -8.4000 H         7 CUB7        0.0000 
@<TRIPOS>BOND
@<TRIPOS>SUBSTRUCTURE
     1 SER1        1 GROUP   
     2 ALA2       18 GROUP   
     3 ASP3       62 GROUP   
     4 LYS4       70 GROUP   
     5 PHE5       76 GROUP   
     6 GLY6       81 GROUP   
     7 CUB7      104 GROUP   
@<TRIPOS>SET

