#    Name: 6mze_10_GDP
#    Modification time : Fri May 22 19:35:08 2020

@<TRIPOS>MOLECULE
6mze_10_GDP
   28    30     1     0     1
SMALL
NO_CHARGES


@<TRIPOS>ATOM
      1 PB         76.4810  -21.9720  115.3610 P.3       1 GDP600      0.0000 
      2 O1B        76.9050  -22.2890  113.9470 O.co2     1 GDP600      0.0000 
      3 O2B        76.8140  -23.1520  116.2410 O.co2     1 GDP600      0.0000 
      4 O3B        74.9940  -21.7010  115.4050 O.co2     1 GDP600      0.0000 
      5 O3A        77.2920  -20.6680  115.8400 O.3       1 GDP600      0.0000 
      6 PA         76.9860  -19.8960  117.2200 P.3       1 GDP600      0.0000 
      7 O1A        75.6230  -20.2650  117.7630 O.co2     1 GDP600      0.0000 
      8 O2A        78.0830  -20.1250  118.2370 O.co2     1 GDP600      0.0000 
      9 O5'        77.0070  -18.3730  116.6950 O.3       1 GDP600      0.0000 
     10 C5'        77.8670  -17.3840  117.2550 C.3       1 GDP600      0.0000 
     11 C4'        77.0260  -16.1970  117.6990 C.3       1 GDP600      0.0000 
     12 O4'        76.1830  -16.6370  118.7610 O.3       1 GDP600      0.0000 
     13 C3'        77.8720  -15.0700  118.2620 C.3       1 GDP600      0.0000 
     14 O3'        77.1610  -13.8440  118.0770 O.3       1 GDP600      0.0000 
     15 C2'        77.9420  -15.4030  119.7340 C.3       1 GDP600      0.0000 
     16 O2'        78.0850  -14.2030  120.4960 O.3       1 GDP600      0.0000 
     17 C1'        76.5890  -16.0460  119.9940 C.3       1 GDP600      0.0000 
     18 N9         76.6380  -17.1050  121.0320 N.pl3     1 GDP600      0.0000 
     19 C8         77.3070  -18.2710  120.9530 C.2       1 GDP600      0.0000 
     20 N7         77.1250  -19.0150  122.0760 N.2       1 GDP600      0.0000 
     21 C5         76.3090  -18.3180  122.8930 C.2       1 GDP600      0.0000 
     22 C6         75.7000  -18.5040  124.2350 C.2       1 GDP600      0.0000 
     23 O6         75.9170  -19.5380  124.9020 O.2       1 GDP600      0.0000 
     24 N1         74.9100  -17.5320  124.7160 N.am      1 GDP600      0.0000 
     25 C2         74.6520  -16.4020  124.0290 C.2       1 GDP600      0.0000 
     26 N2         73.8430  -15.4640  124.5810 N.pl3     1 GDP600      0.0000 
     27 N3         75.1740  -16.1670  122.7990 N.2       1 GDP600      0.0000 
     28 C4         75.9890  -17.0650  122.1940 C.2       1 GDP600      0.0000 
@<TRIPOS>BOND
     1    1    2 ar   
     2    1    3 ar   
     3    1    4 ar   
     4    1    5 1    
     5    5    6 1    
     6    6    7 ar   
     7    6    8 ar   
     8    6    9 1    
     9    9   10 1    
    10   10   11 1    
    11   11   12 1    
    12   11   13 1    
    13   12   17 1    
    14   13   14 1    
    15   13   15 1    
    16   15   16 1    
    17   15   17 1    
    18   17   18 1    
    19   18   19 1    
    20   18   28 1    
    21   19   20 2    
    22   20   21 1    
    23   21   22 1    
    24   21   28 2    
    25   22   23 2    
    26   22   24 am   
    27   24   25 1    
    28   25   26 1    
    29   25   27 2    
    30   27   28 1    
@<TRIPOS>SUBSTRUCTURE
     1 GDP600      1 GROUP   
@<TRIPOS>SET
ATOM$ORANGE STATIC     ATOMS   COLORGROUP SYSTEM 
20 10 10 11 11 13 13 15 15 17 17 19 19 21 21 22 22 25 \
25 28 28 

