#    Name: 6mze_3_GTP_CAVITY_N1_4
#    Modification time : Fri May 22 19:33:53 2020

@<TRIPOS>MOLECULE
6mze_3_GTP_CAVITY_N1_4
   76     0     7     0     0
SMALL
NO_CHARGES


@<TRIPOS>ATOM
      1 OG         65.9100  -16.9200  196.0100 O.3       1 SER1        0.0000 
      2 OG         69.3100  -15.1000  193.2500 O.3       1 SER1        0.0000 
      3 OG         66.9500  -18.3800  197.1400 O.3       1 SER1        0.0000 
      4 OG         69.1800  -16.6700  195.3200 O.3       1 SER1        0.0000 
      5 OG         69.2900  -18.1600  195.2700 O.3       1 SER1        0.0000 
      6 OG         70.3500  -16.5600  194.3800 O.3       1 SER1        0.0000 
      7 OG         70.4600  -18.0500  194.3400 O.3       1 SER1        0.0000 
      8 OG         68.8400  -15.2500  197.4600 O.3       1 SER1        0.0000 
      9 OG         68.9500  -16.7400  197.4200 O.3       1 SER1        0.0000 
     10 OG         70.0100  -15.1400  196.5300 O.3       1 SER1        0.0000 
     11 OG         70.8400  -13.6100  197.7500 O.3       1 SER1        0.0000 
     12 O          65.8100  -15.4300  196.0500 O.2       2 ALA2        0.0000 
     13 N          66.1300  -19.9100  195.9300 N.am      2 ALA2        0.0000 
     14 N          66.2400  -21.4100  195.8800 N.am      2 ALA2        0.0000 
     15 O          66.9700  -15.3200  195.1200 O.2       2 ALA2        0.0000 
     16 O          67.0800  -16.8100  195.0800 O.2       2 ALA2        0.0000 
     17 N          67.3000  -19.8000  194.9900 N.am      2 ALA2        0.0000 
     18 N          68.0400  -13.7100  194.2300 N.am      2 ALA2        0.0000 
     19 O          68.1400  -15.2100  194.1800 O.2       2 ALA2        0.0000 
     20 O          68.4700  -19.6900  194.0600 O.2       2 ALA2        0.0000 
     21 O          64.6200  -18.6000  199.0100 O.2       2 ALA2        0.0000 
     22 O          66.7400  -15.3900  197.2200 O.2       2 ALA2        0.0000 
     23 O          67.0600  -19.8800  197.1000 O.2       2 ALA2        0.0000 
     24 O          67.1700  -21.3700  197.0600 O.2       2 ALA2        0.0000 
     25 N          68.9700  -13.6800  195.4000 N.am      2 ALA2        0.0000 
     26 N          70.2500  -15.0600  194.4200 N.am      2 ALA2        0.0000 
     27 O          66.8300  -19.9500  199.2100 O.2       2 ALA2        0.0000 
     28 O          70.2300  -18.1300  196.4500 O.2       2 ALA2        0.0000 
     29 N          72.3500  -14.9200  194.6600 N.am      2 ALA2        0.0000 
     30 OD1        69.1000  -12.1000  193.3400 O.co2     3 ASP3        0.0000 
     31 OD1        69.2100  -13.6000  193.2900 O.co2     3 ASP3        0.0000 
     32 OD1        70.1400  -13.5700  194.4700 O.co2     3 ASP3        0.0000 
     33 OD1        71.3100  -13.4600  193.5300 O.co2     3 ASP3        0.0000 
     34 OD1        69.8000  -12.1500  196.6200 O.co2     3 ASP3        0.0000 
     35 OD1        69.9000  -13.6400  196.5700 O.co2     3 ASP3        0.0000 
     36 OD1        71.0700  -13.5300  195.6400 O.co2     3 ASP3        0.0000 
     37 OD1        72.2400  -13.4200  194.7100 O.co2     3 ASP3        0.0000 
     38 NZ         68.2300  -19.7700  196.1700 N.4       4 LYS4        0.0000 
     39 NZ         68.3400  -21.2600  196.1200 N.4       4 LYS4        0.0000 
     40 NZ         69.4000  -19.6600  195.2300 N.4       4 LYS4        0.0000 
     41 NZ         69.1600  -19.7300  197.3400 N.4       4 LYS4        0.0000 
     42 NZ         69.2700  -21.2300  197.3000 N.4       4 LYS4        0.0000 
     43 NZ         70.3300  -19.6200  196.4000 N.4       4 LYS4        0.0000 
     44 CZ         64.6400  -15.5400  196.9900 C.ar      5 PHE5        0.0000 
     45 CZ         63.3400  -17.2200  199.9800 C.ar      5 PHE5        0.0000 
     46 CZ         64.4000  -15.6100  199.0900 C.ar      5 PHE5        0.0000 
     47 CZ         64.5100  -17.1100  199.0500 C.ar      5 PHE5        0.0000 
     48 CZ         65.6800  -17.0000  198.1200 C.ar      5 PHE5        0.0000 
     49 CZ         65.7900  -18.4900  198.0700 C.ar      5 PHE5        0.0000 
     50 CA         67.1900  -18.3100  195.0300 C.3       6 GLY6        0.0000 
     51 CA         67.4000  -21.3000  194.9500 C.3       6 GLY6        0.0000 
     52 CA         68.2500  -16.7000  194.1400 C.3       6 GLY6        0.0000 
     53 CA         65.5700  -15.5000  198.1600 C.3       6 GLY6        0.0000 
     54 CA         67.8000  -13.7900  196.3300 C.3       6 GLY6        0.0000 
     55 CA         67.9100  -15.2800  196.2900 C.3       6 GLY6        0.0000 
     56 CA         65.4400  -17.0700  200.2200 C.3       6 GLY6        0.0000 
     57 CA         65.5500  -18.5700  200.1800 C.3       6 GLY6        0.0000 
     58 CA         66.6100  -16.9600  199.2900 C.3       6 GLY6        0.0000 
     59 CA         66.7200  -18.4600  199.2500 C.3       6 GLY6        0.0000 
     60 CA         67.6700  -15.3600  198.4000 C.3       6 GLY6        0.0000 
     61 CA         67.7800  -16.8500  198.3600 C.3       6 GLY6        0.0000 
     62 CA         67.8900  -18.3500  198.3100 C.3       6 GLY6        0.0000 
     63 CA         68.1000  -21.3400  198.2300 C.3       6 GLY6        0.0000 
     64 CA         68.7400  -13.7500  197.5100 C.3       6 GLY6        0.0000 
     65 CA         69.0600  -18.2400  197.3800 C.3       6 GLY6        0.0000 
     66 CA         70.1200  -16.6300  196.4900 C.3       6 GLY6        0.0000 
     67 CA         71.1800  -15.0300  195.6000 C.3       6 GLY6        0.0000 
     68 CA         67.6500  -18.4300  200.4200 C.3       6 GLY6        0.0000 
     69 CA         68.9300  -19.8100  199.4500 C.3       6 GLY6        0.0000 
     70 CA         70.1000  -19.7000  198.5100 C.3       6 GLY6        0.0000 
     71 CA         72.0100  -13.5000  196.8100 C.3       6 GLY6        0.0000 
     72 DU         66.8500  -16.8900  197.1800 H         7 CUB7        0.0000 
     73 DU         68.0200  -16.7800  196.2500 H         7 CUB7        0.0000 
     74 DU         68.1200  -18.2700  196.2100 H         7 CUB7        0.0000 
     75 DU         69.0800  -15.1700  195.3600 H         7 CUB7        0.0000 
     76 DU         68.0000  -19.8400  198.2700 H         7 CUB7        0.0000 
@<TRIPOS>BOND
@<TRIPOS>SUBSTRUCTURE
     1 SER1        1 GROUP   
     2 ALA2       12 GROUP   
     3 ASP3       30 GROUP   
     4 LYS4       38 GROUP   
     5 PHE5       44 GROUP   
     6 GLY6       50 GROUP   
     7 CUB7       72 GROUP   
@<TRIPOS>SET

