#    Name: 6mze_15_GTP_CAVITY_N1_6
#    Modification time : Fri May 22 19:36:01 2020

@<TRIPOS>MOLECULE
6mze_15_GTP_CAVITY_N1_6
   73     0     7     0     0
SMALL
NO_CHARGES


@<TRIPOS>ATOM
      1 OG        -44.5300  -23.8100   52.0800 O.3       1 SER1        0.0000 
      2 OG        -43.6000  -23.7700   53.2600 O.3       1 SER1        0.0000 
      3 OG        -43.4900  -25.2700   53.2200 O.3       1 SER1        0.0000 
      4 OG        -41.5000  -23.6300   53.5000 O.3       1 SER1        0.0000 
      5 OG        -40.1100  -26.5100   52.4800 O.3       1 SER1        0.0000 
      6 OG        -40.0000  -28.0100   52.4400 O.3       1 SER1        0.0000 
      7 OG        -41.6200  -25.2000   55.5600 O.3       1 SER1        0.0000 
      8 OG        -40.4500  -25.0900   54.6300 O.3       1 SER1        0.0000 
      9 O         -44.1900  -25.2300   49.9400 O.2       2 ALA2        0.0000 
     10 O         -44.2100  -28.3000   51.9600 O.2       2 ALA2        0.0000 
     11 O         -43.4700  -22.2000   51.1900 O.2       2 ALA2        0.0000 
     12 O         -43.3600  -23.7000   51.1500 O.2       2 ALA2        0.0000 
     13 O         -42.1900  -23.5900   50.2200 O.2       2 ALA2        0.0000 
     14 N         -41.0300  -23.4800   49.2800 N.am      2 ALA2        0.0000 
     15 O         -44.5500  -26.8800   54.1100 O.2       2 ALA2        0.0000 
     16 O         -43.3800  -26.7700   53.1700 O.2       2 ALA2        0.0000 
     17 O         -42.1100  -28.1500   52.2000 O.2       2 ALA2        0.0000 
     18 O         -40.0900  -23.4400   50.4600 O.2       2 ALA2        0.0000 
     19 O         -42.4500  -26.7300   54.3500 O.2       2 ALA2        0.0000 
     20 O         -40.2200  -25.0200   52.5200 O.2       2 ALA2        0.0000 
     21 O         -41.5200  -26.7000   55.5200 O.2       2 ALA2        0.0000 
     22 N         -41.4100  -28.1900   55.4800 N.am      2 ALA2        0.0000 
     23 N         -41.3000  -29.6900   55.4400 N.am      2 ALA2        0.0000 
     24 O         -39.3900  -23.4900   53.7400 O.2       2 ALA2        0.0000 
     25 N         -42.8100  -28.3800   58.5200 N.am      2 ALA2        0.0000 
     26 N         -42.7100  -29.8800   58.4800 N.am      2 ALA2        0.0000 
     27 O         -41.7500  -26.7700   57.6300 O.2       2 ALA2        0.0000 
     28 N         -41.6400  -28.2700   57.5800 N.am      2 ALA2        0.0000 
     29 N         -41.5400  -29.7700   57.5400 N.am      2 ALA2        0.0000 
     30 N         -39.5200  -25.0600   55.8000 N.am      2 ALA2        0.0000 
     31 N         -39.4100  -26.5500   55.7600 N.am      2 ALA2        0.0000 
     32 O         -37.2000  -27.9100   55.9600 O.2       2 ALA2        0.0000 
     33 OD1       -40.2400  -28.0800   54.5400 O.co2     3 ASP3        0.0000 
     34 OD1       -40.1300  -29.5800   54.5000 O.co2     3 ASP3        0.0000 
     35 OD1       -38.9600  -29.4700   53.5700 O.co2     3 ASP3        0.0000 
     36 OD1       -40.5800  -26.6600   56.6900 O.co2     3 ASP3        0.0000 
     37 OD1       -40.4800  -28.1600   56.6500 O.co2     3 ASP3        0.0000 
     38 OD1       -39.3100  -28.0500   55.7200 O.co2     3 ASP3        0.0000 
     39 OD1       -38.0300  -29.4300   54.7400 O.co2     3 ASP3        0.0000 
     40 OD1       -41.8800  -28.3500   59.6900 O.co2     3 ASP3        0.0000 
     41 OD1       -38.3700  -28.0200   56.8900 O.co2     3 ASP3        0.0000 
     42 OD1       -37.1000  -29.4000   55.9200 O.co2     3 ASP3        0.0000 
     43 NZ        -42.5400  -22.1700   52.3700 N.4       4 LYS4        0.0000 
     44 NZ        -41.3700  -22.0600   51.4300 N.4       4 LYS4        0.0000 
     45 NZ        -41.2600  -23.5500   51.3900 N.4       4 LYS4        0.0000 
     46 NZ        -40.3300  -23.5200   52.5600 N.4       4 LYS4        0.0000 
     47 CZ        -46.1900  -26.8700   49.6500 C.ar      5 PHE5        0.0000 
     48 CZ        -45.3600  -25.3400   50.8700 C.ar      5 PHE5        0.0000 
     49 CZ        -45.2500  -26.8300   50.8300 C.ar      5 PHE5        0.0000 
     50 CZ        -44.4300  -25.3000   52.0400 C.ar      5 PHE5        0.0000 
     51 CZ        -44.3200  -26.8000   52.0000 C.ar      5 PHE5        0.0000 
     52 CA        -44.0800  -26.7200   49.8900 C.3       6 GLY6        0.0000 
     53 CA        -43.1300  -23.6200   49.0400 C.3       6 GLY6        0.0000 
     54 CA        -43.0200  -25.1200   49.0000 C.3       6 GLY6        0.0000 
     55 CA        -43.1500  -26.6900   51.0700 C.3       6 GLY6        0.0000 
     56 CA        -42.3000  -22.0900   50.2600 C.3       6 GLY6        0.0000 
     57 CA        -42.0900  -25.0800   50.1700 C.3       6 GLY6        0.0000 
     58 CA        -43.2800  -28.2600   53.1300 C.3       6 GLY6        0.0000 
     59 CA        -42.2200  -26.6600   52.2400 C.3       6 GLY6        0.0000 
     60 CA        -41.1500  -25.0500   51.3500 C.3       6 GLY6        0.0000 
     61 CA        -42.5600  -25.2400   54.3900 C.3       6 GLY6        0.0000 
     62 CA        -42.3400  -28.2300   54.3000 C.3       6 GLY6        0.0000 
     63 CA        -41.1700  -28.1200   53.3700 C.3       6 GLY6        0.0000 
     64 CA        -39.2900  -24.9800   53.6900 C.3       6 GLY6        0.0000 
     65 CA        -39.1800  -26.4800   53.6500 C.3       6 GLY6        0.0000 
     66 CA        -39.0700  -27.9700   53.6100 C.3       6 GLY6        0.0000 
     67 CA        -38.1400  -27.9400   54.7800 C.3       6 GLY6        0.0000 
     68 DU        -43.2600  -25.1900   51.1100 H         7 CUB7        0.0000 
     69 DU        -42.4300  -23.6600   52.3200 H         7 CUB7        0.0000 
     70 DU        -42.3200  -25.1600   52.2800 H         7 CUB7        0.0000 
     71 DU        -41.3900  -25.1300   53.4600 H         7 CUB7        0.0000 
     72 DU        -41.2800  -26.6200   53.4100 H         7 CUB7        0.0000 
     73 DU        -40.3500  -26.5900   54.5900 H         7 CUB7        0.0000 
@<TRIPOS>BOND
@<TRIPOS>SUBSTRUCTURE
     1 SER1        1 GROUP   
     2 ALA2        9 GROUP   
     3 ASP3       33 GROUP   
     4 LYS4       43 GROUP   
     5 PHE5       47 GROUP   
     6 GLY6       52 GROUP   
     7 CUB7       68 GROUP   
@<TRIPOS>SET

