#    Name: 6mze_8_GDP
#    Modification time : Fri May 22 19:34:46 2020

@<TRIPOS>MOLECULE
6mze_8_GDP
   28    30     1     0     1
SMALL
NO_CHARGES


@<TRIPOS>ATOM
      1 PB        216.0130  -23.7420  235.8380 P.3       1 GDP600      0.0000 
      2 O1B       216.1460  -23.4650  234.3570 O.co2     1 GDP600      0.0000 
      3 O2B       216.9480  -22.8520  236.6220 O.co2     1 GDP600      0.0000 
      4 O3B       214.5970  -23.4640  236.2790 O.co2     1 GDP600      0.0000 
      5 O3A       216.3270  -25.2920  236.1360 O.3       1 GDP600      0.0000 
      6 PA        217.6680  -26.0310  235.6350 P.3       1 GDP600      0.0000 
      7 O1A       218.3480  -25.2500  234.5320 O.co2     1 GDP600      0.0000 
      8 O2A       218.6130  -26.3000  236.7860 O.co2     1 GDP600      0.0000 
      9 O5'       217.0410  -27.4020  235.0660 O.3       1 GDP600      0.0000 
     10 C5'       217.4660  -28.6790  235.5330 C.3       1 GDP600      0.0000 
     11 C4'       217.9060  -29.5260  234.3480 C.3       1 GDP600      0.0000 
     12 O4'       219.0580  -28.9160  233.7710 O.3       1 GDP600      0.0000 
     13 C3'       218.3300  -30.9230  234.7640 C.3       1 GDP600      0.0000 
     14 O3'       218.1180  -31.7970  233.6540 O.3       1 GDP600      0.0000 
     15 C2'       219.8120  -30.7710  235.0200 C.3       1 GDP600      0.0000 
     16 O2'       220.4800  -32.0080  234.7600 O.3       1 GDP600      0.0000 
     17 C1'       220.2160  -29.7190  234.0000 C.3       1 GDP600      0.0000 
     18 N9        221.3140  -28.8430  234.4740 N.pl3     1 GDP600      0.0000 
     19 C8        221.2580  -27.9820  235.5090 C.2       1 GDP600      0.0000 
     20 N7        222.4380  -27.3260  235.6640 N.2       1 GDP600      0.0000 
     21 C5        223.2700  -27.7630  234.6970 C.2       1 GDP600      0.0000 
     22 C6        224.6650  -27.4950  234.2680 C.2       1 GDP600      0.0000 
     23 O6        225.3760  -26.6660  234.8760 O.2       1 GDP600      0.0000 
     24 N1        225.1460  -28.1670  233.2110 N.am      1 GDP600      0.0000 
     25 C2        224.4110  -29.0680  232.5320 C.2       1 GDP600      0.0000 
     26 N2        224.9680  -29.7070  231.4720 N.pl3     1 GDP600      0.0000 
     27 N3        223.1290  -29.3620  232.8680 N.2       1 GDP600      0.0000 
     28 C4        222.5200  -28.7570  233.9150 C.2       1 GDP600      0.0000 
@<TRIPOS>BOND
     1    1    2 ar   
     2    1    3 ar   
     3    1    4 ar   
     4    1    5 1    
     5    5    6 1    
     6    6    7 ar   
     7    6    8 ar   
     8    6    9 1    
     9    9   10 1    
    10   10   11 1    
    11   11   12 1    
    12   11   13 1    
    13   12   17 1    
    14   13   14 1    
    15   13   15 1    
    16   15   16 1    
    17   15   17 1    
    18   17   18 1    
    19   18   19 1    
    20   18   28 1    
    21   19   20 2    
    22   20   21 1    
    23   21   22 1    
    24   21   28 2    
    25   22   23 2    
    26   22   24 am   
    27   24   25 1    
    28   25   26 1    
    29   25   27 2    
    30   27   28 1    
@<TRIPOS>SUBSTRUCTURE
     1 GDP600      1 GROUP   
@<TRIPOS>SET
ATOM$ORANGE STATIC     ATOMS   COLORGROUP SYSTEM 
20 10 10 11 11 13 13 15 15 17 17 19 19 21 21 22 22 25 \
25 28 28 

