#    Name: 6mze_16_GDP
#    Modification time : Fri May 22 19:36:06 2020

@<TRIPOS>MOLECULE
6mze_16_GDP
   28    30     1     0     1
SMALL
NO_CHARGES


@<TRIPOS>ATOM
      1 PB        -29.7270  -21.9490   94.8010 P.3       1 GDP600      0.0000 
      2 O1B       -29.7620  -22.1270   93.3000 O.co2     1 GDP600      0.0000 
      3 O2B       -30.5740  -23.0010   95.4760 O.co2     1 GDP600      0.0000 
      4 O3B       -28.3070  -22.0830   95.2930 O.co2     1 GDP600      0.0000 
      5 O3A       -30.2530  -20.4780   95.1840 O.3       1 GDP600      0.0000 
      6 PA        -31.6530  -19.8740   94.6650 P.3       1 GDP600      0.0000 
      7 O1A       -32.1760  -20.6420   93.4710 O.co2     1 GDP600      0.0000 
      8 O2A       -32.6660  -19.7970   95.7870 O.co2     1 GDP600      0.0000 
      9 O5'       -31.1710  -18.4010   94.2330 O.3       1 GDP600      0.0000 
     10 C5'       -31.7570  -17.2170   94.7620 C.3       1 GDP600      0.0000 
     11 C4'       -32.2280  -16.3430   93.6110 C.3       1 GDP600      0.0000 
     12 O4'       -33.2730  -17.0450   92.9460 O.3       1 GDP600      0.0000 
     13 C3'       -32.8200  -15.0330   94.0960 C.3       1 GDP600      0.0000 
     14 O3'       -32.6730  -14.0640   93.0550 O.3       1 GDP600      0.0000 
     15 C2'       -34.2800  -15.3730   94.2800 C.3       1 GDP600      0.0000 
     16 O2'       -35.0800  -14.2040   94.0810 O.3       1 GDP600      0.0000 
     17 C1'       -34.5210  -16.3920   93.1780 C.3       1 GDP600      0.0000 
     18 N9        -35.5260  -17.4150   93.5550 N.pl3     1 GDP600      0.0000 
     19 C8        -35.4090  -18.3320   94.5350 C.2       1 GDP600      0.0000 
     20 N7        -36.5150  -19.1200   94.6010 N.2       1 GDP600      0.0000 
     21 C5        -37.3600  -18.7080   93.6340 C.2       1 GDP600      0.0000 
     22 C6        -38.7050  -19.0910   93.1340 C.2       1 GDP600      0.0000 
     23 O6        -39.3420  -20.0310   93.6570 O.2       1 GDP600      0.0000 
     24 N1        -39.2220  -18.4040   92.1060 N.am      1 GDP600      0.0000 
     25 C2        -38.5680  -17.3860   91.5160 C.2       1 GDP600      0.0000 
     26 N2        -39.1580  -16.7390   90.4810 N.pl3     1 GDP600      0.0000 
     27 N3        -37.3360  -16.9810   91.9200 N.2       1 GDP600      0.0000 
     28 C4        -36.6980  -17.5900   92.9480 C.2       1 GDP600      0.0000 
@<TRIPOS>BOND
     1    1    2 ar   
     2    1    3 ar   
     3    1    4 ar   
     4    1    5 1    
     5    5    6 1    
     6    6    7 ar   
     7    6    8 ar   
     8    6    9 1    
     9    9   10 1    
    10   10   11 1    
    11   11   12 1    
    12   11   13 1    
    13   12   17 1    
    14   13   14 1    
    15   13   15 1    
    16   15   16 1    
    17   15   17 1    
    18   17   18 1    
    19   18   19 1    
    20   18   28 1    
    21   19   20 2    
    22   20   21 1    
    23   21   22 1    
    24   21   28 2    
    25   22   23 2    
    26   22   24 am   
    27   24   25 1    
    28   25   26 1    
    29   25   27 2    
    30   27   28 1    
@<TRIPOS>SUBSTRUCTURE
     1 GDP600      1 GROUP   
@<TRIPOS>SET
ATOM$ORANGE STATIC     ATOMS   COLORGROUP SYSTEM 
20 10 10 11 11 13 13 15 15 17 17 19 19 21 21 22 22 25 \
25 28 28 

