#    Name: 6mze_6_GDP_CAVITY_N1_12
#    Modification time : Fri May 22 19:34:26 2020

@<TRIPOS>MOLECULE
6mze_6_GDP_CAVITY_N1_12
   99     0     7     0     0
SMALL
NO_CHARGES


@<TRIPOS>ATOM
      1 OG        187.4400   -9.3400  129.7500 O.3       1 SER1        0.0000 
      2 OG        187.5500  -10.8400  129.7000 O.3       1 SER1        0.0000 
      3 OG        184.6500   -6.6500  133.8000 O.3       1 SER1        0.0000 
      4 OG        185.9300   -8.0300  132.8300 O.3       1 SER1        0.0000 
      5 OG        186.1400  -11.0200  132.7400 O.3       1 SER1        0.0000 
      6 OG        187.2100   -9.4200  131.8500 O.3       1 SER1        0.0000 
      7 OG        188.3700   -9.3100  130.9200 O.3       1 SER1        0.0000 
      8 OG        188.4800  -10.8000  130.8800 O.3       1 SER1        0.0000 
      9 OG        188.5900  -12.3000  130.8400 O.3       1 SER1        0.0000 
     10 OG        185.5900   -6.6100  134.9800 O.3       1 SER1        0.0000 
     11 OG        185.6900   -8.1100  134.9400 O.3       1 SER1        0.0000 
     12 OG        186.8600   -8.0000  134.0000 O.3       1 SER1        0.0000 
     13 OG        186.9700   -9.4900  133.9600 O.3       1 SER1        0.0000 
     14 OG        189.3100   -9.2700  132.0900 O.3       1 SER1        0.0000 
     15 OG        189.4200  -10.7700  132.0500 O.3       1 SER1        0.0000 
     16 OG        190.5800  -10.6600  131.1200 O.3       1 SER1        0.0000 
     17 OG        187.3500   -5.0500  137.3700 O.3       1 SER1        0.0000 
     18 O         187.0000   -6.1500  122.3400 O.2       2 ALA2        0.0000 
     19 N         184.5300   -7.9500  126.2700 N.am      2 ALA2        0.0000 
     20 N         184.6400   -9.4400  126.2300 N.am      2 ALA2        0.0000 
     21 N         184.7500  -10.9400  126.1800 N.am      2 ALA2        0.0000 
     22 O         185.7000   -7.8400  125.3300 O.2       2 ALA2        0.0000 
     23 N         185.8100   -9.3300  125.2900 N.am      2 ALA2        0.0000 
     24 N         184.5100  -11.0100  128.2900 N.am      2 ALA2        0.0000 
     25 O         185.6800  -10.9000  127.3600 O.2       2 ALA2        0.0000 
     26 O         185.4500  -10.9800  129.4600 O.2       2 ALA2        0.0000 
     27 O         186.4000   -7.8800  128.6200 O.2       2 ALA2        0.0000 
     28 O         185.4300  -14.0500  131.4900 O.2       2 ALA2        0.0000 
     29 O         186.4900  -12.4400  130.6000 O.2       2 ALA2        0.0000 
     30 O         187.3300   -7.8400  129.7900 O.2       2 ALA2        0.0000 
     31 O         187.6600  -12.3300  129.6600 O.2       2 ALA2        0.0000 
     32 O         185.0800  -12.6300  133.6400 O.2       2 ALA2        0.0000 
     33 O         185.8200   -6.5400  132.8700 O.2       2 ALA2        0.0000 
     34 O         187.1000   -7.9200  131.9000 O.2       2 ALA2        0.0000 
     35 O         188.2700   -7.8100  130.9600 O.2       2 ALA2        0.0000 
     36 O         187.0800  -10.9900  133.9200 O.2       2 ALA2        0.0000 
     37 N         189.2000   -7.7800  132.1400 N.am      2 ALA2        0.0000 
     38 O         188.0100  -10.9500  135.0900 O.2       2 ALA2        0.0000 
     39 N         188.9700   -7.8500  134.2400 N.am      2 ALA2        0.0000 
     40 N         189.0700   -9.3500  134.2000 N.am      2 ALA2        0.0000 
     41 N         190.0300   -6.2500  133.3500 N.am      2 ALA2        0.0000 
     42 N         190.1400   -7.7400  133.3100 N.am      2 ALA2        0.0000 
     43 O         187.4500   -6.5400  137.3200 O.2       2 ALA2        0.0000 
     44 N         188.7300   -7.9300  136.3500 N.am      2 ALA2        0.0000 
     45 N         189.9000   -7.8200  135.4200 N.am      2 ALA2        0.0000 
     46 O         191.2800  -10.7000  134.4000 O.2       2 ALA2        0.0000 
     47 O         189.4500   -4.9000  137.6100 O.2       2 ALA2        0.0000 
     48 O         189.5600   -6.4000  137.5600 O.2       2 ALA2        0.0000 
     49 O         190.6200   -4.7900  136.6700 O.2       2 ALA2        0.0000 
     50 O         190.7300   -6.2900  136.6300 O.2       2 ALA2        0.0000 
     51 N         190.8300   -7.7800  136.5900 N.am      2 ALA2        0.0000 
     52 OD1       187.6900   -6.4700  135.2200 O.co2     3 ASP3        0.0000 
     53 OD1       188.8600   -6.3600  134.2800 O.co2     3 ASP3        0.0000 
     54 OD1       188.5200   -4.9400  136.4300 O.co2     3 ASP3        0.0000 
     55 OD1       188.6200   -6.4300  136.3900 O.co2     3 ASP3        0.0000 
     56 OD1       189.6900   -4.8300  135.5000 O.co2     3 ASP3        0.0000 
     57 OD1       189.3400   -3.4100  137.6500 O.co2     3 ASP3        0.0000 
     58 OD1       190.5100   -3.3000  136.7200 O.co2     3 ASP3        0.0000 
     59 NZ        187.5300  -13.9000  131.7300 N.4       4 LYS4        0.0000 
     60 NZ        187.1900  -12.4800  133.8800 N.4       4 LYS4        0.0000 
     61 NZ        188.2500  -10.8800  132.9800 N.4       4 LYS4        0.0000 
     62 NZ        188.3500  -12.3700  132.9400 N.4       4 LYS4        0.0000 
     63 NZ        189.1800  -10.8400  134.1600 N.4       4 LYS4        0.0000 
     64 NZ        190.3500  -10.7300  133.2200 N.4       4 LYS4        0.0000 
     65 CZ        186.6300   -7.8000  126.5100 C.ar      5 PHE5        0.0000 
     66 CZ        186.7400   -9.3000  126.4700 C.ar      5 PHE5        0.0000 
     67 CZ        186.5100   -9.3700  128.5700 C.ar      5 PHE5        0.0000 
     68 CZ        186.6100  -10.8700  128.5300 C.ar      5 PHE5        0.0000 
     69 CA        185.5900   -6.3400  125.3800 C.3       6 GLY6        0.0000 
     70 CA        186.7600   -6.2300  124.4400 C.3       6 GLY6        0.0000 
     71 CA        185.4700   -7.9100  127.4400 C.3       6 GLY6        0.0000 
     72 CA        185.5700   -9.4100  127.4000 C.3       6 GLY6        0.0000 
     73 CA        186.5300   -6.3100  126.5500 C.3       6 GLY6        0.0000 
     74 CA        184.2800  -11.0900  130.4000 C.3       6 GLY6        0.0000 
     75 CA        184.3800  -12.5900  130.3600 C.3       6 GLY6        0.0000 
     76 CA        185.3400   -9.4800  129.5100 C.3       6 GLY6        0.0000 
     77 CA        184.1500  -12.6600  132.4600 C.3       6 GLY6        0.0000 
     78 CA        185.1000   -9.5600  131.6100 C.3       6 GLY6        0.0000 
     79 CA        185.2100  -11.0600  131.5700 C.3       6 GLY6        0.0000 
     80 CA        185.3200  -12.5500  131.5300 C.3       6 GLY6        0.0000 
     81 CA        186.1600   -7.9500  130.7200 C.3       6 GLY6        0.0000 
     82 CA        186.2700   -9.4500  130.6800 C.3       6 GLY6        0.0000 
     83 CA        186.2500  -12.5200  132.7000 C.3       6 GLY6        0.0000 
     84 CA        186.3600  -14.0100  132.6600 C.3       6 GLY6        0.0000 
     85 CA        188.7000  -13.7900  130.7900 C.3       6 GLY6        0.0000 
     86 CA        186.7600   -6.5000  134.0400 C.3       6 GLY6        0.0000 
     87 CA        187.9200   -6.3900  133.1100 C.3       6 GLY6        0.0000 
     88 CA        189.5200  -12.2600  132.0100 C.3       6 GLY6        0.0000 
     89 CA        186.5200   -6.5800  136.1500 C.3       6 GLY6        0.0000 
     90 CA        187.8000   -7.9600  135.1800 C.3       6 GLY6        0.0000 
     91 CA        187.9000   -9.4600  135.1300 C.3       6 GLY6        0.0000 
     92 CA        191.6600   -6.2500  137.8000 C.3       6 GLY6        0.0000 
     93 DU        186.3800  -10.9500  130.6400 H         7 CUB7        0.0000 
     94 DU        187.3100  -10.9100  131.8100 H         7 CUB7        0.0000 
     95 DU        187.4200  -12.4100  131.7700 H         7 CUB7        0.0000 
     96 DU        188.0300   -7.8900  133.0700 H         7 CUB7        0.0000 
     97 DU        188.1400   -9.3800  133.0300 H         7 CUB7        0.0000 
     98 DU        190.2400   -9.2400  133.2700 H         7 CUB7        0.0000 
     99 DU        189.7900   -6.3200  135.4600 H         7 CUB7        0.0000 
@<TRIPOS>BOND
@<TRIPOS>SUBSTRUCTURE
     1 SER1        1 GROUP   
     2 ALA2       18 GROUP   
     3 ASP3       52 GROUP   
     4 LYS4       59 GROUP   
     5 PHE5       65 GROUP   
     6 GLY6       69 GROUP   
     7 CUB7       93 GROUP   
@<TRIPOS>SET

