#    Name: 6mze_9_GTP_CAVITY_N1_8
#    Modification time : Fri May 22 19:35:03 2020

@<TRIPOS>MOLECULE
6mze_9_GTP_CAVITY_N1_8
   34     0     5     0     0
SMALL
NO_CHARGES


@<TRIPOS>ATOM
      1 N          40.6000  -18.3300  127.9900 N.am      1 ALA2        0.0000 
      2 N          40.7000  -19.8200  127.9500 N.am      1 ALA2        0.0000 
      3 N          41.7700  -18.2200  127.0600 N.am      1 ALA2        0.0000 
      4 O          37.0700  -21.7300  132.8100 O.2       1 ALA2        0.0000 
      5 O          38.1300  -20.1200  131.9200 O.2       1 ALA2        0.0000 
      6 O          39.3000  -20.0100  130.9900 O.2       1 ALA2        0.0000 
      7 N          40.4700  -19.9000  130.0600 N.am      1 ALA2        0.0000 
      8 N          41.6400  -19.7900  129.1200 N.am      1 ALA2        0.0000 
      9 N          42.8100  -19.6800  128.1900 N.am      1 ALA2        0.0000 
     10 O          37.9000  -20.2000  134.0300 O.2       1 ALA2        0.0000 
     11 N          38.9600  -18.5900  133.1400 N.am      1 ALA2        0.0000 
     12 N          40.1300  -18.4800  132.2000 N.am      1 ALA2        0.0000 
     13 N          41.2900  -18.3700  131.2700 N.am      1 ALA2        0.0000 
     14 OD1        40.9400  -19.7500  125.8400 O.co2     2 ASP3        0.0000 
     15 OD1        42.1100  -19.6400  124.9100 O.co2     2 ASP3        0.0000 
     16 OD1        44.4300  -22.4900  125.0600 O.co2     2 ASP3        0.0000 
     17 NZ         42.2100  -21.1300  124.8700 N.4       3 LYS4        0.0000 
     18 NZ         43.3800  -21.0200  123.9300 N.4       3 LYS4        0.0000 
     19 NZ         43.4900  -22.5200  123.8900 N.4       3 LYS4        0.0000 
     20 NZ         40.8100  -21.3200  127.9100 N.4       3 LYS4        0.0000 
     21 NZ         41.9800  -21.2100  126.9700 N.4       3 LYS4        0.0000 
     22 NZ         43.2600  -22.6000  126.0000 N.4       3 LYS4        0.0000 
     23 CA         37.3000  -21.6500  130.7100 C.3       4 GLY6        0.0000 
     24 CA         38.4700  -21.5400  129.7700 C.3       4 GLY6        0.0000 
     25 CA         39.6400  -21.4300  128.8400 C.3       4 GLY6        0.0000 
     26 CA         41.8700  -19.7100  127.0200 C.3       4 GLY6        0.0000 
     27 CA         43.0400  -19.6000  126.0800 C.3       4 GLY6        0.0000 
     28 CA         43.1500  -21.1000  126.0400 C.3       4 GLY6        0.0000 
     29 CA         44.3200  -20.9900  125.1100 C.3       4 GLY6        0.0000 
     30 CA         41.5300  -18.3000  129.1600 C.3       4 GLY6        0.0000 
     31 CA         42.9100  -21.1800  128.1500 C.3       4 GLY6        0.0000 
     32 CA         44.0800  -21.0700  127.2100 C.3       4 GLY6        0.0000 
     33 DU         39.4100  -21.5100  130.9500 H         5 CUB7        0.0000 
     34 DU         40.5800  -21.4000  130.0100 H         5 CUB7        0.0000 
@<TRIPOS>BOND
@<TRIPOS>SUBSTRUCTURE
     1 ALA2        1 GROUP   
     2 ASP3       14 GROUP   
     3 LYS4       17 GROUP   
     4 GLY6       23 GROUP   
     5 CUB7       33 GROUP   
@<TRIPOS>SET

