#    Name: 6mze_12_GDP_CAVITY_N1_6
#    Modification time : Fri May 22 19:35:30 2020

@<TRIPOS>MOLECULE
6mze_12_GDP_CAVITY_N1_6
  104     0     7     0     0
SMALL
NO_CHARGES


@<TRIPOS>ATOM
      1 OG        109.1500  -26.6500   10.3900 O.3       1 SER1        0.0000 
      2 OG        111.2500  -26.5000   10.6300 O.3       1 SER1        0.0000 
      3 OG        111.3600  -28.0000   10.5900 O.3       1 SER1        0.0000 
      4 OG        111.4700  -29.4900   10.5500 O.3       1 SER1        0.0000 
      5 OG        112.4200  -26.3900    9.7000 O.3       1 SER1        0.0000 
      6 OG        108.7900  -28.2900   14.5600 O.3       1 SER1        0.0000 
      7 OG        108.8900  -29.7900   14.5200 O.3       1 SER1        0.0000 
      8 OG        109.9500  -28.1800   13.6300 O.3       1 SER1        0.0000 
      9 OG        111.1200  -28.0700   12.6900 O.3       1 SER1        0.0000 
     10 OG        112.1800  -26.4700   11.8000 O.3       1 SER1        0.0000 
     11 OG        112.4000  -29.4600   11.7200 O.3       1 SER1        0.0000 
     12 OG        109.6100  -26.7600   15.7800 O.3       1 SER1        0.0000 
     13 OG        110.7800  -26.6500   14.8400 O.3       1 SER1        0.0000 
     14 OG        110.8900  -28.1500   14.8000 O.3       1 SER1        0.0000 
     15 OG        111.0000  -29.6500   14.7600 O.3       1 SER1        0.0000 
     16 OG        111.9500  -26.5400   13.9100 O.3       1 SER1        0.0000 
     17 OG        112.0600  -28.0400   13.8700 O.3       1 SER1        0.0000 
     18 OG        113.1200  -26.4300   12.9800 O.3       1 SER1        0.0000 
     19 OG        113.3300  -29.4200   12.8900 O.3       1 SER1        0.0000 
     20 OG        114.0500  -26.4000   14.1500 O.3       1 SER1        0.0000 
     21 O         105.2600  -31.4200    9.7800 O.2       2 ALA2        0.0000 
     22 O         105.4800  -34.4100    9.7000 O.2       2 ALA2        0.0000 
     23 O         105.1400  -32.9900   11.8500 O.2       2 ALA2        0.0000 
     24 O         105.2400  -34.4900   11.8100 O.2       2 ALA2        0.0000 
     25 O         106.2000  -31.3900   10.9600 O.2       2 ALA2        0.0000 
     26 O         106.3100  -32.8800   10.9200 O.2       2 ALA2        0.0000 
     27 O         107.3700  -31.2800   10.0200 O.2       2 ALA2        0.0000 
     28 O         105.9600  -31.4600   13.0600 O.2       2 ALA2        0.0000 
     29 N         107.1300  -31.3500   12.1300 N.am      2 ALA2        0.0000 
     30 N         107.9800  -26.7600   11.3200 N.am      2 ALA2        0.0000 
     31 N         108.1900  -29.7500   11.2400 N.am      2 ALA2        0.0000 
     32 O         109.2600  -28.1400   10.3500 O.2       2 ALA2        0.0000 
     33 N         109.4700  -31.1300   10.2600 N.am      2 ALA2        0.0000 
     34 N         109.5800  -32.6300   10.2200 N.am      2 ALA2        0.0000 
     35 O         106.9000  -31.4300   14.2400 O.2       2 ALA2        0.0000 
     36 N         109.0200  -28.2200   12.4500 N.am      2 ALA2        0.0000 
     37 N         109.1300  -29.7100   12.4100 N.am      2 ALA2        0.0000 
     38 N         110.4000  -31.1000   11.4400 N.am      2 ALA2        0.0000 
     39 N         111.5700  -30.9900   10.5000 N.am      2 ALA2        0.0000 
     40 O         108.6800  -26.8000   14.6000 O.2       2 ALA2        0.0000 
     41 N         111.2300  -29.5700   12.6500 N.am      2 ALA2        0.0000 
     42 N         111.3400  -31.0600   12.6100 N.am      2 ALA2        0.0000 
     43 O         109.5000  -25.2700   15.8200 O.2       2 ALA2        0.0000 
     44 O         111.7300  -23.5500   13.9900 O.2       2 ALA2        0.0000 
     45 O         111.8400  -25.0500   13.9500 O.2       2 ALA2        0.0000 
     46 O         112.1600  -29.5400   13.8300 O.2       2 ALA2        0.0000 
     47 O         111.6100  -25.1200   16.0600 O.2       2 ALA2        0.0000 
     48 O         112.8800  -26.5100   15.0800 O.2       2 ALA2        0.0000 
     49 O         113.8200  -26.4800   16.2600 O.2       2 ALA2        0.0000 
     50 O         114.9900  -26.3700   15.3200 O.2       2 ALA2        0.0000 
     51 O         115.9200  -26.3300   16.5000 O.2       2 ALA2        0.0000 
     52 N         116.0300  -27.8300   16.4500 N.am      2 ALA2        0.0000 
     53 N         116.1400  -29.3200   16.4100 N.am      2 ALA2        0.0000 
     54 N         116.8500  -26.3000   17.6700 N.am      2 ALA2        0.0000 
     55 N         116.9600  -27.7900   17.6300 N.am      2 ALA2        0.0000 
     56 OD1       106.4100  -34.3800   10.8700 O.co2     3 ASP3        0.0000 
     57 OD1       106.0700  -32.9600   13.0200 O.co2     3 ASP3        0.0000 
     58 OD1       106.1800  -34.4500   12.9800 O.co2     3 ASP3        0.0000 
     59 OD1       107.2400  -32.8500   12.0900 O.co2     3 ASP3        0.0000 
     60 OD1       108.4100  -32.7400   11.1500 O.co2     3 ASP3        0.0000 
     61 OD1       107.0000  -32.9200   14.2000 O.co2     3 ASP3        0.0000 
     62 OD1       108.0700  -31.3200   13.3000 O.co2     3 ASP3        0.0000 
     63 OD1       109.2400  -31.2100   12.3700 O.co2     3 ASP3        0.0000 
     64 OD1       109.0000  -31.2900   14.4800 O.co2     3 ASP3        0.0000 
     65 NZ        108.9100  -26.7200   12.5000 N.4       4 LYS4        0.0000 
     66 NZ        110.0800  -26.6100   11.5600 N.4       4 LYS4        0.0000 
     67 NZ        109.7400  -25.1900   13.7100 N.4       4 LYS4        0.0000 
     68 NZ        109.8500  -26.6900   13.6700 N.4       4 LYS4        0.0000 
     69 NZ        110.9100  -25.0800   12.7800 N.4       4 LYS4        0.0000 
     70 NZ        111.0200  -26.5800   12.7400 N.4       4 LYS4        0.0000 
     71 CZ        114.1600  -27.9000   14.1100 C.ar      5 PHE5        0.0000 
     72 CZ        114.2700  -29.3900   14.0700 C.ar      5 PHE5        0.0000 
     73 CZ        115.0900  -27.8600   15.2800 C.ar      5 PHE5        0.0000 
     74 CZ        116.1600  -26.2600   14.3900 C.ar      5 PHE5        0.0000 
     75 CZ        116.2600  -27.7500   14.3500 C.ar      5 PHE5        0.0000 
     76 CZ        117.0900  -26.2200   15.5600 C.ar      5 PHE5        0.0000 
     77 CA        105.3700  -32.9200    9.7400 C.3       6 GLY6        0.0000 
     78 CA        107.7400  -26.8300   13.4300 C.3       6 GLY6        0.0000 
     79 CA        107.8500  -28.3300   13.3900 C.3       6 GLY6        0.0000 
     80 CA        107.9600  -29.8200   13.3500 C.3       6 GLY6        0.0000 
     81 CA        107.8300  -31.4000   15.4100 C.3       6 GLY6        0.0000 
     82 CA        108.5700  -25.3000   14.6500 C.3       6 GLY6        0.0000 
     83 CA        110.1700  -31.1700   13.5400 C.3       6 GLY6        0.0000 
     84 CA        112.0800  -24.9700   11.8500 C.3       6 GLY6        0.0000 
     85 CA        110.5700  -23.6600   14.9300 C.3       6 GLY6        0.0000 
     86 CA        112.2700  -31.0300   13.7800 C.3       6 GLY6        0.0000 
     87 CA        113.0100  -24.9400   13.0200 C.3       6 GLY6        0.0000 
     88 CA        111.5000  -23.6300   16.1000 C.3       6 GLY6        0.0000 
     89 CA        111.7100  -26.6200   16.0200 C.3       6 GLY6        0.0000 
     90 CA        111.8200  -28.1200   15.9700 C.3       6 GLY6        0.0000 
     91 CA        112.9900  -28.0100   15.0400 C.3       6 GLY6        0.0000 
     92 CA        113.1000  -29.5000   15.0000 C.3       6 GLY6        0.0000 
     93 CA        112.5400  -25.0900   17.2300 C.3       6 GLY6        0.0000 
     94 CA        112.6500  -26.5900   17.1900 C.3       6 GLY6        0.0000 
     95 CA        113.9200  -27.9700   16.2100 C.3       6 GLY6        0.0000 
     96 CA        115.2000  -29.3600   15.2400 C.3       6 GLY6        0.0000 
     97 CA        114.7500  -26.4400   17.4300 C.3       6 GLY6        0.0000 
     98 DU        107.4700  -32.7700    9.9800 H         7 CUB7        0.0000 
     99 DU        108.3000  -31.2400   11.2000 H         7 CUB7        0.0000 
    100 DU        109.3600  -29.6400   10.3100 H         7 CUB7        0.0000 
    101 DU        110.1900  -28.1100   11.5200 H         7 CUB7        0.0000 
    102 DU        110.3000  -29.6000   11.4800 H         7 CUB7        0.0000 
    103 DU        110.0600  -29.6800   13.5900 H         7 CUB7        0.0000 
    104 DU        110.6700  -25.1600   14.8900 H         7 CUB7        0.0000 
@<TRIPOS>BOND
@<TRIPOS>SUBSTRUCTURE
     1 SER1        1 GROUP   
     2 ALA2       21 GROUP   
     3 ASP3       56 GROUP   
     4 LYS4       65 GROUP   
     5 PHE5       71 GROUP   
     6 GLY6       77 GROUP   
     7 CUB7       98 GROUP   
@<TRIPOS>SET

