#    Name: 6mze_4_GDP
#    Modification time : Fri May 22 19:34:00 2020

@<TRIPOS>MOLECULE
6mze_4_GDP
   28    30     1     0     1
SMALL
NO_CHARGES


@<TRIPOS>ATOM
      1 PB         80.6480   -7.8200  156.0470 P.3       1 GDP600      0.0000 
      2 O1B        79.7420   -6.6720  155.6730 O.co2     1 GDP600      0.0000 
      3 O2B        80.5550   -8.0930  157.5300 O.co2     1 GDP600      0.0000 
      4 O3B        82.0680   -7.4530  155.6910 O.co2     1 GDP600      0.0000 
      5 O3A        80.2480   -9.1420  155.2200 O.3       1 GDP600      0.0000 
      6 PA         78.8830   -9.9610  155.4710 P.3       1 GDP600      0.0000 
      7 O1A        77.9000   -9.7620  154.3370 O.co2     1 GDP600      0.0000 
      8 O2A        78.2670   -9.6080  156.8060 O.co2     1 GDP600      0.0000 
      9 O5'        79.4590  -11.4650  155.4780 O.3       1 GDP600      0.0000 
     10 C5'        78.9680  -12.4720  154.5980 C.3       1 GDP600      0.0000 
     11 C4'        78.5240  -13.6690  155.4250 C.3       1 GDP600      0.0000 
     12 O4'        77.4140  -13.2610  156.2200 O.3       1 GDP600      0.0000 
     13 C3'        78.0320  -14.8150  154.5610 C.3       1 GDP600      0.0000 
     14 O3'        78.2270  -16.0310  155.2840 O.3       1 GDP600      0.0000 
     15 C2'        76.5550  -14.5320  154.4280 C.3       1 GDP600      0.0000 
     16 O2'        75.8410  -15.7590  154.2610 O.3       1 GDP600      0.0000 
     17 C1'        76.2190  -13.8940  155.7650 C.3       1 GDP600      0.0000 
     18 N9         75.1480  -12.8730  155.6650 N.pl3     1 GDP600      0.0000 
     19 C8         75.2110  -11.7060  154.9960 C.2       1 GDP600      0.0000 
     20 N7         74.0540  -11.0050  155.1240 N.2       1 GDP600      0.0000 
     21 C5         73.2310  -11.7310  155.9060 C.2       1 GDP600      0.0000 
     22 C6         71.8580  -11.5910  156.4500 C.2       1 GDP600      0.0000 
     23 O6         71.1670  -10.5810  156.1970 O.2       1 GDP600      0.0000 
     24 N1         71.3800  -12.5780  157.2220 N.am      1 GDP600      0.0000 
     25 C2         72.0970  -13.6790  157.5150 C.2       1 GDP600      0.0000 
     26 N2         71.5440  -14.6340  158.3020 N.pl3     1 GDP600      0.0000 
     27 N3         73.3570  -13.8730  157.0510 N.2       1 GDP600      0.0000 
     28 C4         73.9610  -12.9550  156.2610 C.2       1 GDP600      0.0000 
@<TRIPOS>BOND
     1    1    2 ar   
     2    1    3 ar   
     3    1    4 ar   
     4    1    5 1    
     5    5    6 1    
     6    6    7 ar   
     7    6    8 ar   
     8    6    9 1    
     9    9   10 1    
    10   10   11 1    
    11   11   12 1    
    12   11   13 1    
    13   12   17 1    
    14   13   14 1    
    15   13   15 1    
    16   15   16 1    
    17   15   17 1    
    18   17   18 1    
    19   18   19 1    
    20   18   28 1    
    21   19   20 2    
    22   20   21 1    
    23   21   22 1    
    24   21   28 2    
    25   22   23 2    
    26   22   24 am   
    27   24   25 1    
    28   25   26 1    
    29   25   27 2    
    30   27   28 1    
@<TRIPOS>SUBSTRUCTURE
     1 GDP600      1 GROUP   
@<TRIPOS>SET
ATOM$ORANGE STATIC     ATOMS   COLORGROUP SYSTEM 
20 10 10 11 11 13 13 15 15 17 17 19 19 21 21 22 22 25 \
25 28 28 

