#    Name: 6net_2_FAD
#    Modification time : Fri May 22 19:25:12 2020

@<TRIPOS>MOLECULE
6net_2_FAD
   84    89     1     0     1
SMALL
NO_CHARGES


@<TRIPOS>ATOM
      1 PA         60.5180   92.0150   97.7990 P.3       1 FAD2203     0.0000 
      2 O1A        60.6870   93.4680   97.9890 O.co2     1 FAD2203     0.0000 
      3 O2A        61.6800   91.4330   97.0320 O.co2     1 FAD2203     0.0000 
      4 O5B        59.1980   91.5490   97.0720 O.3       1 FAD2203     0.0000 
      5 C5B        58.0580   92.4220   96.9380 C.3       1 FAD2203     0.0000 
      6 C4B        57.4400   92.2320   95.5680 C.3       1 FAD2203     0.0000 
      7 O4B        56.0500   92.6500   95.5920 O.3       1 FAD2203     0.0000 
      8 C3B        58.1050   93.0340   94.4440 C.3       1 FAD2203     0.0000 
      9 O3B        58.2980   92.2010   93.3060 O.3       1 FAD2203     0.0000 
     10 C2B        57.1240   94.1920   94.2200 C.3       1 FAD2203     0.0000 
     11 O2B        57.1200   94.7270   92.9050 O.3       1 FAD2203     0.0000 
     12 C1B        55.7990   93.4900   94.4880 C.3       1 FAD2203     0.0000 
     13 N9A        54.7030   94.3890   94.8120 N.pl3     1 FAD2203     0.0000 
     14 C8A        54.7320   95.4650   95.6590 C.2       1 FAD2203     0.0000 
     15 N7A        53.5870   96.0980   95.7530 N.2       1 FAD2203     0.0000 
     16 C5A        52.7480   95.3900   94.9090 C.ar      1 FAD2203     0.0000 
     17 C6A        51.3920   95.5480   94.5680 C.ar      1 FAD2203     0.0000 
     18 N6A        50.6080   96.5150   95.0530 N.pl3     1 FAD2203     0.0000 
     19 N1A        50.8580   94.6580   93.7020 N.ar      1 FAD2203     0.0000 
     20 C2A        51.6310   93.6810   93.2150 C.ar      1 FAD2203     0.0000 
     21 N3A        52.9190   93.4390   93.4670 N.ar      1 FAD2203     0.0000 
     22 C4A        53.4210   94.3310   94.3270 C.ar      1 FAD2203     0.0000 
     23 N1         68.3280   88.7960  102.8630 N.2       1 FAD2203     0.0000 
     24 C2         69.0800   87.6710  103.0310 C.2       1 FAD2203     0.0000 
     25 O2         68.5780   86.6000  103.4140 O.2       1 FAD2203     0.0000 
     26 N3         70.4470   87.7220  102.7500 N.am      1 FAD2203     0.0000 
     27 C4         71.1450   88.8330  102.3130 C.2       1 FAD2203     0.0000 
     28 O4         72.3520   88.7720  102.0950 O.2       1 FAD2203     0.0000 
     29 C4X        70.3300   90.0090  102.1450 C.2       1 FAD2203     0.0000 
     30 N5         70.9140   91.1020  101.7390 N.2       1 FAD2203     0.0000 
     31 C5X        70.1350   92.2300  101.5780 C.ar      1 FAD2203     0.0000 
     32 C6         70.7440   93.4020  101.1430 C.ar      1 FAD2203     0.0000 
     33 C7         70.0080   94.5700  100.9670 C.ar      1 FAD2203     0.0000 
     34 C7M        70.7110   95.8140  100.4900 C.3       1 FAD2203     0.0000 
     35 C8         68.6280   94.5660  101.2300 C.ar      1 FAD2203     0.0000 
     36 C8M        67.7920   95.8140  101.0490 C.3       1 FAD2203     0.0000 
     37 C9         68.0180   93.3930  101.6650 C.ar      1 FAD2203     0.0000 
     38 C9A        68.7610   92.2290  101.8430 C.ar      1 FAD2203     0.0000 
     39 N10        68.1740   91.0280  102.3010 N.pl3     1 FAD2203     0.0000 
     40 C10        68.9270   89.8930  102.4490 C.2       1 FAD2203     0.0000 
     41 C1'        66.7420   90.9450  102.5600 C.3       1 FAD2203     0.0000 
     42 C2'        65.9370   90.7520  101.2690 C.3       1 FAD2203     0.0000 
     43 O2'        66.2370   91.7570  100.2960 O.3       1 FAD2203     0.0000 
     44 C3'        64.4490   90.8760  101.5840 C.3       1 FAD2203     0.0000 
     45 O3'        64.2380   90.5040  102.9390 O.3       1 FAD2203     0.0000 
     46 C4'        63.5900   90.0050  100.6730 C.3       1 FAD2203     0.0000 
     47 O4'        63.6530   90.4960   99.3330 O.3       1 FAD2203     0.0000 
     48 C5'        62.1560   89.9820  101.1560 C.3       1 FAD2203     0.0000 
     49 O5'        61.3860   89.1930  100.2350 O.3       1 FAD2203     0.0000 
     50 P          60.0970   89.7560   99.5530 P.3       1 FAD2203     0.0000 
     51 O1P        60.1320   88.9100   98.2750 O.co2     1 FAD2203     0.0000 
     52 O2P        58.9870   89.6990  100.5470 O.co2     1 FAD2203     0.0000 
     53 O3P        60.4590   91.2870   99.2130 O.3       1 FAD2203     0.0000 
     54 H51A       57.4240   92.2150   97.5990 H         1 FAD2203     0.0000 
     55 H52A       58.3330   93.3150   97.0360 H         1 FAD2203     0.0000 
     56 H4B        57.4600   91.3220   95.3390 H         1 FAD2203     0.0000 
     57 H3B        58.7950   93.8580   95.1980 H         1 FAD2203     0.0000 
     58 HO3A       58.2010   92.3480   93.2870 H         1 FAD2203     0.0000 
     59 H2B        57.3100   94.8740   94.8390 H         1 FAD2203     0.0000 
     60 HO2A       56.5950   94.2900   92.4300 H         1 FAD2203     0.0000 
     61 H1B        55.5480   92.9720   93.7460 H         1 FAD2203     0.0000 
     62 H8A        55.4950   95.7260   96.1210 H         1 FAD2203     0.0000 
     63 H61A       50.8610   96.9730   95.7460 H         1 FAD2203     0.0000 
     64 H62A       49.8460   96.6870   94.6740 H         1 FAD2203     0.0000 
     65 H2A        51.2210   93.0990   92.6180 H         1 FAD2203     0.0000 
     66 HN3        70.9040   86.9920  102.8640 H         1 FAD2203     0.0000 
     67 H6         71.6520   93.2570  101.0090 H         1 FAD2203     0.0000 
     68 HM71       71.0360   96.2920  101.2300 H         1 FAD2203     0.0000 
     69 HM72       71.4280   95.5740   99.9330 H         1 FAD2203     0.0000 
     70 HM73       70.1080   96.3500  100.0100 H         1 FAD2203     0.0000 
     71 HM81       68.3110   96.4820  100.6430 H         1 FAD2203     0.0000 
     72 HM82       67.4930   96.1150  101.8870 H         1 FAD2203     0.0000 
     73 HM83       67.0520   95.6180  100.5050 H         1 FAD2203     0.0000 
     74 H9         67.2360   93.6930  102.0660 H         1 FAD2203     0.0000 
     75 H1'1       66.5780   90.2180  103.1320 H         1 FAD2203     0.0000 
     76 H1'2       66.4630   91.7390  102.9770 H         1 FAD2203     0.0000 
     77 H2'        66.1500   89.9030  100.9290 H         1 FAD2203     0.0000 
     78 HO2'       65.6660   91.7380   99.6920 H         1 FAD2203     0.0000 
     79 H3'        64.1770   91.7700  101.4940 H         1 FAD2203     0.0000 
     80 HO3'       64.4970   89.7220  103.0560 H         1 FAD2203     0.0000 
     81 H4'        63.9360   89.1330  100.6650 H         1 FAD2203     0.0000 
     82 HO4'       63.1710   91.1710   99.2620 H         1 FAD2203     0.0000 
     83 H5'1       61.8160   90.8570  101.1860 H         1 FAD2203     0.0000 
     84 H5'2       62.1150   89.6010  102.0130 H         1 FAD2203     0.0000 
@<TRIPOS>BOND
     1    1    2 ar   
     2    1    3 ar   
     3    1    4 1    
     4    1   53 1    
     5    4    5 1    
     6    5    6 1    
     7    6    7 1    
     8    5   54 1    
     9    5   55 1    
    10    6    8 1    
    11    7   12 1    
    12    6   56 1    
    13    8    9 1    
    14    8   10 1    
    15    8   57 1    
    16    9   58 1    
    17   10   11 1    
    18   10   12 1    
    19   12   13 1    
    20   10   59 1    
    21   11   60 1    
    22   13   14 1    
    23   12   61 1    
    24   13   22 1    
    25   14   15 2    
    26   15   16 1    
    27   14   62 1    
    28   16   17 ar   
    29   16   22 ar   
    30   17   18 1    
    31   17   19 ar   
    32   19   20 ar   
    33   18   63 1    
    34   18   64 1    
    35   20   21 ar   
    36   21   22 ar   
    37   20   65 1    
    38   23   24 1    
    39   23   40 2    
    40   24   25 2    
    41   24   26 am   
    42   26   27 am   
    43   27   28 2    
    44   26   66 1    
    45   27   29 1    
    46   29   30 2    
    47   29   40 1    
    48   30   31 1    
    49   31   32 ar   
    50   31   38 ar   
    51   32   33 ar   
    52   33   34 1    
    53   32   67 1    
    54   33   35 ar   
    55   35   36 1    
    56   34   68 1    
    57   34   69 1    
    58   34   70 1    
    59   35   37 ar   
    60   37   74 1    
    61   37   38 ar   
    62   36   71 1    
    63   36   72 1    
    64   36   73 1    
    65   38   39 1    
    66   39   40 1    
    67   39   41 1    
    68   41   42 1    
    69   42   43 1    
    70   41   75 1    
    71   41   76 1    
    72   42   44 1    
    73   44   45 1    
    74   42   77 1    
    75   43   78 1    
    76   44   46 1    
    77   46   47 1    
    78   44   79 1    
    79   45   80 1    
    80   46   48 1    
    81   48   49 1    
    82   46   81 1    
    83   47   82 1    
    84   49   50 1    
    85   48   83 1    
    86   48   84 1    
    87   50   51 ar   
    88   50   52 ar   
    89   50   53 1    
@<TRIPOS>SUBSTRUCTURE
     1 FAD2203     1 GROUP   
@<TRIPOS>SET
ATOM$ORANGE STATIC     ATOMS   COLORGROUP SYSTEM 
54 5 5 6 6 8 8 10 10 12 12 14 14 16 16 17 17 20 \
20 22 22 24 24 27 27 29 29 31 31 32 32 33 33 34 34 35 \
35 36 36 37 37 38 38 40 40 41 41 42 42 44 44 46 46 48 \
48 

