#    Name: 6net_1_FAD
#    Modification time : Fri May 22 19:25:05 2020

@<TRIPOS>MOLECULE
6net_1_FAD
   84    89     1     0     1
SMALL
NO_CHARGES


@<TRIPOS>ATOM
      1 PA         60.3600   45.9470   93.1620 P.3       1 FAD503      0.0000 
      2 O1A        60.3810   44.4780   93.2860 O.co2     1 FAD503      0.0000 
      3 O2A        59.0500   46.6680   93.4680 O.co2     1 FAD503      0.0000 
      4 O5B        60.7490   46.4900   91.7730 O.3       1 FAD503      0.0000 
      5 C5B        62.0260   46.1790   91.1690 C.3       1 FAD503      0.0000 
      6 C4B        61.8890   46.4990   89.6960 C.3       1 FAD503      0.0000 
      7 O4B        63.1150   46.1620   89.0050 O.3       1 FAD503      0.0000 
      8 C3B        60.7620   45.7310   89.0010 C.3       1 FAD503      0.0000 
      9 O3B        59.9130   46.5400   88.1980 O.3       1 FAD503      0.0000 
     10 C2B        61.5070   44.7200   88.1180 C.3       1 FAD503      0.0000 
     11 O2B        60.8560   44.5340   86.8750 O.3       1 FAD503      0.0000 
     12 C1B        62.7970   45.4760   87.8190 C.3       1 FAD503      0.0000 
     13 N9A        63.9140   44.6130   87.4490 N.pl3     1 FAD503      0.0000 
     14 C8A        64.2590   43.3950   87.9760 C.2       1 FAD503      0.0000 
     15 N7A        65.3210   42.8580   87.4210 N.2       1 FAD503      0.0000 
     16 C5A        65.6880   43.7770   86.4480 C.ar      1 FAD503      0.0000 
     17 C6A        66.7320   43.8040   85.5070 C.ar      1 FAD503      0.0000 
     18 N6A        67.6390   42.8400   85.3650 N.pl3     1 FAD503      0.0000 
     19 N1A        66.8090   44.8690   84.6880 N.ar      1 FAD503      0.0000 
     20 C2A        65.9060   45.8460   84.8080 C.ar      1 FAD503      0.0000 
     21 N3A        64.8820   45.9240   85.6540 N.ar      1 FAD503      0.0000 
     22 C4A        64.8270   44.8570   86.4520 C.ar      1 FAD503      0.0000 
     23 N1         55.8340   47.8370  101.7260 N.2       1 FAD503      0.0000 
     24 C2         55.2810   48.9570  102.2590 C.2       1 FAD503      0.0000 
     25 O2         55.9620   49.9430  102.5310 O.2       1 FAD503      0.0000 
     26 N3         53.9250   49.0070  102.5010 N.am      1 FAD503      0.0000 
     27 C4         53.0290   48.0010  102.2680 C.2       1 FAD503      0.0000 
     28 O4         51.8440   48.1880  102.5360 O.2       1 FAD503      0.0000 
     29 C4X        53.6410   46.8030  101.7090 C.2       1 FAD503      0.0000 
     30 N5         52.8700   45.7610  101.4640 N.2       1 FAD503      0.0000 
     31 C5X        53.4690   44.6250  100.9280 C.ar      1 FAD503      0.0000 
     32 C6         52.6850   43.5020  100.6620 C.ar      1 FAD503      0.0000 
     33 C7         53.2590   42.3360  100.1430 C.ar      1 FAD503      0.0000 
     34 C7M        52.3850   41.1380   99.8710 C.3       1 FAD503      0.0000 
     35 C8         54.6420   42.2970   99.8880 C.ar      1 FAD503      0.0000 
     36 C8M        55.3030   41.0730   99.3160 C.3       1 FAD503      0.0000 
     37 C9         55.4200   43.4190  100.1380 C.ar      1 FAD503      0.0000 
     38 C9A        54.8450   44.5700  100.6610 C.ar      1 FAD503      0.0000 
     39 N10        55.6340   45.6870  100.9850 N.pl3     1 FAD503      0.0000 
     40 C10        55.0600   46.8330  101.4720 C.2       1 FAD503      0.0000 
     41 C1'        57.0470   45.7180  100.6130 C.3       1 FAD503      0.0000 
     42 C2'        57.2110   46.3340   99.1970 C.3       1 FAD503      0.0000 
     43 O2'        56.3010   45.7540   98.2550 O.3       1 FAD503      0.0000 
     44 C3'        58.6360   46.1410   98.6650 C.3       1 FAD503      0.0000 
     45 O3'        59.5450   46.3680   99.7390 O.3       1 FAD503      0.0000 
     46 C4'        58.9110   47.1110   97.5180 C.3       1 FAD503      0.0000 
     47 O4'        58.0400   46.8830   96.4080 O.3       1 FAD503      0.0000 
     48 C5'        60.3370   47.1180   97.0070 C.3       1 FAD503      0.0000 
     49 O5'        60.4100   48.0040   95.8710 O.3       1 FAD503      0.0000 
     50 P          61.6180   47.9430   94.8710 P.3       1 FAD503      0.0000 
     51 O1P        61.3190   49.0830   93.8800 O.co2     1 FAD503      0.0000 
     52 O2P        62.8660   47.9270   95.7130 O.co2     1 FAD503      0.0000 
     53 O3P        61.4800   46.5430   94.1120 O.3       1 FAD503      0.0000 
     54 H51A       62.7040   46.7020   91.5530 H         1 FAD503      0.0000 
     55 H52A       62.2290   45.2690   91.2860 H         1 FAD503      0.0000 
     56 H4B        61.7500   47.4190   89.5710 H         1 FAD503      0.0000 
     57 H3B        60.2680   45.3100   89.6790 H         1 FAD503      0.0000 
     58 HO3A       60.3650   46.9210   87.6130 H         1 FAD503      0.0000 
     59 H2B        61.6420   43.9220   88.5940 H         1 FAD503      0.0000 
     60 HO2A       60.4010   45.2070   86.6970 H         1 FAD503      0.0000 
     61 H1B        62.6550   46.1000   87.1310 H         1 FAD503      0.0000 
     62 H8A        63.7950   42.9920   88.6730 H         1 FAD503      0.0000 
     63 H61A       67.7060   42.4150   84.6110 H         1 FAD503      0.0000 
     64 H62A       68.1640   42.6370   86.0260 H         1 FAD503      0.0000 
     65 H2A        66.0030   46.5590   84.2210 H         1 FAD503      0.0000 
     66 HN3        53.6090   49.7460  102.8270 H         1 FAD503      0.0000 
     67 H6         51.7980   43.6730  100.8770 H         1 FAD503      0.0000 
     68 HM71       51.6260   41.1710  100.4230 H         1 FAD503      0.0000 
     69 HM72       52.1160   41.1440   98.9710 H         1 FAD503      0.0000 
     70 HM73       52.8670   40.3520  100.0480 H         1 FAD503      0.0000 
     71 HM81       56.0850   41.3230   98.8610 H         1 FAD503      0.0000 
     72 HM82       54.7150   40.6500   98.7180 H         1 FAD503      0.0000 
     73 HM83       55.5210   40.4810  100.0110 H         1 FAD503      0.0000 
     74 H9         56.2830   43.0790  100.1920 H         1 FAD503      0.0000 
     75 H1'1       57.3880   44.8430  100.6130 H         1 FAD503      0.0000 
     76 H1'2       57.5210   46.2380  101.2350 H         1 FAD503      0.0000 
     77 H2'        57.0370   47.2520   99.2870 H         1 FAD503      0.0000 
     78 HO2'       56.7300   45.4110   97.6310 H         1 FAD503      0.0000 
     79 H3'        58.7830   45.2610   98.3730 H         1 FAD503      0.0000 
     80 HO3'       60.0660   45.7230   99.8030 H         1 FAD503      0.0000 
     81 H4'        58.7180   47.9520   97.8870 H         1 FAD503      0.0000 
     82 HO4'       58.3410   47.2680   95.7350 H         1 FAD503      0.0000 
     83 H5'1       60.9140   47.4200   97.6830 H         1 FAD503      0.0000 
     84 H5'2       60.5850   46.2500   96.7480 H         1 FAD503      0.0000 
@<TRIPOS>BOND
     1    1    2 ar   
     2    1    3 ar   
     3    1    4 1    
     4    1   53 1    
     5    4    5 1    
     6    5    6 1    
     7    6    7 1    
     8    5   54 1    
     9    5   55 1    
    10    6    8 1    
    11    7   12 1    
    12    6   56 1    
    13    8    9 1    
    14    8   10 1    
    15   10   11 1    
    16    8   57 1    
    17    9   58 1    
    18   10   12 1    
    19   12   13 1    
    20   10   59 1    
    21   11   60 1    
    22   13   14 1    
    23   12   61 1    
    24   13   22 1    
    25   14   15 2    
    26   15   16 1    
    27   14   62 1    
    28   16   17 ar   
    29   16   22 ar   
    30   17   18 1    
    31   17   19 ar   
    32   19   20 ar   
    33   18   63 1    
    34   18   64 1    
    35   20   21 ar   
    36   21   22 ar   
    37   20   65 1    
    38   23   24 1    
    39   23   40 2    
    40   24   25 2    
    41   24   26 am   
    42   26   27 am   
    43   27   28 2    
    44   26   66 1    
    45   27   29 1    
    46   29   30 2    
    47   29   40 1    
    48   30   31 1    
    49   31   32 ar   
    50   31   38 ar   
    51   32   33 ar   
    52   33   34 1    
    53   32   67 1    
    54   33   35 ar   
    55   35   36 1    
    56   34   68 1    
    57   34   69 1    
    58   34   70 1    
    59   35   37 ar   
    60   37   74 1    
    61   37   38 ar   
    62   36   71 1    
    63   36   72 1    
    64   36   73 1    
    65   38   39 1    
    66   39   40 1    
    67   39   41 1    
    68   41   42 1    
    69   42   43 1    
    70   41   75 1    
    71   41   76 1    
    72   42   44 1    
    73   44   45 1    
    74   42   77 1    
    75   43   78 1    
    76   44   46 1    
    77   46   47 1    
    78   44   79 1    
    79   45   80 1    
    80   46   48 1    
    81   48   49 1    
    82   46   81 1    
    83   47   82 1    
    84   49   50 1    
    85   48   83 1    
    86   48   84 1    
    87   50   51 ar   
    88   50   52 ar   
    89   50   53 1    
@<TRIPOS>SUBSTRUCTURE
     1 FAD503      1 GROUP   
@<TRIPOS>SET
ATOM$ORANGE STATIC     ATOMS   COLORGROUP SYSTEM 
54 5 5 6 6 8 8 10 10 12 12 14 14 16 16 17 17 20 \
20 22 22 24 24 27 27 29 29 31 31 32 32 33 33 34 34 35 \
35 36 36 37 37 38 38 40 40 41 41 42 42 44 44 46 46 48 \
48 

