#    Name: 6net_1_FAD_CAVITY_N1_4
#    Modification time : Fri May 22 19:25:07 2020

@<TRIPOS>MOLECULE
6net_1_FAD_CAVITY_N1_4
   82     0     6     0     0
SMALL
NO_CHARGES


@<TRIPOS>ATOM
      1 OG         48.7900   43.1200  101.1200 O.3       1 SER1        0.0000 
      2 N          50.9900   44.2800   98.8600 N.am      2 ALA2        0.0000 
      3 N          50.1800   44.3800  100.1200 N.am      2 ALA2        0.0000 
      4 N          51.5600   45.6400   99.1200 N.am      2 ALA2        0.0000 
      5 N          50.7500   45.7400  100.3800 N.am      2 ALA2        0.0000 
      6 N          53.3100   43.9900  103.9700 N.am      2 ALA2        0.0000 
      7 N          49.9400   45.8400  101.6300 N.am      2 ALA2        0.0000 
      8 O          56.8900   46.4000  100.7200 O.2       2 ALA2        0.0000 
      9 O          56.0800   46.5100  101.9700 O.2       2 ALA2        0.0000 
     10 N          54.1400   47.2300  102.4500 N.am      2 ALA2        0.0000 
     11 O          52.2000   47.9500  102.9300 O.2       2 ALA2        0.0000 
     12 N          54.7100   48.5900  102.7100 N.am      2 ALA2        0.0000 
     13 N          53.5900   49.2100  101.9300 N.am      2 ALA2        0.0000 
     14 OD1        52.6000   40.7300   96.6100 O.co2     3 ASP3        0.0000 
     15 OD1        53.2200   39.6900  100.6800 O.co2     3 ASP3        0.0000 
     16 OD1        52.1000   40.3100   99.9000 O.co2     3 ASP3        0.0000 
     17 OD1        50.9700   40.9300   99.1200 O.co2     3 ASP3        0.0000 
     18 OD1        49.8500   41.5500   98.3400 O.co2     3 ASP3        0.0000 
     19 OD1        51.2800   40.4200  101.1600 O.co2     3 ASP3        0.0000 
     20 OD1        50.1600   41.0300  100.3800 O.co2     3 ASP3        0.0000 
     21 OD1        53.1700   42.0900   96.8700 O.co2     3 ASP3        0.0000 
     22 OD1        52.3600   42.1900   98.1300 O.co2     3 ASP3        0.0000 
     23 OD1        51.2400   42.8100   97.3500 O.co2     3 ASP3        0.0000 
     24 OD1        53.7400   43.4500   97.1300 O.co2     3 ASP3        0.0000 
     25 OD1        52.9300   43.5600   98.3800 O.co2     3 ASP3        0.0000 
     26 OD1        51.8100   44.1700   97.6100 O.co2     3 ASP3        0.0000 
     27 OD1        54.6200   44.3000   99.4200 O.co2     3 ASP3        0.0000 
     28 OD1        53.5000   44.9200   98.6400 O.co2     3 ASP3        0.0000 
     29 OD1        52.3800   45.5400   97.8700 O.co2     3 ASP3        0.0000 
     30 OD1        55.2000   45.6600   99.6800 O.co2     3 ASP3        0.0000 
     31 CZ         50.4700   40.5200  102.4100 C.ar      4 PHE5        0.0000 
     32 CA         52.4100   39.8000  101.9300 C.3       5 GLY6        0.0000 
     33 CA         49.0400   41.6500   99.6000 C.3       5 GLY6        0.0000 
     34 CA         53.7900   41.0600  100.9400 C.3       5 GLY6        0.0000 
     35 CA         52.9800   41.1600  102.1900 C.3       5 GLY6        0.0000 
     36 CA         52.1600   41.2600  103.4500 C.3       5 GLY6        0.0000 
     37 CA         54.3600   42.4200  101.2000 C.3       5 GLY6        0.0000 
     38 CA         52.4300   43.1400  101.6700 C.3       5 GLY6        0.0000 
     39 CA         56.0600   43.1600  102.2300 C.3       5 GLY6        0.0000 
     40 CA         54.9300   43.7800  101.4600 C.3       5 GLY6        0.0000 
     41 CA         54.1200   43.8800  102.7100 C.3       5 GLY6        0.0000 
     42 CA         52.1800   44.6000  103.1900 C.3       5 GLY6        0.0000 
     43 CA         56.6300   44.5200  102.4900 C.3       5 GLY6        0.0000 
     44 CA         53.2600   46.3800  100.1600 C.3       5 GLY6        0.0000 
     45 CA         55.8200   44.6300  103.7500 C.3       5 GLY6        0.0000 
     46 CA         54.6900   45.2500  102.9700 C.3       5 GLY6        0.0000 
     47 CA         52.4500   46.4800  101.4200 C.3       5 GLY6        0.0000 
     48 CA         51.3200   47.1000  100.6400 C.3       5 GLY6        0.0000 
     49 CA         52.7600   45.9700  103.4500 C.3       5 GLY6        0.0000 
     50 CA         50.5100   47.2100  101.8900 C.3       5 GLY6        0.0000 
     51 CA         55.7700   47.0200   99.9400 C.3       5 GLY6        0.0000 
     52 CA         54.9500   47.1300  101.2000 C.3       5 GLY6        0.0000 
     53 CA         53.8300   47.7400  100.4200 C.3       5 GLY6        0.0000 
     54 CA         55.2600   46.6100  103.2300 C.3       5 GLY6        0.0000 
     55 CA         53.0200   47.8500  101.6800 C.3       5 GLY6        0.0000 
     56 CA         55.5300   48.4900  101.4600 C.3       5 GLY6        0.0000 
     57 DU         49.3500   41.1400  101.6300 H         6 CUB7        0.0000 
     58 DU         52.6700   41.6800  100.1600 H         6 CUB7        0.0000 
     59 DU         51.5500   42.3000   99.3800 H         6 CUB7        0.0000 
     60 DU         50.4200   42.9100   98.6000 H         6 CUB7        0.0000 
     61 DU         51.8500   41.7800  101.4200 H         6 CUB7        0.0000 
     62 DU         50.7300   42.4000  100.6400 H         6 CUB7        0.0000 
     63 DU         49.6100   43.0200   99.8600 H         6 CUB7        0.0000 
     64 DU         51.0400   41.8800  102.6700 H         6 CUB7        0.0000 
     65 DU         49.9200   42.5000  101.8900 H         6 CUB7        0.0000 
     66 DU         54.0500   42.9400   99.1600 H         6 CUB7        0.0000 
     67 DU         53.2400   43.0400  100.4200 H         6 CUB7        0.0000 
     68 DU         52.1200   43.6600   99.6400 H         6 CUB7        0.0000 
     69 DU         51.3000   43.7600  100.9000 H         6 CUB7        0.0000 
     70 DU         51.6100   43.2400  102.9300 H         6 CUB7        0.0000 
     71 DU         50.4900   43.8600  102.1500 H         6 CUB7        0.0000 
     72 DU         55.7500   43.6800  100.2000 H         6 CUB7        0.0000 
     73 DU         53.8100   44.4000  100.6800 H         6 CUB7        0.0000 
     74 DU         52.6900   45.0200   99.9000 H         6 CUB7        0.0000 
     75 DU         53.0000   44.5000  101.9300 H         6 CUB7        0.0000 
     76 DU         51.8700   45.1200  101.1600 H         6 CUB7        0.0000 
     77 DU         51.0600   45.2200  102.4100 H         6 CUB7        0.0000 
     78 DU         56.3200   45.0400  100.4600 H         6 CUB7        0.0000 
     79 DU         55.5100   45.1400  101.7200 H         6 CUB7        0.0000 
     80 DU         54.3800   45.7600  100.9400 H         6 CUB7        0.0000 
     81 DU         53.5700   45.8700  102.1900 H         6 CUB7        0.0000 
     82 DU         51.6300   46.5900  102.6700 H         6 CUB7        0.0000 
@<TRIPOS>BOND
@<TRIPOS>SUBSTRUCTURE
     1 SER1        1 GROUP   
     2 ALA2        2 GROUP   
     3 ASP3       14 GROUP   
     4 PHE5       31 GROUP   
     5 GLY6       32 GROUP   
     6 CUB7       57 GROUP   
@<TRIPOS>SET

