#    Name: 5z6l_1_FOL
#    Modification time : Fri May 22 19:26:54 2020

@<TRIPOS>MOLECULE
5z6l_1_FOL
   32    34     1     0     0
SMALL
NO_CHARGES


@<TRIPOS>ATOM
      1 N1          3.4760    2.6680   11.3110 N.pl3     1 FOL201      0.0000 
      2 C2          3.2540    3.9430   11.6990 C.2       1 FOL201      0.0000 
      3 NA2         4.3140    4.6800   12.1000 N.pl3     1 FOL201      0.0000 
      4 N3          2.0250    4.5320   11.7070 N.2       1 FOL201      0.0000 
      5 C4          0.9180    3.8650   11.3170 C.2       1 FOL201      0.0000 
      6 O4         -0.2080    4.4210   11.3280 O.2       1 FOL201      0.0000 
      7 C4A         1.1000    2.4550   10.8700 C.ar      1 FOL201      0.0000 
      8 N5          0.0740    1.6870   10.4530 N.ar      1 FOL201      0.0000 
      9 C6          0.3180    0.4150   10.0570 C.ar      1 FOL201      0.0000 
     10 C7          1.6140   -0.1200   10.0850 C.ar      1 FOL201      0.0000 
     11 N8          2.6690    0.6080   10.4900 N.ar      1 FOL201      0.0000 
     12 C8A         2.4720    1.8860   10.8890 C.ar      1 FOL201      0.0000 
     13 C9         -0.8580   -0.4210    9.5980 C.3       1 FOL201      0.0000 
     14 N10        -1.8190    0.4030    8.8720 N.pl3     1 FOL201      0.0000 
     15 C11        -1.7470    0.8910    4.7440 C.ar      1 FOL201      0.0000 
     16 C12        -2.8390    0.3010    5.3770 C.ar      1 FOL201      0.0000 
     17 C13        -2.8490    0.1480    6.7590 C.ar      1 FOL201      0.0000 
     18 C14        -1.7680    0.5820    7.5250 C.ar      1 FOL201      0.0000 
     19 C15        -0.6660    1.1690    6.8930 C.ar      1 FOL201      0.0000 
     20 C16        -0.6570    1.3270    5.5040 C.ar      1 FOL201      0.0000 
     21 C          -1.7790    1.0400    3.2450 C.2       1 FOL201      0.0000 
     22 O          -2.8320    0.8210    2.6640 O.2       1 FOL201      0.0000 
     23 N          -0.6820    1.4150    2.5780 N.am      1 FOL201      0.0000 
     24 CA         -0.7500    2.3050    1.4230 C.3       1 FOL201      0.0000 
     25 CB         -1.0140    3.7370    1.8770 C.3       1 FOL201      0.0000 
     26 CG         -0.3260    3.9860    3.2120 C.3       1 FOL201      0.0000 
     27 CD         -0.4090    5.4450    3.5700 C.2       1 FOL201      0.0000 
     28 OE1         0.6720    6.0560    3.7190 O.co2     1 FOL201      0.0000 
     29 OE2        -1.5380    5.9710    3.7020 O.co2     1 FOL201      0.0000 
     30 CT          0.5020    2.2700    0.5840 C.2       1 FOL201      0.0000 
     31 O1          1.3400    3.2070    0.6640 O.co2     1 FOL201      0.0000 
     32 O2          0.6450    1.2910   -0.1840 O.co2     1 FOL201      0.0000 
@<TRIPOS>BOND
     1    1    2 1    
     2    1   12 1    
     3    2    3 1    
     4    2    4 2    
     5    4    5 1    
     6    5    6 2    
     7    5    7 1    
     8    7    8 ar   
     9    7   12 ar   
    10    8    9 ar   
    11    9   10 ar   
    12    9   13 1    
    13   10   11 ar   
    14   11   12 ar   
    15   13   14 1    
    16   14   18 1    
    17   15   16 ar   
    18   15   20 ar   
    19   15   21 1    
    20   16   17 ar   
    21   17   18 ar   
    22   18   19 ar   
    23   19   20 ar   
    24   21   22 2    
    25   21   23 am   
    26   23   24 1    
    27   24   25 1    
    28   24   30 1    
    29   25   26 1    
    30   26   27 1    
    31   27   28 ar   
    32   27   29 ar   
    33   30   31 ar   
    34   30   32 ar   
@<TRIPOS>SUBSTRUCTURE
     1 FOL201      1 GROUP   
@<TRIPOS>SET

