#    Name: 6im4_1_GLY_MET_PRO_ARG_GLY_ALA
#    Modification time : Fri May 22 19:25:27 2020

@<TRIPOS>MOLECULE
6im4_1_GLY_MET_PRO_ARG_GLY_ALA
   39    39     6     0     0
SMALL
NO_CHARGES


@<TRIPOS>ATOM
      1 N         159.8710  264.7160   45.3230 N.4       1 GLY1        0.0000 
      2 CA        160.7520  264.8680   44.1850 C.3       1 GLY1        0.0000 
      3 C         160.9310  263.5560   43.4530 C.2       1 GLY1        0.0000 
      4 O         160.2440  262.5830   43.7470 O.2       1 GLY1        0.0000 
      5 N         161.8830  263.5370   42.5210 N.am      2 MET2        0.0000 
      6 CA        162.1800  262.3560   41.7270 C.3       2 MET2        0.0000 
      7 C         163.3930  261.6430   42.3020 C.2       2 MET2        0.0000 
      8 O         164.4640  262.2610   42.4260 O.2       2 MET2        0.0000 
      9 CB        162.4380  262.7570   40.2750 C.3       2 MET2        0.0000 
     10 CG        162.7520  261.5810   39.3490 C.3       2 MET2        0.0000 
     11 SD        163.2750  262.1670   37.7090 S.3       2 MET2        0.0000 
     12 CE        165.0520  262.2800   37.9120 C.3       2 MET2        0.0000 
     13 N         163.2920  260.3640   42.6640 N.am      3 PRO3        0.0000 
     14 CA        164.4880  259.6380   43.1030 C.3       3 PRO3        0.0000 
     15 C         165.4690  259.4410   41.9610 C.2       3 PRO3        0.0000 
     16 O         165.0850  259.2020   40.8150 O.2       3 PRO3        0.0000 
     17 CB        163.9300  258.2950   43.5970 C.3       3 PRO3        0.0000 
     18 CG        162.6730  258.1350   42.8270 C.3       3 PRO3        0.0000 
     19 CD        162.0930  259.5020   42.6460 C.3       3 PRO3        0.0000 
     20 N         166.7510  259.5570   42.2850 N.am      4 ARG4        0.0000 
     21 CA        167.8480  259.2780   41.3740 C.3       4 ARG4        0.0000 
     22 C         168.8470  258.4050   42.1030 C.2       4 ARG4        0.0000 
     23 O         168.9270  258.4250   43.3330 O.2       4 ARG4        0.0000 
     24 CB        168.5780  260.5370   40.9200 C.3       4 ARG4        0.0000 
     25 CG        167.7620  261.5660   40.1990 C.3       4 ARG4        0.0000 
     26 CD        168.6360  262.7930   40.0670 C.3       4 ARG4        0.0000 
     27 NE        168.4130  263.5060   38.8230 N.pl3     4 ARG4        0.0000 
     28 CZ        167.6960  264.6230   38.7360 C.cat     4 ARG4        0.0000 
     29 NH1       167.1230  265.1250   39.8300 N.pl3     4 ARG4        0.0000 
     30 NH2       167.5380  265.2270   37.5620 N.pl3     4 ARG4        0.0000 
     31 N         169.6550  257.6770   41.3560 N.am      5 GLY5        0.0000 
     32 CA        170.4800  256.6920   42.0230 C.3       5 GLY5        0.0000 
     33 C         171.6850  256.2490   41.2390 C.2       5 GLY5        0.0000 
     34 O         171.6610  256.1510   40.0060 O.2       5 GLY5        0.0000 
     35 N         172.7440  255.9600   41.9900 N.am      6 ALA6        0.0000 
     36 CA        173.9710  255.2560   41.6510 C.3       6 ALA6        0.0000 
     37 C         173.9390  254.1700   40.6150 C.2       6 ALA6        0.0000 
     38 O         174.7070  253.1970   40.7630 O.2       6 ALA6        0.0000 
     39 CB        174.5130  254.6400   42.9260 C.3       6 ALA6        0.0000 
@<TRIPOS>BOND
     1    1    2 1    
     2    2    3 1    
     3    3    4 2    
     4    3    5 am   
     5    5    6 1    
     6    6    7 1    
     7    6    9 1    
     8    7    8 2    
     9    7   13 am   
    10    9   10 1    
    11   10   11 1    
    12   11   12 1    
    13   13   14 1    
    14   13   19 1    
    15   14   15 1    
    16   14   17 1    
    17   15   16 2    
    18   15   20 am   
    19   17   18 1    
    20   18   19 1    
    21   20   21 1    
    22   21   22 1    
    23   21   24 1    
    24   22   23 2    
    25   22   31 am   
    26   24   25 1    
    27   25   26 1    
    28   26   27 1    
    29   27   28 ar   
    30   28   29 ar   
    31   28   30 ar   
    32   31   32 1    
    33   32   33 1    
    34   33   34 2    
    35   33   35 am   
    36   35   36 1    
    37   36   37 1    
    38   36   39 1    
    39   37   38 2    
@<TRIPOS>SUBSTRUCTURE
     1 GLY1        1 RESIDUE 
     2 MET2        5 RESIDUE 
     3 PRO3       13 RESIDUE 
     4 ARG4       20 RESIDUE 
     5 GLY5       31 RESIDUE 
     6 ALA6       35 RESIDUE 
@<TRIPOS>SET

