#    Name: 6im4_2_GLY_MET_PRO_ARG_GLY_ALA
#    Modification time : Fri May 22 19:25:35 2020

@<TRIPOS>MOLECULE
6im4_2_GLY_MET_PRO_ARG_GLY_ALA
   39    39     6     0     0
SMALL
NO_CHARGES


@<TRIPOS>ATOM
      1 N         113.0470  231.7320   49.9850 N.4       1 GLY1        0.0000 
      2 CA        113.5820  232.3610   48.7930 C.3       1 GLY1        0.0000 
      3 C         114.5230  231.4550   48.0120 C.2       1 GLY1        0.0000 
      4 O         114.6380  230.2620   48.2740 O.2       1 GLY1        0.0000 
      5 N         115.2300  232.0540   47.0670 N.am      2 MET2        0.0000 
      6 CA        116.2220  231.3660   46.2470 C.3       2 MET2        0.0000 
      7 C         117.6040  231.5640   46.8380 C.2       2 MET2        0.0000 
      8 O         118.0210  232.7110   47.0070 O.2       2 MET2        0.0000 
      9 CB        116.1940  231.9230   44.8170 C.3       2 MET2        0.0000 
     10 CG        117.1360  231.1680   43.8560 C.3       2 MET2        0.0000 
     11 SD        117.1920  231.9690   42.2500 S.3       2 MET2        0.0000 
     12 CE        118.2460  233.3820   42.5890 C.3       2 MET2        0.0000 
     13 N         118.3680  230.5140   47.1530 N.am      3 PRO3        0.0000 
     14 CA        119.7320  230.7360   47.6410 C.3       3 PRO3        0.0000 
     15 C         120.6300  231.2570   46.5400 C.2       3 PRO3        0.0000 
     16 O         120.5080  230.8620   45.3790 O.2       3 PRO3        0.0000 
     17 CB        120.1850  229.3360   48.1080 C.3       3 PRO3        0.0000 
     18 CG        119.3040  228.3970   47.3640 C.3       3 PRO3        0.0000 
     19 CD        117.9850  229.0750   47.1970 C.3       3 PRO3        0.0000 
     20 N         121.5500  232.1400   46.9230 N.am      4 ARG4        0.0000 
     21 CA        122.5170  232.7410   46.0160 C.3       4 ARG4        0.0000 
     22 C         123.8650  232.7520   46.6970 C.2       4 ARG4        0.0000 
     23 O         123.9610  232.9840   47.9060 O.2       4 ARG4        0.0000 
     24 CB        122.2060  234.2130   45.6550 C.3       4 ARG4        0.0000 
     25 CG        121.1540  234.4180   44.6030 C.3       4 ARG4        0.0000 
     26 CD        120.9140  235.9520   44.4760 C.3       4 ARG4        0.0000 
     27 NE        120.0810  236.3220   43.3420 N.pl3     4 ARG4        0.0000 
     28 CZ        118.8040  236.6800   43.4420 C.cat     4 ARG4        0.0000 
     29 NH1       118.2070  236.6900   44.6190 N.pl3     4 ARG4        0.0000 
     30 NH2       118.1180  237.0160   42.3560 N.pl3     4 ARG4        0.0000 
     31 N         124.9110  232.5560   45.9110 N.am      5 GLY5        0.0000 
     32 CA        126.2260  232.5960   46.5090 C.3       5 GLY5        0.0000 
     33 C         127.3390  232.7030   45.4920 C.2       5 GLY5        0.0000 
     34 O         127.1660  232.3650   44.3200 O.2       5 GLY5        0.0000 
     35 N         128.4920  233.1710   45.9440 N.am      6 ALA6        0.0000 
     36 CA        129.6980  233.1540   45.1390 C.3       6 ALA6        0.0000 
     37 C         130.9080  232.9450   46.0520 C.2       6 ALA6        0.0000 
     38 O         131.9360  232.4130   45.6110 O.2       6 ALA6        0.0000 
     39 CB        129.8350  234.4480   44.3350 C.3       6 ALA6        0.0000 
@<TRIPOS>BOND
     1    1    2 1    
     2    2    3 1    
     3    3    4 2    
     4    3    5 am   
     5    5    6 1    
     6    6    7 1    
     7    6    9 1    
     8    7    8 2    
     9    7   13 am   
    10    9   10 1    
    11   10   11 1    
    12   11   12 1    
    13   13   14 1    
    14   13   19 1    
    15   14   15 1    
    16   14   17 1    
    17   15   16 2    
    18   15   20 am   
    19   17   18 1    
    20   18   19 1    
    21   20   21 1    
    22   21   22 1    
    23   21   24 1    
    24   22   23 2    
    25   22   31 am   
    26   24   25 1    
    27   25   26 1    
    28   26   27 1    
    29   27   28 ar   
    30   28   29 ar   
    31   28   30 ar   
    32   31   32 1    
    33   32   33 1    
    34   33   34 2    
    35   33   35 am   
    36   35   36 1    
    37   36   37 1    
    38   36   39 1    
    39   37   38 2    
@<TRIPOS>SUBSTRUCTURE
     1 GLY1        1 RESIDUE 
     2 MET2        5 RESIDUE 
     3 PRO3       13 RESIDUE 
     4 ARG4       20 RESIDUE 
     5 GLY5       31 RESIDUE 
     6 ALA6       35 RESIDUE 
@<TRIPOS>SET

