#    Name: 6h6x_1_4LU
#    Modification time : Fri May 22 19:25:14 2020

@<TRIPOS>MOLECULE
6h6x_1_4LU
   36    39     1     0     0
SMALL
NO_CHARGES


@<TRIPOS>ATOM
      1 C9         19.0390  -26.3740  -66.1970           1 4LU503      0.0000 
      2 C8         20.1830  -25.5810  -65.8830           1 4LU503      0.0000 
      3 C7         21.4400  -26.1400  -65.6300           1 4LU503      0.0000 
      4 C10        18.1100  -29.9510  -66.8910           1 4LU503      0.0000 
      5 C6         21.5170  -27.6460  -65.4490           1 4LU503      0.0000 
      6 N3         18.5250  -32.4460  -68.0710           1 4LU503      0.0000 
      7 C2         17.2910  -31.8500  -68.1330           1 4LU503      0.0000 
      8 C13        24.0830  -27.9170  -64.5750           1 4LU503      0.0000 
      9 C5         22.8150  -28.4660  -65.1970           1 4LU503      0.0000 
     10 C1         21.4340  -30.5030  -65.2070           1 4LU503      0.0000 
     11 O2         16.3420  -32.4380  -68.7390           1 4LU503      0.0000 
     12 N1         17.0950  -30.6230  -67.5640           1 4LU503      0.0000 
     13 C4         19.5890  -31.8690  -67.4370           1 4LU503      0.0000 
     14 O4         20.7090  -32.4410  -67.4180           1 4LU503      0.0000 
     15 C4A        19.3980  -30.5260  -66.7840           1 4LU503      0.0000 
     16 N5         20.4650  -29.8250  -66.1300           1 4LU503      0.0000 
     17 C3         22.6590  -29.9470  -65.1670           1 4LU503      0.0000 
     18 C12        23.3740  -28.4930  -66.6490           1 4LU503      0.0000 
     19 C5A        20.3730  -28.4190  -65.9420           1 4LU503      0.0000 
     20 C7M        22.6330  -25.2490  -65.2880           1 4LU503      0.0000 
     21 C8M        19.9510  -24.0940  -65.9120           1 4LU503      0.0000 
     22 C9A        19.0500  -27.7850  -66.2010           1 4LU503      0.0000 
     23 N10        17.9050  -28.6600  -66.3390           1 4LU503      0.0000 
     24 C1'        16.5460  -28.1270  -66.4160           1 4LU503      0.0000 
     25 C2'        16.0120  -27.7310  -67.8120           1 4LU503      0.0000 
     26 O2'        16.9560  -27.0010  -68.6020           1 4LU503      0.0000 
     27 C3'        14.8020  -26.8340  -67.6040           1 4LU503      0.0000 
     28 O3'        13.9070  -27.4510  -66.6750           1 4LU503      0.0000 
     29 C4'        14.1100  -26.4840  -68.9250           1 4LU503      0.0000 
     30 O4'        13.2550  -25.3030  -68.8550           1 4LU503      0.0000 
     31 C5'        13.2570  -27.5880  -69.5270           1 4LU503      0.0000 
     32 O5'        12.7750  -26.9280  -70.7170           1 4LU503      0.0000 
     33 P          11.4820  -27.4400  -71.5590           1 4LU503      0.0000 
     34 O2P        11.4410  -26.6180  -72.8600           1 4LU503      0.0000 
     35 O3P        11.7640  -28.9340  -71.8910           1 4LU503      0.0000 
     36 O1P        10.2940  -27.1470  -70.6410           1 4LU503      0.0000 
@<TRIPOS>BOND
     1    1    2 du   
     2    1   22 du   
     3    2    3 du   
     4    2   21 du   
     5    3    5 du   
     6    3   20 du   
     7    4   12 du   
     8    4   15 du   
     9    4   23 du   
    10    5    9 du   
    11    5   19 du   
    12    6    7 du   
    13    6   13 du   
    14    7   11 du   
    15    7   12 du   
    16    8    9 du   
    17    9   17 du   
    18    9   18 du   
    19   10   16 du   
    20   10   17 du   
    21   13   14 du   
    22   13   15 du   
    23   15   16 du   
    24   16   19 du   
    25   19   22 du   
    26   22   23 du   
    27   23   24 du   
    28   24   25 du   
    29   25   26 du   
    30   25   27 du   
    31   27   28 du   
    32   27   29 du   
    33   29   30 du   
    34   29   31 du   
    35   31   32 du   
    36   32   33 du   
    37   33   34 du   
    38   33   35 du   
    39   33   36 du   
@<TRIPOS>SUBSTRUCTURE
     1 4LU503      1 GROUP   
@<TRIPOS>SET

