#    Name: 6h6x_2_4LU
#    Modification time : Fri May 22 19:25:21 2020

@<TRIPOS>MOLECULE
6h6x_2_4LU
   36    39     1     0     0
SMALL
NO_CHARGES


@<TRIPOS>ATOM
      1 C9         18.5940  -10.9850  -19.0510           1 4LU503      0.0000 
      2 C8         19.5390  -10.1600  -19.7230           1 4LU503      0.0000 
      3 C7         19.2830   -8.8110  -20.0390           1 4LU503      0.0000 
      4 C10        15.2220  -10.6040  -17.4630           1 4LU503      0.0000 
      5 C6         17.8910   -8.3100  -19.9250           1 4LU503      0.0000 
      6 N3         13.3030   -9.2880  -15.9000           1 4LU503      0.0000 
      7 C2         13.5830  -10.6100  -15.7000           1 4LU503      0.0000 
      8 C13        18.0610   -5.8160  -21.1770           1 4LU503      0.0000 
      9 C5         17.4300   -6.8660  -20.2770           1 4LU503      0.0000 
     10 C1         15.1140   -7.6330  -19.6570           1 4LU503      0.0000 
     11 O2         12.9360  -11.2240  -14.8020           1 4LU503      0.0000 
     12 N1         14.5290  -11.2380  -16.4740           1 4LU503      0.0000 
     13 C4         13.9450   -8.5610  -16.8350           1 4LU503      0.0000 
     14 O4         13.6930   -7.3490  -16.9310           1 4LU503      0.0000 
     15 C4A        14.9930   -9.2450  -17.6850           1 4LU503      0.0000 
     16 N5         15.7560   -8.5630  -18.6720           1 4LU503      0.0000 
     17 C3         15.9430   -6.7690  -20.2830           1 4LU503      0.0000 
     18 C12        17.8150   -6.0940  -18.9610           1 4LU503      0.0000 
     19 C5A        17.0020   -9.1030  -19.0810           1 4LU503      0.0000 
     20 C7M        20.2730   -7.9620  -20.7500           1 4LU503      0.0000 
     21 C8M        20.8870  -10.7990  -19.9550           1 4LU503      0.0000 
     22 C9A        17.3100  -10.5090  -18.7500           1 4LU503      0.0000 
     23 N10        16.2260  -11.2730  -18.2190           1 4LU503      0.0000 
     24 C1'        16.4220  -12.7000  -17.9540           1 4LU503      0.0000 
     25 C2'        17.0880  -13.0930  -16.6020           1 4LU503      0.0000 
     26 O2'        18.2260  -12.2590  -16.1630           1 4LU503      0.0000 
     27 C3'        17.5240  -14.5660  -16.7670           1 4LU503      0.0000 
     28 O3'        16.4820  -15.4550  -17.2360           1 4LU503      0.0000 
     29 C4'        18.0030  -15.0860  -15.4240           1 4LU503      0.0000 
     30 O4'        18.7880  -16.2670  -15.6380           1 4LU503      0.0000 
     31 C5'        16.8830  -15.4700  -14.4320           1 4LU503      0.0000 
     32 O5'        17.6270  -15.9390  -13.2900           1 4LU503      0.0000 
     33 P          17.0650  -16.9740  -12.1860           1 4LU503      0.0000 
     34 O2P        18.0840  -16.8860  -11.0990           1 4LU503      0.0000 
     35 O3P        15.6910  -16.4580  -11.7380           1 4LU503      0.0000 
     36 O1P        16.9850  -18.3340  -12.8800           1 4LU503      0.0000 
@<TRIPOS>BOND
     1    1    2 du   
     2    1   22 du   
     3    2    3 du   
     4    2   21 du   
     5    3    5 du   
     6    3   20 du   
     7    4   12 du   
     8    4   15 du   
     9    4   23 du   
    10    5    9 du   
    11    5   19 du   
    12    6    7 du   
    13    6   13 du   
    14    7   11 du   
    15    7   12 du   
    16    8    9 du   
    17    9   17 du   
    18    9   18 du   
    19   10   16 du   
    20   10   17 du   
    21   13   14 du   
    22   13   15 du   
    23   15   16 du   
    24   16   19 du   
    25   19   22 du   
    26   22   23 du   
    27   23   24 du   
    28   24   25 du   
    29   25   26 du   
    30   25   27 du   
    31   27   28 du   
    32   27   29 du   
    33   29   30 du   
    34   29   31 du   
    35   31   32 du   
    36   32   33 du   
    37   33   34 du   
    38   33   35 du   
    39   33   36 du   
@<TRIPOS>SUBSTRUCTURE
     1 4LU503      1 GROUP   
@<TRIPOS>SET

