#    Name: 6bs5_1_ANP
#    Modification time : Fri May 22 19:34:47 2020

@<TRIPOS>MOLECULE
6bs5_1_ANP
   31    33     1     0     1
SMALL
NO_CHARGES


@<TRIPOS>ATOM
      1 PG         75.6170   41.0800   12.4790 P.3       1 ANP401      0.0000 
      2 O1G        75.9780   40.1790   13.6020 O.co2     1 ANP401      0.0000 
      3 O2G        74.1820   41.3890   12.4090 O.co2     1 ANP401      0.0000 
      4 O3G        76.2910   40.7280   11.1790 O.co2     1 ANP401      0.0000 
      5 PB         77.6700   43.2250   12.3080 P.3       1 ANP401      0.0000 
      6 O1B        78.5980   43.2040   13.4400 O.co2     1 ANP401      0.0000 
      7 O2B        78.0600   42.5280   11.0580 O.co2     1 ANP401      0.0000 
      8 N3B        76.1820   42.6390   12.9020 N.3       1 ANP401      0.0000 
      9 PA         77.4550   45.4440   10.5800 P.3       1 ANP401      0.0000 
     10 O1A        76.3530   44.9630    9.7970 O.co2     1 ANP401      0.0000 
     11 O2A        78.7400   45.7400    9.9390 O.co2     1 ANP401      0.0000 
     12 O3A        77.5720   44.7490   11.9730 O.3       1 ANP401      0.0000 
     13 O5'        77.0820   46.8900   11.0070 O.3       1 ANP401      0.0000 
     14 C5'        75.8640   47.1980   11.6210 C.3       1 ANP401      0.0000 
     15 C4'        75.4260   48.5090   11.0320 C.3       1 ANP401      0.0000 
     16 O4'        76.3620   49.5080   11.3640 O.3       1 ANP401      0.0000 
     17 C3'        75.4490   48.4440    9.5450 C.3       1 ANP401      0.0000 
     18 O3'        74.2580   49.0290    9.0770 O.3       1 ANP401      0.0000 
     19 C2'        76.6640   49.2200    9.1350 C.3       1 ANP401      0.0000 
     20 O2'        76.4680   49.7170    7.8240 O.3       1 ANP401      0.0000 
     21 C1'        76.7890   50.2380   10.2390 C.3       1 ANP401      0.0000 
     22 N9         78.1390   50.6860   10.6160 N.pl3     1 ANP401      0.0000 
     23 C8         79.1530   49.9070   10.9550 C.2       1 ANP401      0.0000 
     24 N7         80.2420   50.6260   11.2670 N.2       1 ANP401      0.0000 
     25 C5         79.9140   51.9010   11.1370 C.ar      1 ANP401      0.0000 
     26 C6         80.5760   53.1700   11.3290 C.ar      1 ANP401      0.0000 
     27 N6         81.8550   53.2680   11.7220 N.pl3     1 ANP401      0.0000 
     28 N1         79.8600   54.2430   11.0900 N.ar      1 ANP401      0.0000 
     29 C2         78.5950   54.2300   10.7220 C.ar      1 ANP401      0.0000 
     30 N3         77.9350   53.1130   10.5370 N.ar      1 ANP401      0.0000 
     31 C4         78.5280   51.9370   10.7270 C.ar      1 ANP401      0.0000 
@<TRIPOS>BOND
     1    1    2 ar   
     2    1    3 ar   
     3    1    4 ar   
     4    1    8 1    
     5    5    6 ar   
     6    5    7 ar   
     7    5    8 1    
     8    5   12 1    
     9    9   10 ar   
    10    9   11 ar   
    11    9   12 1    
    12    9   13 1    
    13   13   14 1    
    14   14   15 1    
    15   15   16 1    
    16   15   17 1    
    17   16   21 1    
    18   17   18 1    
    19   17   19 1    
    20   19   20 1    
    21   19   21 1    
    22   21   22 1    
    23   22   23 1    
    24   22   31 1    
    25   23   24 2    
    26   24   25 1    
    27   25   26 ar   
    28   25   31 ar   
    29   26   27 1    
    30   26   28 ar   
    31   28   29 ar   
    32   29   30 ar   
    33   30   31 ar   
@<TRIPOS>SUBSTRUCTURE
     1 ANP401      1 GROUP   
@<TRIPOS>SET
ATOM$ORANGE STATIC     ATOMS   COLORGROUP SYSTEM 
20 14 14 15 15 17 17 19 19 21 21 23 23 25 25 26 26 29 \
29 31 31 

