#    Name: 5y80_1_IRE
#    Modification time : Fri May 22 19:12:26 2020

@<TRIPOS>MOLECULE
5y80_1_IRE
   31    34     1     0     0
SMALL
NO_CHARGES


@<TRIPOS>ATOM
      1 CAO        -9.1650  -11.5680   23.2730 C.3       1 IRE401      0.0000 
      2 CAL        -7.6530  -11.5410   23.1590 C.3       1 IRE401      0.0000 
      3 OAU        -7.1070  -12.6730   23.8150 O.3       1 IRE401      0.0000 
      4 CAM        -7.6490  -13.9010   23.3590 C.3       1 IRE401      0.0000 
      5 CAP        -9.1770  -13.8840   23.3950 C.3       1 IRE401      0.0000 
      6 NBE        -9.5930  -12.7630   22.5250 N.4       1 IRE401      0.0000 
      7 CAN       -11.0760  -12.7010   22.5470 C.3       1 IRE401      0.0000 
      8 CAJ       -11.5090  -12.7110   21.0680 C.3       1 IRE401      0.0000 
      9 CAK       -12.3940  -13.9470   20.7810 C.3       1 IRE401      0.0000 
     10 OAV       -12.1860  -14.5400   19.4830 O.3       1 IRE401      0.0000 
     11 CBA       -13.2900  -14.8510   18.6820 C.ar      1 IRE401      0.0000 
     12 CAZ       -13.1990  -15.4990   17.3810 C.ar      1 IRE401      0.0000 
     13 CAH       -14.3590  -15.7620   16.6650 C.ar      1 IRE401      0.0000 
     14 OAT       -11.9400  -15.8340   16.9120 O.3       1 IRE401      0.0000 
     15 CAA       -11.7690  -17.0940   16.2370 C.3       1 IRE401      0.0000 
     16 CAI       -14.5820  -14.5310   19.1210 C.ar      1 IRE401      0.0000 
     17 C5        -15.8060  -14.7880   18.4020 C.ar      1 IRE401      0.0000 
     18 C4        -15.6890  -15.4220   17.1360 C.ar      1 IRE401      0.0000 
     19 N3        -16.8320  -15.7150   16.3640 N.pl3     1 IRE401      0.0000 
     20 C2        -18.0240  -15.3700   16.8690 C.2       1 IRE401      0.0000 
     21 N1        -18.2560  -14.7460   18.0930 N.2       1 IRE401      0.0000 
     22 C6        -17.1720  -14.4480   18.8670 C.2       1 IRE401      0.0000 
     23 NAS       -17.4180  -13.8140   20.1170 N.2       1 IRE401      0.0000 
     24 CAY       -18.6610  -13.7670   20.8760 C.ar      1 IRE401      0.0000 
     25 CAG       -19.5560  -14.8480   20.9280 C.ar      1 IRE401      0.0000 
     26 CAX       -20.7420  -14.8280   21.6390 C.ar      1 IRE401      0.0000 
     27 CL        -21.8050  -16.2150   21.6450 Cl        1 IRE401      0.0000 
     28 CAW       -21.1240  -13.6920   22.3780 C.ar      1 IRE401      0.0000 
     29 FAB       -22.2140  -13.6330   23.0530 F         1 IRE401      0.0000 
     30 CAD       -20.2410  -12.6090   22.3410 C.ar      1 IRE401      0.0000 
     31 CAE       -19.0520  -12.6390   21.6180 C.ar      1 IRE401      0.0000 
@<TRIPOS>BOND
     1    1    2 1    
     2    1    6 1    
     3    2    3 1    
     4    3    4 1    
     5    4    5 1    
     6    5    6 1    
     7    6    7 1    
     8    7    8 1    
     9    8    9 1    
    10    9   10 1    
    11   10   11 1    
    12   11   12 ar   
    13   11   16 ar   
    14   12   13 ar   
    15   12   14 1    
    16   13   18 ar   
    17   14   15 1    
    18   16   17 ar   
    19   17   18 ar   
    20   17   22 1    
    21   18   19 1    
    22   19   20 1    
    23   20   21 2    
    24   21   22 1    
    25   22   23 2    
    26   23   24 1    
    27   24   25 ar   
    28   24   31 ar   
    29   25   26 ar   
    30   26   27 1    
    31   26   28 ar   
    32   28   29 1    
    33   28   30 ar   
    34   30   31 ar   
@<TRIPOS>SUBSTRUCTURE
     1 IRE401      1 GROUP   
@<TRIPOS>SET

