#    Name: 5y80_2_IRE
#    Modification time : Fri May 22 19:12:32 2020

@<TRIPOS>MOLECULE
5y80_2_IRE
   31    34     1     0     0
SMALL
NO_CHARGES


@<TRIPOS>ATOM
      1 CAO       -26.2330   -7.4640   32.7320 C.3       1 IRE402      0.0000 
      2 CAL       -25.7010   -8.7220   33.4110 C.3       1 IRE402      0.0000 
      3 OAU       -24.4440   -9.0710   32.8540 O.3       1 IRE402      0.0000 
      4 CAM       -24.4910   -9.1040   31.4450 C.3       1 IRE402      0.0000 
      5 CAP       -24.7920   -7.7080   30.8960 C.3       1 IRE402      0.0000 
      6 NBE       -25.0700   -6.8300   32.0750 N.4       1 IRE402      0.0000 
      7 CAN       -25.5850   -5.5220   31.5440 C.3       1 IRE402      0.0000 
      8 CAJ       -26.1090   -4.7080   32.7610 C.3       1 IRE402      0.0000 
      9 CAK       -26.1430   -3.1940   32.4070 C.3       1 IRE402      0.0000 
     10 OAV       -24.8850   -2.6860   31.8910 O.3       1 IRE402      0.0000 
     11 CBA       -24.7980   -1.3820   31.3970 C.ar      1 IRE402      0.0000 
     12 CAZ       -23.7560   -0.9280   30.4840 C.ar      1 IRE402      0.0000 
     13 CAH       -23.7570    0.3870   30.0480 C.ar      1 IRE402      0.0000 
     14 OAT       -22.7940   -1.8460   30.0820 O.3       1 IRE402      0.0000 
     15 CAA       -21.6790   -1.3900   29.2960 C.3       1 IRE402      0.0000 
     16 CAI       -25.7460   -0.4220   31.7740 C.ar      1 IRE402      0.0000 
     17 C5        -25.7740    0.9550   31.3390 C.ar      1 IRE402      0.0000 
     18 C4        -24.7440    1.3660   30.4480 C.ar      1 IRE402      0.0000 
     19 N3        -24.6830    2.6880   29.9690 N.pl3     1 IRE402      0.0000 
     20 C2        -25.6350    3.5350   30.3850 C.2       1 IRE402      0.0000 
     21 N1        -26.6900    3.2450   31.2530 N.2       1 IRE402      0.0000 
     22 C6        -26.7820    1.9760   31.7410 C.2       1 IRE402      0.0000 
     23 NAS       -27.8670    1.6720   32.6350 N.2       1 IRE402      0.0000 
     24 CAY       -28.9160    2.5280   33.2310 C.ar      1 IRE402      0.0000 
     25 CAG       -29.0070    3.9250   33.0390 C.ar      1 IRE402      0.0000 
     26 CAX       -30.0010    4.7180   33.6070 C.ar      1 IRE402      0.0000 
     27 CL        -30.0570    6.4360   33.3300 Cl        1 IRE402      0.0000 
     28 CAW       -30.9960    4.1560   34.4280 C.ar      1 IRE402      0.0000 
     29 FAB       -31.9290    4.8530   34.9680 F         1 IRE402      0.0000 
     30 CAD       -30.9200    2.7770   34.6270 C.ar      1 IRE402      0.0000 
     31 CAE       -29.9210    1.9890   34.0540 C.ar      1 IRE402      0.0000 
@<TRIPOS>BOND
     1    1    2 1    
     2    1    6 1    
     3    2    3 1    
     4    3    4 1    
     5    4    5 1    
     6    5    6 1    
     7    6    7 1    
     8    7    8 1    
     9    8    9 1    
    10    9   10 1    
    11   10   11 1    
    12   11   12 ar   
    13   11   16 ar   
    14   12   13 ar   
    15   12   14 1    
    16   13   18 ar   
    17   14   15 1    
    18   16   17 ar   
    19   17   18 ar   
    20   17   22 1    
    21   18   19 1    
    22   19   20 1    
    23   20   21 2    
    24   21   22 1    
    25   22   23 2    
    26   23   24 1    
    27   24   25 ar   
    28   24   31 ar   
    29   25   26 ar   
    30   26   27 1    
    31   26   28 ar   
    32   28   29 1    
    33   28   30 ar   
    34   30   31 ar   
@<TRIPOS>SUBSTRUCTURE
     1 IRE402      1 GROUP   
@<TRIPOS>SET

