#    Name: 6jwt_2_PT1
#    Modification time : Fri May 22 19:34:23 2020

@<TRIPOS>MOLECULE
6jwt_2_PT1
   23    25     1     0     0
SMALL
NO_CHARGES


@<TRIPOS>ATOM
      1 C2         15.4930   66.0010   25.9850 C.ar      1 PT1803      0.0000 
      2 C3         15.6830   65.9300   24.5230 C.ar      1 PT1803      0.0000 
      3 C5         16.9740   65.5180   24.0340 C.ar      1 PT1803      0.0000 
      4 N6         14.7260   66.1800   23.6170 N.ar      1 PT1803      0.0000 
      5 C7         17.7000   65.3020   26.3070 C.ar      1 PT1803      0.0000 
      6 N9         17.9270   65.2410   24.9710 N.ar      1 PT1803      0.0000 
      7 C10        14.9700   66.0760   22.2620 C.ar      1 PT1803      0.0000 
      8 N11        18.7430   64.9730   27.1410 N.pl3     1 PT1803      0.0000 
      9 C12        16.2170   65.7120   21.7920 C.ar      1 PT1803      0.0000 
     10 C21         7.3020   66.4300   21.8750 C.2       1 PT1803      0.0000 
     11 O22         6.8010   67.4100   21.2340 O.co2     1 PT1803      0.0000 
     12 O1         14.2940   66.3600   26.4920 O.3       1 PT1803      0.0000 
     13 N4         16.4830   65.6850   26.8170 N.ar      1 PT1803      0.0000 
     14 N8         17.1810   65.4400   22.6570 N.ar      1 PT1803      0.0000 
     15 C13        13.8660   66.3590   21.2570 C.3       1 PT1803      0.0000 
     16 N14        12.8870   65.2730   21.3650 N.pl3     1 PT1803      0.0000 
     17 C15        11.5670   65.5410   21.4970 C.ar      1 PT1803      0.0000 
     18 C16        10.7380   64.7140   22.2760 C.ar      1 PT1803      0.0000 
     19 C17        10.9890   66.6370   20.8170 C.ar      1 PT1803      0.0000 
     20 C18         9.3340   65.0000   22.4260 C.ar      1 PT1803      0.0000 
     21 C19         9.6040   66.8920   20.9570 C.ar      1 PT1803      0.0000 
     22 C20         8.7750   66.0930   21.7620 C.ar      1 PT1803      0.0000 
     23 O23         6.5690   65.7660   22.6240 O.co2     1 PT1803      0.0000 
@<TRIPOS>BOND
     1    1    2 ar   
     2    1   12 1    
     3    1   13 ar   
     4    2    3 ar   
     5    2    4 ar   
     6    3    6 ar   
     7    3   14 ar   
     8    4    7 ar   
     9    5    6 ar   
    10    5    8 1    
    11    5   13 ar   
    12    7    9 ar   
    13    7   15 1    
    14    9   14 ar   
    15   10   11 ar   
    16   10   22 1    
    17   10   23 ar   
    18   15   16 1    
    19   16   17 1    
    20   17   18 ar   
    21   17   19 ar   
    22   18   20 ar   
    23   19   21 ar   
    24   20   22 ar   
    25   21   22 ar   
@<TRIPOS>SUBSTRUCTURE
     1 PT1803      1 GROUP   
@<TRIPOS>SET

