#    Name: 6jwt_2_PT1_CAVITY_N1_4
#    Modification time : Fri May 22 19:34:24 2020

@<TRIPOS>MOLECULE
6jwt_2_PT1_CAVITY_N1_4
   70     0     7     0     0
SMALL
NO_CHARGES


@<TRIPOS>ATOM
      1 OG         12.2800   69.3900   19.1500 O.3       1 SER1        0.0000 
      2 N          10.2000   69.5300   19.5400 N.am      2 ALA2        0.0000 
      3 N          11.4200   70.2600   20.0100 N.am      2 ALA2        0.0000 
      4 N          11.5700   69.2900   21.1400 N.am      2 ALA2        0.0000 
      5 O          13.4400   66.5700   20.5400 O.2       2 ALA2        0.0000 
      6 O          14.1500   66.6700   18.5500 O.2       2 ALA2        0.0000 
      7 O          14.3000   65.7000   19.6800 O.2       2 ALA2        0.0000 
      8 O          15.0100   65.8000   17.6800 O.2       2 ALA2        0.0000 
      9 O          16.2300   66.5300   18.1600 O.2       2 ALA2        0.0000 
     10 O          16.3800   65.5600   19.2900 O.2       2 ALA2        0.0000 
     11 N          17.2400   64.6900   18.4200 N.am      2 ALA2        0.0000 
     12 O          18.3900   64.9700   24.4900 O.2       2 ALA2        0.0000 
     13 OD1        13.6500   69.1500   20.7500 O.co2     3 ASP3        0.0000 
     14 OD1        14.0900   66.2200   24.1400 O.co2     3 ASP3        0.0000 
     15 OD1        14.5100   68.2800   19.8900 O.co2     3 ASP3        0.0000 
     16 OD1        14.6600   67.3000   21.0200 O.co2     3 ASP3        0.0000 
     17 OD1        14.8000   66.3200   22.1500 O.co2     3 ASP3        0.0000 
     18 OD1        15.3700   67.4100   19.0200 O.co2     3 ASP3        0.0000 
     19 OD1        15.5200   66.4300   20.1500 O.co2     3 ASP3        0.0000 
     20 OD1        15.6600   65.4500   21.2800 O.co2     3 ASP3        0.0000 
     21 OD1        15.3100   66.9500   24.6200 O.co2     3 ASP3        0.0000 
     22 OD1        15.4500   65.9800   25.7400 O.co2     3 ASP3        0.0000 
     23 OD1        16.1700   66.0800   23.7500 O.co2     3 ASP3        0.0000 
     24 OD1        16.5900   68.1400   19.5000 O.co2     3 ASP3        0.0000 
     25 OD1        16.8800   66.1900   21.7600 O.co2     3 ASP3        0.0000 
     26 OD1        17.5300   65.8400   25.3600 O.co2     3 ASP3        0.0000 
     27 NZ         17.0300   65.2100   22.8900 N.4       4 LYS4        0.0000 
     28 NZ         17.6000   66.2900   19.7600 N.4       4 LYS4        0.0000 
     29 NZ         18.4600   65.4200   18.9000 N.4       4 LYS4        0.0000 
     30 NZ         16.6700   66.7100   26.2200 N.4       4 LYS4        0.0000 
     31 NZ         17.6800   64.8600   26.4800 N.4       4 LYS4        0.0000 
     32 CZ          8.9800   68.8000   19.0600 C.ar      5 PHE5        0.0000 
     33 CZ          9.1300   67.8200   20.1900 C.ar      5 PHE5        0.0000 
     34 CZ          9.8400   67.9300   18.2000 C.ar      5 PHE5        0.0000 
     35 CZ         10.4300   64.0200   22.7100 C.ar      5 PHE5        0.0000 
     36 CZ         10.7000   67.0500   17.3300 C.ar      5 PHE5        0.0000 
     37 CZ         13.5800   65.5900   21.6700 C.ar      5 PHE5        0.0000 
     38 CZ         14.3600   69.2500   18.7600 C.ar      5 PHE5        0.0000 
     39 CZ         14.9500   65.3500   23.2700 C.ar      5 PHE5        0.0000 
     40 CZ         15.8100   64.4800   22.4100 C.ar      5 PHE5        0.0000 
     41 CA          8.0600   66.1100   20.8400 C.3       6 GLY6        0.0000 
     42 CA          8.2000   65.1400   21.9700 C.3       6 GLY6        0.0000 
     43 CA          9.0600   64.2600   21.1100 C.3       6 GLY6        0.0000 
     44 CA          9.2700   66.8400   21.3200 C.3       6 GLY6        0.0000 
     45 CA          9.4200   65.8700   22.4500 C.3       6 GLY6        0.0000 
     46 CA          9.9900   66.9500   19.3200 C.3       6 GLY6        0.0000 
     47 CA         10.1400   65.9700   20.4500 C.3       6 GLY6        0.0000 
     48 CA         10.2800   65.0000   21.5800 C.3       6 GLY6        0.0000 
     49 CA         11.1400   64.1300   20.7200 C.3       6 GLY6        0.0000 
     50 CA         10.3500   68.5500   20.6700 C.3       6 GLY6        0.0000 
     51 CA         10.4900   67.5800   21.7900 C.3       6 GLY6        0.0000 
     52 CA         11.2100   67.6800   19.8000 C.3       6 GLY6        0.0000 
     53 CA         11.3600   66.7100   20.9300 C.3       6 GLY6        0.0000 
     54 CA         11.5000   65.7300   22.0600 C.3       6 GLY6        0.0000 
     55 CA         11.9200   67.7900   17.8100 C.3       6 GLY6        0.0000 
     56 CA         12.0700   66.8100   18.9400 C.3       6 GLY6        0.0000 
     57 CA         12.2200   65.8300   20.0600 C.3       6 GLY6        0.0000 
     58 CA         12.3600   64.8600   21.1900 C.3       6 GLY6        0.0000 
     59 CA         12.5700   67.4400   21.4100 C.3       6 GLY6        0.0000 
     60 CA         12.7200   66.4600   22.5300 C.3       6 GLY6        0.0000 
     61 CA         14.4400   64.7200   20.8000 C.3       6 GLY6        0.0000 
     62 CA         13.9400   67.2000   23.0100 C.3       6 GLY6        0.0000 
     63 CA         16.5200   64.5800   20.4100 C.3       6 GLY6        0.0000 
     64 CA         16.3100   65.1000   24.8800 C.3       6 GLY6        0.0000 
     65 CA         17.1700   64.2300   24.0100 C.3       6 GLY6        0.0000 
     66 CA         17.4500   67.2700   18.6300 C.3       6 GLY6        0.0000 
     67 DU         11.0600   68.6600   18.6700 H         7 CUB7        0.0000 
     68 DU         12.4300   68.4200   20.2800 H         7 CUB7        0.0000 
     69 DU         13.1400   68.5200   18.2800 H         7 CUB7        0.0000 
     70 DU         13.2900   67.5400   19.4100 H         7 CUB7        0.0000 
@<TRIPOS>BOND
@<TRIPOS>SUBSTRUCTURE
     1 SER1        1 GROUP   
     2 ALA2        2 GROUP   
     3 ASP3       13 GROUP   
     4 LYS4       27 GROUP   
     5 PHE5       32 GROUP   
     6 GLY6       41 GROUP   
     7 CUB7       67 GROUP   
@<TRIPOS>SET

