#    Name: 6jwt_1_PT1
#    Modification time : Fri May 22 19:34:18 2020

@<TRIPOS>MOLECULE
6jwt_1_PT1
   23    25     1     0     0
SMALL
NO_CHARGES


@<TRIPOS>ATOM
      1 C2          1.8410  102.0690   35.7510 C.ar      1 PT1804      0.0000 
      2 C3          1.7500  102.8870   34.5750 C.ar      1 PT1804      0.0000 
      3 C5          0.4590  103.5410   34.3230 C.ar      1 PT1804      0.0000 
      4 N6          2.8330  103.0440   33.7560 N.ar      1 PT1804      0.0000 
      5 C7         -0.3570  102.5310   36.2690 C.ar      1 PT1804      0.0000 
      6 N9         -0.5470  103.3000   35.1760 N.ar      1 PT1804      0.0000 
      7 C10         2.6470  103.8610   32.6890 C.ar      1 PT1804      0.0000 
      8 N11        -1.4010  102.3630   37.1380 N.pl3     1 PT1804      0.0000 
      9 C12         1.3980  104.4730   32.4220 C.ar      1 PT1804      0.0000 
     10 C21        10.2830  103.7860   32.3430 C.2       1 PT1804      0.0000 
     11 O22        10.6860  103.2710   31.2810 O.co2     1 PT1804      0.0000 
     12 O1          3.0170  101.5030   35.9600 O.3       1 PT1804      0.0000 
     13 N4          0.8130  101.9090   36.5480 N.ar      1 PT1804      0.0000 
     14 N8          0.3450  104.3270   33.2190 N.ar      1 PT1804      0.0000 
     15 C13         3.8150  104.0830   31.7630 C.3       1 PT1804      0.0000 
     16 N14         4.7460  105.0210   32.4220 N.pl3     1 PT1804      0.0000 
     17 C15         6.1020  104.7720   32.4310 C.ar      1 PT1804      0.0000 
     18 C16         6.8950  105.0810   33.5480 C.ar      1 PT1804      0.0000 
     19 C17         6.6880  104.1830   31.2970 C.ar      1 PT1804      0.0000 
     20 C18         8.2750  104.7870   33.5500 C.ar      1 PT1804      0.0000 
     21 C19         8.0510  103.8710   31.3340 C.ar      1 PT1804      0.0000 
     22 C20         8.8340  104.1680   32.4260 C.ar      1 PT1804      0.0000 
     23 O23        11.0720  103.9050   33.3220 O.co2     1 PT1804      0.0000 
@<TRIPOS>BOND
     1    1    2 ar   
     2    1   12 1    
     3    1   13 ar   
     4    2    3 ar   
     5    2    4 ar   
     6    3    6 ar   
     7    3   14 ar   
     8    4    7 ar   
     9    5    6 ar   
    10    5    8 1    
    11    5   13 ar   
    12    7    9 ar   
    13    7   15 1    
    14    9   14 ar   
    15   10   11 ar   
    16   10   22 1    
    17   10   23 ar   
    18   15   16 1    
    19   16   17 1    
    20   17   18 ar   
    21   17   19 ar   
    22   18   20 ar   
    23   19   21 ar   
    24   20   22 ar   
    25   21   22 ar   
@<TRIPOS>SUBSTRUCTURE
     1 PT1804      1 GROUP   
@<TRIPOS>SET

