#    Name: 6fw9_2_FAD
#    Modification time : Fri May 22 19:28:21 2020

@<TRIPOS>MOLECULE
6fw9_2_FAD
   53    59     1     0     1
SMALL
NO_CHARGES


@<TRIPOS>ATOM
      1 PA         34.9180   26.4890  -18.8660 P.3       1 FAD501      0.0000 
      2 O1A        35.6920   25.6910  -17.8440 O.co2     1 FAD501      0.0000 
      3 O2A        35.0730   27.9950  -18.7530 O.co2     1 FAD501      0.0000 
      4 O5B        33.4250   26.1030  -18.8030 O.3       1 FAD501      0.0000 
      5 C5B        33.1880   24.7280  -18.6530 C.3       1 FAD501      0.0000 
      6 C4B        31.7390   24.6710  -18.3840 C.3       1 FAD501      0.0000 
      7 O4B        31.3030   23.2500  -18.3470 O.3       1 FAD501      0.0000 
      8 C3B        31.4440   25.2780  -17.0790 C.3       1 FAD501      0.0000 
      9 O3B        30.3850   26.2410  -17.2520 O.3       1 FAD501      0.0000 
     10 C2B        31.0110   24.1990  -16.1710 C.3       1 FAD501      0.0000 
     11 O2B        29.9590   24.6910  -15.3220 O.3       1 FAD501      0.0000 
     12 C1B        30.4810   23.1900  -17.0980 C.3       1 FAD501      0.0000 
     13 N9A        30.4280   21.8420  -16.6920 N.pl3     1 FAD501      0.0000 
     14 C8A        31.2850   21.0200  -16.3640 Du        1 FAD501      0.0000 
     15 N7A        31.0120   19.9940  -16.1210 N.2       1 FAD501      0.0000 
     16 C5A        29.8720   19.6190  -16.1960 C.ar      1 FAD501      0.0000 
     17 C6A        28.7810   18.4840  -16.0550 C.ar      1 FAD501      0.0000 
     18 N6A        29.1240   17.1870  -15.6460 N.pl3     1 FAD501      0.0000 
     19 N1A        27.4250   18.8350  -16.3450 N.ar      1 FAD501      0.0000 
     20 C2A        27.1820   19.9930  -16.6800 C.ar      1 FAD501      0.0000 
     21 N3A        27.9090   20.9210  -16.8250 N.ar      1 FAD501      0.0000 
     22 C4A        29.0970   20.9770  -16.6740 C.ar      1 FAD501      0.0000 
     23 N1         42.1130   32.9300  -20.0550 N.2       1 FAD501      0.0000 
     24 C2         42.5650   34.0460  -20.8900 C.2       1 FAD501      0.0000 
     25 O2         42.4410   33.9130  -22.0690 O.2       1 FAD501      0.0000 
     26 N3         43.1290   35.2150  -20.3060 N.am      1 FAD501      0.0000 
     27 C4         43.2530   35.3420  -18.9470 C.2       1 FAD501      0.0000 
     28 O4         43.6900   36.3500  -18.4150 O.2       1 FAD501      0.0000 
     29 C4X        42.8160   34.2410  -18.1110 C.2       1 FAD501      0.0000 
     30 N5         42.9060   34.3240  -16.8050 N.2       1 FAD501      0.0000 
     31 C5X        42.4220   33.1870  -16.0010 C.ar      1 FAD501      0.0000 
     32 C6         42.5050   33.2590  -14.6170 C.ar      1 FAD501      0.0000 
     33 C7         42.0430   32.1980  -13.8360 C.ar      1 FAD501      0.0000 
     34 C7M        42.1610   32.3110  -12.3270 C.3       1 FAD501      0.0000 
     35 C8         41.4940   31.0760  -14.4390 C.ar      1 FAD501      0.0000 
     36 C8M        40.9790   29.8810  -13.6400 C.3       1 FAD501      0.0000 
     37 C9         41.4030   31.0060  -15.8170 C.ar      1 FAD501      0.0000 
     38 C9A        41.8690   32.0610  -16.6020 C.ar      1 FAD501      0.0000 
     39 N10        41.7530   31.9770  -18.0030 N.pl3     1 FAD501      0.0000 
     40 C10        42.2200   33.0370  -18.7670 C.2       1 FAD501      0.0000 
     41 C1'        41.1990   30.7700  -18.6970 C.3       1 FAD501      0.0000 
     42 C2'        39.7960   30.9180  -19.2470 C.3       1 FAD501      0.0000 
     43 O2'        38.9430   31.2470  -18.2070 O.3       1 FAD501      0.0000 
     44 C3'        39.4490   29.5520  -19.8510 C.3       1 FAD501      0.0000 
     45 O3'        40.3550   29.1800  -20.8560 O.3       1 FAD501      0.0000 
     46 C4'        38.0980   29.5210  -20.4880 C.3       1 FAD501      0.0000 
     47 O4'        37.1950   30.4140  -19.8620 O.3       1 FAD501      0.0000 
     48 C5'        37.6230   28.0690  -20.4160 C.3       1 FAD501      0.0000 
     49 O5'        36.5800   27.9950  -21.3600 O.3       1 FAD501      0.0000 
     50 P          35.6920   26.7160  -21.5720 P.3       1 FAD501      0.0000 
     51 O1P        34.3900   27.2340  -22.1410 O.co2     1 FAD501      0.0000 
     52 O2P        36.3570   25.7330  -22.4790 O.co2     1 FAD501      0.0000 
     53 O3P        35.3800   25.9040  -20.2490 O.3       1 FAD501      0.0000 
@<TRIPOS>BOND
     1    1    2 ar   
     2    1    3 ar   
     3    1    4 1    
     4    1   53 1    
     5    4    5 1    
     6    5    6 1    
     7    6    7 1    
     8    6    8 1    
     9    7   12 1    
    10    8    9 1    
    11    8   10 1    
    12   10   11 1    
    13   10   12 1    
    14   12   13 1    
    15   13   14 du   
    16   13   22 1    
    17   14   15 du   
    18   14   16 du   
    19   15   16 1    
    20   16   17 ar   
    21   16   22 ar   
    22   17   18 1    
    23   17   19 ar   
    24   19   20 ar   
    25   20   21 ar   
    26   21   22 ar   
    27   23   24 1    
    28   23   40 2    
    29   24   25 2    
    30   24   26 am   
    31   26   27 am   
    32   27   28 2    
    33   27   29 1    
    34   29   30 2    
    35   29   40 1    
    36   30   31 1    
    37   31   32 ar   
    38   31   38 ar   
    39   32   33 ar   
    40   33   34 1    
    41   33   35 ar   
    42   35   36 1    
    43   35   37 ar   
    44   37   38 ar   
    45   38   39 1    
    46   39   40 1    
    47   39   41 1    
    48   41   42 1    
    49   42   43 1    
    50   42   44 1    
    51   44   45 1    
    52   44   46 1    
    53   46   47 1    
    54   46   48 1    
    55   48   49 1    
    56   49   50 1    
    57   50   51 ar   
    58   50   52 ar   
    59   50   53 1    
@<TRIPOS>SUBSTRUCTURE
     1 FAD501      1 GROUP   
@<TRIPOS>SET
ATOM$ORANGE STATIC     ATOMS   COLORGROUP SYSTEM 
52 5 5 6 6 8 8 10 10 12 12 16 16 17 17 20 20 22 \
22 24 24 27 27 29 29 31 31 32 32 33 33 34 34 35 35 36 \
36 37 37 38 38 40 40 41 41 42 42 44 44 46 46 48 48 

