#    Name: 6fw9_1_FAD
#    Modification time : Fri May 22 19:28:13 2020

@<TRIPOS>MOLECULE
6fw9_1_FAD
   53    59     1     0     1
SMALL
NO_CHARGES


@<TRIPOS>ATOM
      1 PA         17.8370   20.9990    8.3990 P.3       1 FAD501      0.0000 
      2 O1A        17.3230   22.4030    8.2680 O.co2     1 FAD501      0.0000 
      3 O2A        17.5960   20.0910    7.2140 O.co2     1 FAD501      0.0000 
      4 O5B        19.3760   21.1220    8.6740 O.3       1 FAD501      0.0000 
      5 C5B        20.1860   20.2680    7.8870 C.3       1 FAD501      0.0000 
      6 C4B        21.4580   20.9690    7.6290 C.3       1 FAD501      0.0000 
      7 O4B        22.5380   19.9540    7.5840 O.3       1 FAD501      0.0000 
      8 C3B        21.4320   21.6520    6.3320 C.3       1 FAD501      0.0000 
      9 O3B        21.9940   22.9690    6.5250 O.3       1 FAD501      0.0000 
     10 C2B        22.3280   20.9020    5.4420 C.3       1 FAD501      0.0000 
     11 O2B        22.9900   21.8230    4.5610 O.3       1 FAD501      0.0000 
     12 C1B        23.3130   20.3460    6.3660 C.3       1 FAD501      0.0000 
     13 N9A        23.8820   19.1690    5.9100 N.pl3     1 FAD501      0.0000 
     14 C8A        23.3000   18.1600    5.5790 Du        1 FAD501      0.0000 
     15 N7A        23.8510   17.2880    5.2810 N.2       1 FAD501      0.0000 
     16 C5A        25.0480   17.2620    5.2790 C.ar      1 FAD501      0.0000 
     17 C6A        26.3930   16.4560    5.0130 C.ar      1 FAD501      0.0000 
     18 N6A        26.3100   15.1200    4.5470 N.pl3     1 FAD501      0.0000 
     19 N1A        27.6380   17.1430    5.2570 N.ar      1 FAD501      0.0000 
     20 C2A        27.5490   18.3100    5.6680 C.ar      1 FAD501      0.0000 
     21 N3A        26.5920   19.0030    5.9060 N.ar      1 FAD501      0.0000 
     22 C4A        25.4170   18.7610    5.8040 C.ar      1 FAD501      0.0000 
     23 N1          8.6460   23.3200   10.2970 N.2       1 FAD501      0.0000 
     24 C2          7.7970   24.0280   11.2720 C.2       1 FAD501      0.0000 
     25 O2          8.0060   23.7980   12.4380 O.2       1 FAD501      0.0000 
     26 N3          6.7620   24.9090   10.8320 N.am      1 FAD501      0.0000 
     27 C4          6.5760   25.1350    9.4900 C.2       1 FAD501      0.0000 
     28 O4          5.7460   25.9380    9.0800 O.2       1 FAD501      0.0000 
     29 C4X         7.4240   24.4370    8.5230 C.2       1 FAD501      0.0000 
     30 N5          7.2530   24.6290    7.2350 N.2       1 FAD501      0.0000 
     31 C5X         8.1440   23.9140    6.2920 C.ar      1 FAD501      0.0000 
     32 C6          7.9810   24.1220    4.9250 C.ar      1 FAD501      0.0000 
     33 C7          8.8300   23.4680    4.0230 C.ar      1 FAD501      0.0000 
     34 C7M         8.6590   23.6900    2.5290 C.3       1 FAD501      0.0000 
     35 C8          9.8300   22.6290    4.4880 C.ar      1 FAD501      0.0000 
     36 C8M        10.7520   21.9090    3.5080 C.3       1 FAD501      0.0000 
     37 C9         10.0040   22.4100    5.8510 C.ar      1 FAD501      0.0000 
     38 C9A         9.1630   23.0610    6.7620 C.ar      1 FAD501      0.0000 
     39 N10         9.3520   22.8550    8.1560 N.pl3     1 FAD501      0.0000 
     40 C10         8.4890   23.5190    9.0320 C.2       1 FAD501      0.0000 
     41 C1'        10.4050   21.9220    8.6850 C.3       1 FAD501      0.0000 
     42 C2'        11.5840   22.6480    9.2900 C.3       1 FAD501      0.0000 
     43 O2'        12.1100   23.4470    8.3000 O.3       1 FAD501      0.0000 
     44 C3'        12.6260   21.6110    9.6840 C.3       1 FAD501      0.0000 
     45 O3'        12.1060   20.5810   10.4720 O.3       1 FAD501      0.0000 
     46 C4'        13.7510   22.2180   10.4420 C.3       1 FAD501      0.0000 
     47 O4'        14.3170   23.2960    9.7390 O.3       1 FAD501      0.0000 
     48 C5'        14.7740   21.1080   10.4540 C.3       1 FAD501      0.0000 
     49 O5'        15.8330   21.4850   11.3140 O.3       1 FAD501      0.0000 
     50 P          17.0950   20.5620   11.1350 P.3       1 FAD501      0.0000 
     51 O1P        18.2690   21.3700   11.6330 O.co2     1 FAD501      0.0000 
     52 O2P        16.8970   19.2210   11.7870 O.co2     1 FAD501      0.0000 
     53 O3P        17.1220   20.2200    9.5720 O.3       1 FAD501      0.0000 
@<TRIPOS>BOND
     1    1    2 ar   
     2    1    3 ar   
     3    1    4 1    
     4    1   53 1    
     5    4    5 1    
     6    5    6 1    
     7    6    7 1    
     8    6    8 1    
     9    7   12 1    
    10    8    9 1    
    11    8   10 1    
    12   10   11 1    
    13   10   12 1    
    14   12   13 1    
    15   13   14 du   
    16   13   22 1    
    17   14   15 du   
    18   14   16 du   
    19   15   16 1    
    20   16   17 ar   
    21   16   22 ar   
    22   17   18 1    
    23   17   19 ar   
    24   19   20 ar   
    25   20   21 ar   
    26   21   22 ar   
    27   23   24 1    
    28   23   40 2    
    29   24   25 2    
    30   24   26 am   
    31   26   27 am   
    32   27   28 2    
    33   27   29 1    
    34   29   30 2    
    35   29   40 1    
    36   30   31 1    
    37   31   32 ar   
    38   31   38 ar   
    39   32   33 ar   
    40   33   34 1    
    41   33   35 ar   
    42   35   36 1    
    43   35   37 ar   
    44   37   38 ar   
    45   38   39 1    
    46   39   40 1    
    47   39   41 1    
    48   41   42 1    
    49   42   43 1    
    50   42   44 1    
    51   44   45 1    
    52   44   46 1    
    53   46   47 1    
    54   46   48 1    
    55   48   49 1    
    56   49   50 1    
    57   50   51 ar   
    58   50   52 ar   
    59   50   53 1    
@<TRIPOS>SUBSTRUCTURE
     1 FAD501      1 GROUP   
@<TRIPOS>SET
ATOM$ORANGE STATIC     ATOMS   COLORGROUP SYSTEM 
52 5 5 6 6 8 8 10 10 12 12 16 16 17 17 20 20 22 \
22 24 24 27 27 29 29 31 31 32 32 33 33 34 34 35 35 36 \
36 37 37 38 38 40 40 41 41 42 42 44 44 46 46 48 48 

