#    Name: 6c7y_1_ADP
#    Modification time : Fri May 22 19:42:47 2020

@<TRIPOS>MOLECULE
6c7y_1_ADP
   27    29     1     0     1
SMALL
NO_CHARGES


@<TRIPOS>ATOM
      1 PB         -6.4150   34.1780   -6.8170 P.3       1 ADP1201     0.0000 
      2 O1B        -4.9650   34.1240   -7.2330 O.co2     1 ADP1201     0.0000 
      3 O2B        -6.6570   33.6730   -5.4170 O.co2     1 ADP1201     0.0000 
      4 O3B        -7.1220   35.4710   -7.1460 O.co2     1 ADP1201     0.0000 
      5 PA         -8.0460   31.8940   -7.1950 P.3       1 ADP1201     0.0000 
      6 O1A        -9.3680   32.4990   -6.7900 O.co2     1 ADP1201     0.0000 
      7 O2A        -7.2530   31.0640   -6.2160 O.co2     1 ADP1201     0.0000 
      8 O3A        -7.1310   33.0930   -7.7660 O.3       1 ADP1201     0.0000 
      9 O5'        -8.2840   31.0320   -8.5320 O.3       1 ADP1201     0.0000 
     10 C5'        -8.5590   31.7090   -9.7570 C.3       1 ADP1201     0.0000 
     11 C4'        -9.2750   30.7730  -10.7190 C.3       1 ADP1201     0.0000 
     12 O4'        -8.7860   29.4390  -10.5630 O.3       1 ADP1201     0.0000 
     13 C3'       -10.7680   30.7340  -10.4410 C.3       1 ADP1201     0.0000 
     14 O3'       -11.4790   31.4780  -11.4340 O.3       1 ADP1201     0.0000 
     15 C2'       -11.1540   29.2710  -10.5010 C.3       1 ADP1201     0.0000 
     16 O2'       -12.0010   29.0360  -11.6290 O.3       1 ADP1201     0.0000 
     17 C1'        -9.8550   28.4960  -10.6540 C.3       1 ADP1201     0.0000 
     18 N9         -9.7520   27.5100   -9.5510 N.pl3     1 ADP1201     0.0000 
     19 C8         -9.0710   27.6850   -8.4030 C.2       1 ADP1201     0.0000 
     20 N7         -9.1770   26.5960   -7.6000 N.2       1 ADP1201     0.0000 
     21 C5         -9.9440   25.6950   -8.2410 C.ar      1 ADP1201     0.0000 
     22 C6        -10.4530   24.3330   -7.9570 C.ar      1 ADP1201     0.0000 
     23 N6        -10.1530   23.7020   -6.7960 N.pl3     1 ADP1201     0.0000 
     24 N1        -11.2260   23.7430   -8.8950 N.ar      1 ADP1201     0.0000 
     25 C2        -11.5310   24.3610  -10.0510 C.ar      1 ADP1201     0.0000 
     26 N3        -11.1040   25.5950  -10.3740 N.ar      1 ADP1201     0.0000 
     27 C4        -10.3210   26.3020   -9.5260 C.ar      1 ADP1201     0.0000 
@<TRIPOS>BOND
     1    1    2 ar   
     2    1    3 ar   
     3    1    4 ar   
     4    1    8 1    
     5    5    6 ar   
     6    5    7 ar   
     7    5    8 1    
     8    5    9 1    
     9    9   10 1    
    10   10   11 1    
    11   11   12 1    
    12   11   13 1    
    13   12   17 1    
    14   13   14 1    
    15   13   15 1    
    16   15   16 1    
    17   15   17 1    
    18   17   18 1    
    19   18   19 1    
    20   18   27 1    
    21   19   20 2    
    22   20   21 1    
    23   21   22 ar   
    24   21   27 ar   
    25   22   23 1    
    26   22   24 ar   
    27   24   25 ar   
    28   25   26 ar   
    29   26   27 ar   
@<TRIPOS>SUBSTRUCTURE
     1 ADP1201     1 GROUP   
@<TRIPOS>SET
ATOM$ORANGE STATIC     ATOMS   COLORGROUP SYSTEM 
20 10 10 11 11 13 13 15 15 17 17 19 19 21 21 22 22 25 \
25 27 27 

