#    Name: 6dg7_4_SRO_CAVITY_N1_ALL
#    Modification time : Fri May 22 19:33:28 2020

@<TRIPOS>MOLECULE
6dg7_4_SRO_CAVITY_N1_ALL
  136     0     7     0     0
SMALL
NO_CHARGES


@<TRIPOS>ATOM
      1 OG        164.1400  184.5000  183.4600 O.3       1 SER1        0.0000 
      2 OG        165.5500  184.0200  183.2700 O.3       1 SER1        0.0000 
      3 OG        167.8000  186.3200  182.3200 O.3       1 SER1        0.0000 
      4 OG        167.3800  184.9300  182.7000 O.3       1 SER1        0.0000 
      5 OG        163.4500  186.6600  184.7200 O.3       1 SER1        0.0000 
      6 OG        164.8600  186.1900  184.5200 O.3       1 SER1        0.0000 
      7 OG        166.2700  185.7100  184.3300 O.3       1 SER1        0.0000 
      8 OG        165.8500  184.3200  184.7100 O.3       1 SER1        0.0000 
      9 OG        167.6800  185.2300  184.1400 O.3       1 SER1        0.0000 
     10 OG        163.7500  186.9600  186.1600 O.3       1 SER1        0.0000 
     11 OG        165.1500  186.4900  185.9600 O.3       1 SER1        0.0000 
     12 OG        166.1400  184.6200  186.1500 O.3       1 SER1        0.0000 
     13 OG        165.4500  186.7900  187.4000 O.3       1 SER1        0.0000 
     14 OG        165.0300  185.4000  187.7800 O.3       1 SER1        0.0000 
     15 OG        164.4000  185.6800  194.1000 O.3       1 SER1        0.0000 
     16 OG        157.9500  188.6600  197.9400 O.3       1 SER1        0.0000 
     17 N         155.7900  183.6000  194.7500 N.am      2 ALA2        0.0000 
     18 N         164.1000  185.3800  192.6700 N.am      2 ALA2        0.0000 
     19 N         165.5100  184.9000  192.4700 N.am      2 ALA2        0.0000 
     20 N         156.0900  183.8900  196.1900 N.am      2 ALA2        0.0000 
     21 N         159.6300  184.6300  196.8700 N.am      2 ALA2        0.0000 
     22 N         161.0400  184.1500  196.6800 N.am      2 ALA2        0.0000 
     23 N         162.8700  185.0700  196.1100 N.am      2 ALA2        0.0000 
     24 OD1       168.0900  186.6200  183.7600 O.co2     3 ASP3        0.0000 
     25 OD1       166.9800  187.4000  185.4000 O.co2     3 ASP3        0.0000 
     26 OD1       166.5600  186.0100  185.7700 O.co2     3 ASP3        0.0000 
     27 OD1       167.2800  187.7000  186.8300 O.co2     3 ASP3        0.0000 
     28 OD1       166.8600  186.3100  187.2100 O.co2     3 ASP3        0.0000 
     29 OD1       152.8000  194.9400  191.4500 O.co2     3 ASP3        0.0000 
     30 OD1       151.6800  195.7100  193.0800 O.co2     3 ASP3        0.0000 
     31 OD1       153.0900  195.2300  192.8900 O.co2     3 ASP3        0.0000 
     32 OD1       152.6700  193.8400  193.2700 O.co2     3 ASP3        0.0000 
     33 OD1       153.6600  191.9800  193.4500 O.co2     3 ASP3        0.0000 
     34 OD1       154.6500  190.1100  193.6300 O.co2     3 ASP3        0.0000 
     35 OD1       154.2300  188.7200  194.0100 O.co2     3 ASP3        0.0000 
     36 OD1       151.9800  196.0100  194.5200 O.co2     3 ASP3        0.0000 
     37 OD1       152.9700  194.1400  194.7100 O.co2     3 ASP3        0.0000 
     38 OD1       153.9600  192.2800  194.8900 O.co2     3 ASP3        0.0000 
     39 OD1       154.9500  190.4100  195.0700 O.co2     3 ASP3        0.0000 
     40 OD1       155.9400  188.5400  195.2600 O.co2     3 ASP3        0.0000 
     41 OD1       156.6600  190.2300  196.3200 O.co2     3 ASP3        0.0000 
     42 OD1       155.8200  187.4500  197.0700 O.co2     3 ASP3        0.0000 
     43 OD1       157.6500  188.3700  196.5000 O.co2     3 ASP3        0.0000 
     44 OD1       157.2300  186.9700  196.8800 O.co2     3 ASP3        0.0000 
     45 OD1       156.9600  190.5300  197.7600 O.co2     3 ASP3        0.0000 
     46 OD1       156.5400  189.1400  198.1400 O.co2     3 ASP3        0.0000 
     47 NZ        167.2600  183.8400  184.5200 N.4       4 LYS4        0.0000 
     48 NZ        167.5500  184.1400  185.9600 N.4       4 LYS4        0.0000 
     49 NZ        166.4400  184.9200  187.5900 N.4       4 LYS4        0.0000 
     50 NZ        166.1700  188.4800  188.4700 N.4       4 LYS4        0.0000 
     51 NZ        165.7500  187.0900  188.8400 N.4       4 LYS4        0.0000 
     52 NZ        165.3300  185.7000  189.2200 N.4       4 LYS4        0.0000 
     53 NZ        154.2000  194.4600  191.2600 N.4       4 LYS4        0.0000 
     54 NZ        153.7900  193.0700  191.6400 N.4       4 LYS4        0.0000 
     55 NZ        153.3700  191.6800  192.0100 N.4       4 LYS4        0.0000 
     56 NZ        165.6300  186.0000  190.6600 N.4       4 LYS4        0.0000 
     57 NZ        165.9300  186.3000  192.1000 N.4       4 LYS4        0.0000 
     58 NZ        158.3600  190.0500  197.5700 N.4       4 LYS4        0.0000 
     59 CZ        162.0400  187.1400  184.9100 C.ar      5 PHE5        0.0000 
     60 CZ        162.3400  187.4400  186.3500 C.ar      5 PHE5        0.0000 
     61 CZ        164.4600  188.6500  187.2200 C.ar      5 PHE5        0.0000 
     62 CZ        164.0400  187.2600  187.6000 C.ar      5 PHE5        0.0000 
     63 CZ        163.6200  185.8700  187.9700 C.ar      5 PHE5        0.0000 
     64 CZ        164.3400  187.5600  189.0300 C.ar      5 PHE5        0.0000 
     65 CZ        163.9200  186.1700  189.4100 C.ar      5 PHE5        0.0000 
     66 CZ        164.2200  186.4700  190.8500 C.ar      5 PHE5        0.0000 
     67 CZ        163.8000  185.0800  191.2300 C.ar      5 PHE5        0.0000 
     68 CZ        158.4600  187.2900  193.4300 C.ar      5 PHE5        0.0000 
     69 CZ        157.6200  184.5100  194.1900 C.ar      5 PHE5        0.0000 
     70 CZ        157.2000  183.1200  194.5600 C.ar      5 PHE5        0.0000 
     71 CZ        159.0300  184.0300  193.9900 C.ar      5 PHE5        0.0000 
     72 CZ        162.2700  184.4700  193.2300 C.ar      5 PHE5        0.0000 
     73 CZ        164.5200  186.7700  192.2900 C.ar      5 PHE5        0.0000 
     74 CZ        158.3400  186.2000  195.2500 C.ar      5 PHE5        0.0000 
     75 CZ        157.9200  184.8100  195.6300 C.ar      5 PHE5        0.0000 
     76 CZ        157.5000  183.4200  196.0000 C.ar      5 PHE5        0.0000 
     77 CZ        160.5900  188.5000  194.3100 C.ar      5 PHE5        0.0000 
     78 CZ        160.1700  187.1100  194.6800 C.ar      5 PHE5        0.0000 
     79 CZ        159.7500  185.7200  195.0600 C.ar      5 PHE5        0.0000 
     80 CZ        159.3300  184.3300  195.4300 C.ar      5 PHE5        0.0000 
     81 CZ        161.5800  186.6300  194.4900 C.ar      5 PHE5        0.0000 
     82 CZ        161.1600  185.2400  194.8600 C.ar      5 PHE5        0.0000 
     83 CZ        160.7400  183.8500  195.2400 C.ar      5 PHE5        0.0000 
     84 CZ        162.9900  186.1600  194.3000 C.ar      5 PHE5        0.0000 
     85 CZ        162.5700  184.7700  194.6700 C.ar      5 PHE5        0.0000 
     86 CZ        156.8100  185.5800  197.2600 C.ar      5 PHE5        0.0000 
     87 CZ        159.0600  187.8900  196.3100 C.ar      5 PHE5        0.0000 
     88 CZ        158.6400  186.5000  196.6900 C.ar      5 PHE5        0.0000 
     89 CZ        158.2200  185.1100  197.0600 C.ar      5 PHE5        0.0000 
     90 CZ        160.4700  187.4100  196.1200 C.ar      5 PHE5        0.0000 
     91 CZ        160.0500  186.0200  196.5000 C.ar      5 PHE5        0.0000 
     92 CZ        161.4600  185.5400  196.3000 C.ar      5 PHE5        0.0000 
     93 CZ        163.2800  186.4600  195.7400 C.ar      5 PHE5        0.0000 
     94 CZ        156.1200  187.7500  198.5100 C.ar      5 PHE5        0.0000 
     95 CZ        157.5300  187.2700  198.3200 C.ar      5 PHE5        0.0000 
     96 CZ        159.7700  189.5800  197.3800 C.ar      5 PHE5        0.0000 
     97 CZ        158.9400  186.8000  198.1300 C.ar      5 PHE5        0.0000 
     98 CA        163.5700  187.7600  182.9000 C.3       6 GLY6        0.0000 
     99 CA        164.5600  185.8900  183.0900 C.3       6 GLY6        0.0000 
    100 CA        162.7600  188.8300  185.9700 C.3       6 GLY6        0.0000 
    101 CA        163.0500  189.1300  187.4100 C.3       6 GLY6        0.0000 
    102 CA        162.6300  187.7400  187.7900 C.3       6 GLY6        0.0000 
    103 CA        154.0800  193.3700  193.0700 C.3       6 GLY6        0.0000 
    104 CA        155.6400  188.2400  193.8200 C.3       6 GLY6        0.0000 
    105 CA        155.2200  186.8500  194.1900 C.3       6 GLY6        0.0000 
    106 CA        154.8000  185.4600  194.5700 C.3       6 GLY6        0.0000 
    107 CA        157.0500  187.7700  193.6300 C.3       6 GLY6        0.0000 
    108 CA        156.6300  186.3800  194.0000 C.3       6 GLY6        0.0000 
    109 CA        156.2100  184.9900  194.3800 C.3       6 GLY6        0.0000 
    110 CA        153.3900  195.5300  194.3300 C.3       6 GLY6        0.0000 
    111 CA        154.8000  195.0600  194.1400 C.3       6 GLY6        0.0000 
    112 CA        154.3800  193.6700  194.5100 C.3       6 GLY6        0.0000 
    113 CA        156.3600  189.9300  194.8800 C.3       6 GLY6        0.0000 
    114 CA        155.5200  187.1500  195.6300 C.3       6 GLY6        0.0000 
    115 CA        155.1000  185.7600  196.0100 C.3       6 GLY6        0.0000 
    116 CA        157.3500  188.0700  195.0700 C.3       6 GLY6        0.0000 
    117 CA        156.5100  185.2900  195.8200 C.3       6 GLY6        0.0000 
    118 CA        158.7600  187.5900  194.8700 C.3       6 GLY6        0.0000 
    119 CA        163.9800  184.2900  194.4800 C.3       6 GLY6        0.0000 
    120 CA        153.6900  195.8300  195.7700 C.3       6 GLY6        0.0000 
    121 CA        158.0700  189.7600  196.1300 C.3       6 GLY6        0.0000 
    122 CA        159.4800  189.2800  195.9400 C.3       6 GLY6        0.0000 
    123 CA        157.8000  183.7200  197.4400 C.3       6 GLY6        0.0000 
    124 CA        162.4500  183.6800  196.4900 C.3       6 GLY6        0.0000 
    125 DU        164.9800  187.2800  182.7100 H         7 CUB7        0.0000 
    126 DU        166.3900  186.8000  182.5200 H         7 CUB7        0.0000 
    127 DU        165.9700  185.4100  182.8900 H         7 CUB7        0.0000 
    128 DU        162.4600  188.5300  184.5300 H         7 CUB7        0.0000 
    129 DU        163.8700  188.0600  184.3400 H         7 CUB7        0.0000 
    130 DU        165.2800  187.5800  184.1500 H         7 CUB7        0.0000 
    131 DU        166.6900  187.1000  183.9600 H         7 CUB7        0.0000 
    132 DU        164.1600  188.3500  185.7800 H         7 CUB7        0.0000 
    133 DU        165.5700  187.8800  185.5900 H         7 CUB7        0.0000 
    134 DU        165.8700  188.1800  187.0300 H         7 CUB7        0.0000 
    135 DU        156.9300  186.6800  195.4400 H         7 CUB7        0.0000 
    136 DU        152.2800  196.3100  195.9600 H         7 CUB7        0.0000 
@<TRIPOS>BOND
@<TRIPOS>SUBSTRUCTURE
     1 SER1        1 GROUP   
     2 ALA2       17 GROUP   
     3 ASP3       24 GROUP   
     4 LYS4       47 GROUP   
     5 PHE5       59 GROUP   
     6 GLY6       98 GROUP   
     7 CUB7      125 GROUP   
@<TRIPOS>SET

