#    Name: 6dg7_2_SRO_CAVITY_N1_4
#    Modification time : Fri May 22 19:33:20 2020

@<TRIPOS>MOLECULE
6dg7_2_SRO_CAVITY_N1_4
   61     0     7     0     0
SMALL
NO_CHARGES


@<TRIPOS>ATOM
      1 OG        130.2900  168.0400  198.5700 O.3       1 SER1        0.0000 
      2 OG        131.7000  167.5700  198.3800 O.3       1 SER1        0.0000 
      3 N         134.9200  164.1500  195.3000 N.am      2 ALA2        0.0000 
      4 N         134.5000  162.7600  195.6800 N.am      2 ALA2        0.0000 
      5 N         135.2100  164.4400  196.7400 N.am      2 ALA2        0.0000 
      6 N         136.3500  167.5200  197.4300 N.am      2 ALA2        0.0000 
      7 OD1       130.3900  165.2800  194.4400 O.co2     3 ASP3        0.0000 
      8 OD1       131.3800  163.4100  194.6200 O.co2     3 ASP3        0.0000 
      9 OD1       129.2800  166.0500  196.0700 O.co2     3 ASP3        0.0000 
     10 OD1       130.6900  165.5800  195.8800 O.co2     3 ASP3        0.0000 
     11 OD1       132.1000  165.1000  195.6900 O.co2     3 ASP3        0.0000 
     12 OD1       129.5800  166.3500  197.5100 O.co2     3 ASP3        0.0000 
     13 OD1       130.9900  165.8800  197.3200 O.co2     3 ASP3        0.0000 
     14 OD1       132.4000  165.4000  197.1300 O.co2     3 ASP3        0.0000 
     15 NZ        130.0000  167.7400  197.1400 N.4       4 LYS4        0.0000 
     16 CZ        132.6400  167.5800  193.5000 C.ar      5 PHE5        0.0000 
     17 CZ        133.6300  165.7100  193.6800 C.ar      5 PHE5        0.0000 
     18 CZ        133.3600  169.2700  194.5600 C.ar      5 PHE5        0.0000 
     19 CZ        132.9400  167.8800  194.9400 C.ar      5 PHE5        0.0000 
     20 CZ        135.1800  170.1800  193.9900 C.ar      5 PHE5        0.0000 
     21 CZ        134.7700  168.7900  194.3700 C.ar      5 PHE5        0.0000 
     22 CZ        134.3500  167.4000  194.7400 C.ar      5 PHE5        0.0000 
     23 CZ        133.9300  166.0100  195.1200 C.ar      5 PHE5        0.0000 
     24 CZ        136.5900  169.7100  193.8000 C.ar      5 PHE5        0.0000 
     25 CZ        136.1700  168.3200  194.1800 C.ar      5 PHE5        0.0000 
     26 CZ        135.7500  166.9300  194.5500 C.ar      5 PHE5        0.0000 
     27 CZ        135.3400  165.5400  194.9300 C.ar      5 PHE5        0.0000 
     28 CZ        132.2400  170.0500  196.1900 C.ar      5 PHE5        0.0000 
     29 CZ        131.8300  168.6600  196.5700 C.ar      5 PHE5        0.0000 
     30 CZ        131.4100  167.2700  196.9400 C.ar      5 PHE5        0.0000 
     31 CZ        134.0700  170.9600  195.6200 C.ar      5 PHE5        0.0000 
     32 CZ        133.6500  169.5700  196.0000 C.ar      5 PHE5        0.0000 
     33 CZ        133.2300  168.1800  196.3800 C.ar      5 PHE5        0.0000 
     34 CZ        132.8200  166.7900  196.7500 C.ar      5 PHE5        0.0000 
     35 CZ        135.4800  170.4800  195.4300 C.ar      5 PHE5        0.0000 
     36 CZ        135.0600  169.0900  195.8100 C.ar      5 PHE5        0.0000 
     37 CZ        134.6400  167.7000  196.1800 C.ar      5 PHE5        0.0000 
     38 CZ        133.8100  164.9200  196.9300 C.ar      5 PHE5        0.0000 
     39 CZ        136.8900  170.0100  195.2400 C.ar      5 PHE5        0.0000 
     40 CZ        136.4700  168.6200  195.6100 C.ar      5 PHE5        0.0000 
     41 CZ        136.0500  167.2300  195.9900 C.ar      5 PHE5        0.0000 
     42 CZ        135.6300  165.8400  196.3700 C.ar      5 PHE5        0.0000 
     43 CZ        131.2800  166.1800  198.7600 C.ar      5 PHE5        0.0000 
     44 CZ        133.1100  167.0900  198.1900 C.ar      5 PHE5        0.0000 
     45 CZ        135.3600  169.3900  197.2500 C.ar      5 PHE5        0.0000 
     46 CZ        134.9400  168.0000  197.6200 C.ar      5 PHE5        0.0000 
     47 CZ        134.5200  166.6100  198.0000 C.ar      5 PHE5        0.0000 
     48 CA        130.8100  166.6700  194.0600 C.3       6 GLY6        0.0000 
     49 CA        132.2200  166.1900  193.8700 C.3       6 GLY6        0.0000 
     50 CA        131.8000  164.8000  194.2500 C.3       6 GLY6        0.0000 
     51 CA        133.2100  164.3200  194.0600 C.3       6 GLY6        0.0000 
     52 CA        132.7900  162.9300  194.4300 C.3       6 GLY6        0.0000 
     53 CA        134.6200  163.8500  193.8600 C.3       6 GLY6        0.0000 
     54 CA        129.7000  167.4400  195.7000 C.3       6 GLY6        0.0000 
     55 CA        131.5300  168.3600  195.1300 C.3       6 GLY6        0.0000 
     56 CA        131.1100  166.9700  195.5000 C.3       6 GLY6        0.0000 
     57 CA        133.5100  164.6200  195.5000 C.3       6 GLY6        0.0000 
     58 CA        130.4200  169.1300  196.7600 C.3       6 GLY6        0.0000 
     59 CA        135.9300  166.1300  197.8100 C.3       6 GLY6        0.0000 
     60 DU        132.5200  166.4900  195.3100 H         7 CUB7        0.0000 
     61 DU        134.2200  166.3100  196.5600 H         7 CUB7        0.0000 
@<TRIPOS>BOND
@<TRIPOS>SUBSTRUCTURE
     1 SER1        1 GROUP   
     2 ALA2        3 GROUP   
     3 ASP3        7 GROUP   
     4 LYS4       15 GROUP   
     5 PHE5       16 GROUP   
     6 GLY6       48 GROUP   
     7 CUB7       60 GROUP   
@<TRIPOS>SET

