#    Name: 6dg7_4_SRO
#    Modification time : Fri May 22 19:33:27 2020

@<TRIPOS>MOLECULE
6dg7_4_SRO
   13    14     1     0     0
SMALL
NO_CHARGES


@<TRIPOS>ATOM
      1 OH        156.1540  183.6610  195.3710 O.3       1 SRO509      0.0000 
      2 CZ3       156.9400  184.8170  195.4540 C.ar      1 SRO509      0.0000 
      3 CH2       156.3500  186.0380  195.7800 C.ar      1 SRO509      0.0000 
      4 CZ2       157.1230  187.1880  195.8650 C.ar      1 SRO509      0.0000 
      5 CE2       158.5200  187.1180  195.6180 C.ar      1 SRO509      0.0000 
      6 NE1       159.4850  188.0710  195.6340 N.pl3     1 SRO509      0.0000 
      7 CD1       160.6570  187.5390  195.3360 C.2       1 SRO509      0.0000 
      8 CG        160.4910  186.1760  195.1140 C.2       1 SRO509      0.0000 
      9 CD2       159.1020  185.9200  195.2980 C.ar      1 SRO509      0.0000 
     10 CE3       158.3100  184.7490  195.2130 C.ar      1 SRO509      0.0000 
     11 CB        161.5680  185.1560  194.7430 C.3       1 SRO509      0.0000 
     12 CA        162.7690  185.1860  195.6840 C.3       1 SRO509      0.0000 
     13 NZ        163.6820  186.2470  195.2980 N.4       1 SRO509      0.0000 
@<TRIPOS>BOND
     1    1    2 1    
     2    2    3 ar   
     3    2   10 ar   
     4    3    4 ar   
     5    4    5 ar   
     6    5    6 1    
     7    5    9 ar   
     8    6    7 1    
     9    7    8 2    
    10    8    9 1    
    11    8   11 1    
    12    9   10 ar   
    13   11   12 1    
    14   12   13 1    
@<TRIPOS>SUBSTRUCTURE
     1 SRO509      1 GROUP   
@<TRIPOS>SET

