#    Name: 6dg7_2_SRO_CAVITY_N1_12
#    Modification time : Fri May 22 19:33:20 2020

@<TRIPOS>MOLECULE
6dg7_2_SRO_CAVITY_N1_12
   93     0     7     0     0
SMALL
NO_CHARGES


@<TRIPOS>ATOM
      1 OG        130.2900  168.0400  198.5700 O.3       1 SER1        0.0000 
      2 OG        131.7000  167.5700  198.3800 O.3       1 SER1        0.0000 
      3 N         124.1600  166.5900  192.3300 N.am      2 ALA2        0.0000 
      4 N         134.9200  164.1500  195.3000 N.am      2 ALA2        0.0000 
      5 N         134.5000  162.7600  195.6800 N.am      2 ALA2        0.0000 
      6 N         135.2100  164.4400  196.7400 N.am      2 ALA2        0.0000 
      7 N         136.3500  167.5200  197.4300 N.am      2 ALA2        0.0000 
      8 OD1       123.0200  163.5100  191.6400 O.co2     3 ASP3        0.0000 
      9 OD1       125.1500  164.7200  192.5100 O.co2     3 ASP3        0.0000 
     10 OD1       123.6200  164.1000  194.5200 O.co2     3 ASP3        0.0000 
     11 OD1       123.2000  162.7100  194.9000 O.co2     3 ASP3        0.0000 
     12 OD1       125.0300  163.6300  194.3300 O.co2     3 ASP3        0.0000 
     13 OD1       126.4400  163.1500  194.1400 O.co2     3 ASP3        0.0000 
     14 OD1       128.2700  164.0600  193.5700 O.co2     3 ASP3        0.0000 
     15 OD1       127.1500  164.8400  195.2000 O.co2     3 ASP3        0.0000 
     16 OD1       128.5600  164.3600  195.0100 O.co2     3 ASP3        0.0000 
     17 OD1       130.3900  165.2800  194.4400 O.co2     3 ASP3        0.0000 
     18 OD1       131.3800  163.4100  194.6200 O.co2     3 ASP3        0.0000 
     19 OD1       127.4500  165.1400  196.6400 O.co2     3 ASP3        0.0000 
     20 OD1       129.2800  166.0500  196.0700 O.co2     3 ASP3        0.0000 
     21 OD1       130.6900  165.5800  195.8800 O.co2     3 ASP3        0.0000 
     22 OD1       132.1000  165.1000  195.6900 O.co2     3 ASP3        0.0000 
     23 OD1       129.5800  166.3500  197.5100 O.co2     3 ASP3        0.0000 
     24 OD1       130.9900  165.8800  197.3200 O.co2     3 ASP3        0.0000 
     25 OD1       132.4000  165.4000  197.1300 O.co2     3 ASP3        0.0000 
     26 OD1       129.8800  166.6500  198.9500 O.co2     3 ASP3        0.0000 
     27 NZ        123.4400  164.9000  191.2700 N.4       4 LYS4        0.0000 
     28 NZ        125.2700  165.8100  190.7000 N.4       4 LYS4        0.0000 
     29 NZ        124.8500  164.4200  191.0800 N.4       4 LYS4        0.0000 
     30 NZ        126.6800  165.3300  190.5100 N.4       4 LYS4        0.0000 
     31 NZ        126.5600  164.2400  192.3200 N.4       4 LYS4        0.0000 
     32 NZ        127.9700  163.7600  192.1300 N.4       4 LYS4        0.0000 
     33 NZ        125.3300  163.9300  195.7700 N.4       4 LYS4        0.0000 
     34 NZ        130.0000  167.7400  197.1400 N.4       4 LYS4        0.0000 
     35 CZ        132.6400  167.5800  193.5000 C.ar      5 PHE5        0.0000 
     36 CZ        133.6300  165.7100  193.6800 C.ar      5 PHE5        0.0000 
     37 CZ        133.3600  169.2700  194.5600 C.ar      5 PHE5        0.0000 
     38 CZ        132.9400  167.8800  194.9400 C.ar      5 PHE5        0.0000 
     39 CZ        135.1800  170.1800  193.9900 C.ar      5 PHE5        0.0000 
     40 CZ        134.7700  168.7900  194.3700 C.ar      5 PHE5        0.0000 
     41 CZ        134.3500  167.4000  194.7400 C.ar      5 PHE5        0.0000 
     42 CZ        133.9300  166.0100  195.1200 C.ar      5 PHE5        0.0000 
     43 CZ        136.5900  169.7100  193.8000 C.ar      5 PHE5        0.0000 
     44 CZ        136.1700  168.3200  194.1800 C.ar      5 PHE5        0.0000 
     45 CZ        135.7500  166.9300  194.5500 C.ar      5 PHE5        0.0000 
     46 CZ        135.3400  165.5400  194.9300 C.ar      5 PHE5        0.0000 
     47 CZ        132.2400  170.0500  196.1900 C.ar      5 PHE5        0.0000 
     48 CZ        131.8300  168.6600  196.5700 C.ar      5 PHE5        0.0000 
     49 CZ        131.4100  167.2700  196.9400 C.ar      5 PHE5        0.0000 
     50 CZ        134.0700  170.9600  195.6200 C.ar      5 PHE5        0.0000 
     51 CZ        133.6500  169.5700  196.0000 C.ar      5 PHE5        0.0000 
     52 CZ        133.2300  168.1800  196.3800 C.ar      5 PHE5        0.0000 
     53 CZ        132.8200  166.7900  196.7500 C.ar      5 PHE5        0.0000 
     54 CZ        135.4800  170.4800  195.4300 C.ar      5 PHE5        0.0000 
     55 CZ        135.0600  169.0900  195.8100 C.ar      5 PHE5        0.0000 
     56 CZ        134.6400  167.7000  196.1800 C.ar      5 PHE5        0.0000 
     57 CZ        133.8100  164.9200  196.9300 C.ar      5 PHE5        0.0000 
     58 CZ        136.8900  170.0100  195.2400 C.ar      5 PHE5        0.0000 
     59 CZ        136.4700  168.6200  195.6100 C.ar      5 PHE5        0.0000 
     60 CZ        136.0500  167.2300  195.9900 C.ar      5 PHE5        0.0000 
     61 CZ        135.6300  165.8400  196.3700 C.ar      5 PHE5        0.0000 
     62 CZ        131.2800  166.1800  198.7600 C.ar      5 PHE5        0.0000 
     63 CZ        133.1100  167.0900  198.1900 C.ar      5 PHE5        0.0000 
     64 CZ        135.3600  169.3900  197.2500 C.ar      5 PHE5        0.0000 
     65 CZ        134.9400  168.0000  197.6200 C.ar      5 PHE5        0.0000 
     66 CZ        134.5200  166.6100  198.0000 C.ar      5 PHE5        0.0000 
     67 CA        125.5700  166.1100  192.1400 C.3       6 GLY6        0.0000 
     68 CA        128.3900  165.1500  191.7500 C.3       6 GLY6        0.0000 
     69 CA        124.0400  165.4900  194.1500 C.3       6 GLY6        0.0000 
     70 CA        125.4500  165.0200  193.9500 C.3       6 GLY6        0.0000 
     71 CA        126.8600  164.5400  193.7600 C.3       6 GLY6        0.0000 
     72 CA        130.0900  164.9800  193.0000 C.3       6 GLY6        0.0000 
     73 CA        129.6700  163.5900  193.3800 C.3       6 GLY6        0.0000 
     74 CA        122.5100  164.8800  196.1500 C.3       6 GLY6        0.0000 
     75 CA        123.9200  164.4000  195.9600 C.3       6 GLY6        0.0000 
     76 CA        125.7400  165.3200  195.3900 C.3       6 GLY6        0.0000 
     77 CA        128.9800  165.7500  194.6300 C.3       6 GLY6        0.0000 
     78 CA        130.8100  166.6700  194.0600 C.3       6 GLY6        0.0000 
     79 CA        132.2200  166.1900  193.8700 C.3       6 GLY6        0.0000 
     80 CA        131.8000  164.8000  194.2500 C.3       6 GLY6        0.0000 
     81 CA        133.2100  164.3200  194.0600 C.3       6 GLY6        0.0000 
     82 CA        132.7900  162.9300  194.4300 C.3       6 GLY6        0.0000 
     83 CA        134.6200  163.8500  193.8600 C.3       6 GLY6        0.0000 
     84 CA        129.7000  167.4400  195.7000 C.3       6 GLY6        0.0000 
     85 CA        131.5300  168.3600  195.1300 C.3       6 GLY6        0.0000 
     86 CA        131.1100  166.9700  195.5000 C.3       6 GLY6        0.0000 
     87 CA        133.5100  164.6200  195.5000 C.3       6 GLY6        0.0000 
     88 CA        130.4200  169.1300  196.7600 C.3       6 GLY6        0.0000 
     89 CA        135.9300  166.1300  197.8100 C.3       6 GLY6        0.0000 
     90 DU        123.7400  165.1900  192.7100 H         7 CUB7        0.0000 
     91 DU        123.5000  163.0100  196.3400 H         7 CUB7        0.0000 
     92 DU        132.5200  166.4900  195.3100 H         7 CUB7        0.0000 
     93 DU        134.2200  166.3100  196.5600 H         7 CUB7        0.0000 
@<TRIPOS>BOND
@<TRIPOS>SUBSTRUCTURE
     1 SER1        1 GROUP   
     2 ALA2        3 GROUP   
     3 ASP3        8 GROUP   
     4 LYS4       27 GROUP   
     5 PHE5       35 GROUP   
     6 GLY6       67 GROUP   
     7 CUB7       90 GROUP   
@<TRIPOS>SET

