#    Name: 6dg7_4_SRO_CAVITY_N1_6
#    Modification time : Fri May 22 19:33:28 2020

@<TRIPOS>MOLECULE
6dg7_4_SRO_CAVITY_N1_6
   73     0     7     0     0
SMALL
NO_CHARGES


@<TRIPOS>ATOM
      1 OG        164.4000  185.6800  194.1000 O.3       1 SER1        0.0000 
      2 OG        157.9500  188.6600  197.9400 O.3       1 SER1        0.0000 
      3 N         155.7900  183.6000  194.7500 N.am      2 ALA2        0.0000 
      4 N         164.1000  185.3800  192.6700 N.am      2 ALA2        0.0000 
      5 N         165.5100  184.9000  192.4700 N.am      2 ALA2        0.0000 
      6 N         156.0900  183.8900  196.1900 N.am      2 ALA2        0.0000 
      7 N         159.6300  184.6300  196.8700 N.am      2 ALA2        0.0000 
      8 N         161.0400  184.1500  196.6800 N.am      2 ALA2        0.0000 
      9 N         162.8700  185.0700  196.1100 N.am      2 ALA2        0.0000 
     10 OD1       154.6500  190.1100  193.6300 O.co2     3 ASP3        0.0000 
     11 OD1       154.2300  188.7200  194.0100 O.co2     3 ASP3        0.0000 
     12 OD1       154.9500  190.4100  195.0700 O.co2     3 ASP3        0.0000 
     13 OD1       155.9400  188.5400  195.2600 O.co2     3 ASP3        0.0000 
     14 OD1       156.6600  190.2300  196.3200 O.co2     3 ASP3        0.0000 
     15 OD1       155.8200  187.4500  197.0700 O.co2     3 ASP3        0.0000 
     16 OD1       157.6500  188.3700  196.5000 O.co2     3 ASP3        0.0000 
     17 OD1       157.2300  186.9700  196.8800 O.co2     3 ASP3        0.0000 
     18 OD1       156.9600  190.5300  197.7600 O.co2     3 ASP3        0.0000 
     19 OD1       156.5400  189.1400  198.1400 O.co2     3 ASP3        0.0000 
     20 NZ        165.6300  186.0000  190.6600 N.4       4 LYS4        0.0000 
     21 NZ        165.9300  186.3000  192.1000 N.4       4 LYS4        0.0000 
     22 NZ        158.3600  190.0500  197.5700 N.4       4 LYS4        0.0000 
     23 CZ        163.9200  186.1700  189.4100 C.ar      5 PHE5        0.0000 
     24 CZ        164.2200  186.4700  190.8500 C.ar      5 PHE5        0.0000 
     25 CZ        163.8000  185.0800  191.2300 C.ar      5 PHE5        0.0000 
     26 CZ        158.4600  187.2900  193.4300 C.ar      5 PHE5        0.0000 
     27 CZ        157.6200  184.5100  194.1900 C.ar      5 PHE5        0.0000 
     28 CZ        157.2000  183.1200  194.5600 C.ar      5 PHE5        0.0000 
     29 CZ        159.0300  184.0300  193.9900 C.ar      5 PHE5        0.0000 
     30 CZ        162.2700  184.4700  193.2300 C.ar      5 PHE5        0.0000 
     31 CZ        164.5200  186.7700  192.2900 C.ar      5 PHE5        0.0000 
     32 CZ        158.3400  186.2000  195.2500 C.ar      5 PHE5        0.0000 
     33 CZ        157.9200  184.8100  195.6300 C.ar      5 PHE5        0.0000 
     34 CZ        157.5000  183.4200  196.0000 C.ar      5 PHE5        0.0000 
     35 CZ        160.5900  188.5000  194.3100 C.ar      5 PHE5        0.0000 
     36 CZ        160.1700  187.1100  194.6800 C.ar      5 PHE5        0.0000 
     37 CZ        159.7500  185.7200  195.0600 C.ar      5 PHE5        0.0000 
     38 CZ        159.3300  184.3300  195.4300 C.ar      5 PHE5        0.0000 
     39 CZ        161.5800  186.6300  194.4900 C.ar      5 PHE5        0.0000 
     40 CZ        161.1600  185.2400  194.8600 C.ar      5 PHE5        0.0000 
     41 CZ        160.7400  183.8500  195.2400 C.ar      5 PHE5        0.0000 
     42 CZ        162.9900  186.1600  194.3000 C.ar      5 PHE5        0.0000 
     43 CZ        162.5700  184.7700  194.6700 C.ar      5 PHE5        0.0000 
     44 CZ        156.8100  185.5800  197.2600 C.ar      5 PHE5        0.0000 
     45 CZ        159.0600  187.8900  196.3100 C.ar      5 PHE5        0.0000 
     46 CZ        158.6400  186.5000  196.6900 C.ar      5 PHE5        0.0000 
     47 CZ        158.2200  185.1100  197.0600 C.ar      5 PHE5        0.0000 
     48 CZ        160.4700  187.4100  196.1200 C.ar      5 PHE5        0.0000 
     49 CZ        160.0500  186.0200  196.5000 C.ar      5 PHE5        0.0000 
     50 CZ        161.4600  185.5400  196.3000 C.ar      5 PHE5        0.0000 
     51 CZ        163.2800  186.4600  195.7400 C.ar      5 PHE5        0.0000 
     52 CZ        156.1200  187.7500  198.5100 C.ar      5 PHE5        0.0000 
     53 CZ        157.5300  187.2700  198.3200 C.ar      5 PHE5        0.0000 
     54 CZ        159.7700  189.5800  197.3800 C.ar      5 PHE5        0.0000 
     55 CZ        158.9400  186.8000  198.1300 C.ar      5 PHE5        0.0000 
     56 CA        155.6400  188.2400  193.8200 C.3       6 GLY6        0.0000 
     57 CA        155.2200  186.8500  194.1900 C.3       6 GLY6        0.0000 
     58 CA        154.8000  185.4600  194.5700 C.3       6 GLY6        0.0000 
     59 CA        157.0500  187.7700  193.6300 C.3       6 GLY6        0.0000 
     60 CA        156.6300  186.3800  194.0000 C.3       6 GLY6        0.0000 
     61 CA        156.2100  184.9900  194.3800 C.3       6 GLY6        0.0000 
     62 CA        156.3600  189.9300  194.8800 C.3       6 GLY6        0.0000 
     63 CA        155.5200  187.1500  195.6300 C.3       6 GLY6        0.0000 
     64 CA        155.1000  185.7600  196.0100 C.3       6 GLY6        0.0000 
     65 CA        157.3500  188.0700  195.0700 C.3       6 GLY6        0.0000 
     66 CA        156.5100  185.2900  195.8200 C.3       6 GLY6        0.0000 
     67 CA        158.7600  187.5900  194.8700 C.3       6 GLY6        0.0000 
     68 CA        163.9800  184.2900  194.4800 C.3       6 GLY6        0.0000 
     69 CA        158.0700  189.7600  196.1300 C.3       6 GLY6        0.0000 
     70 CA        159.4800  189.2800  195.9400 C.3       6 GLY6        0.0000 
     71 CA        157.8000  183.7200  197.4400 C.3       6 GLY6        0.0000 
     72 CA        162.4500  183.6800  196.4900 C.3       6 GLY6        0.0000 
     73 DU        156.9300  186.6800  195.4400 H         7 CUB7        0.0000 
@<TRIPOS>BOND
@<TRIPOS>SUBSTRUCTURE
     1 SER1        1 GROUP   
     2 ALA2        3 GROUP   
     3 ASP3       10 GROUP   
     4 LYS4       20 GROUP   
     5 PHE5       23 GROUP   
     6 GLY6       56 GROUP   
     7 CUB7       73 GROUP   
@<TRIPOS>SET

