#    Name: 6dg7_2_SRO
#    Modification time : Fri May 22 19:33:19 2020

@<TRIPOS>MOLECULE
6dg7_2_SRO
   13    14     1     0     0
SMALL
NO_CHARGES


@<TRIPOS>ATOM
      1 OH        135.8810  163.6970  195.5640 O.3       1 SRO508      0.0000 
      2 CZ3       134.9750  164.7650  195.6190 C.ar      1 SRO508      0.0000 
      3 CH2       133.6460  164.5330  195.9750 C.ar      1 SRO508      0.0000 
      4 CZ2       132.7440  165.5880  196.0310 C.ar      1 SRO508      0.0000 
      5 CE2       133.1770  166.9060  195.7250 C.ar      1 SRO508      0.0000 
      6 NE1       132.5150  168.0910  195.7030 N.pl3     1 SRO508      0.0000 
      7 CD1       133.3340  169.0680  195.3540 C.2       1 SRO508      0.0000 
      8 CG        134.6000  168.5340  195.1320 C.2       1 SRO508      0.0000 
      9 CD2       134.4810  167.1360  195.3760 C.ar      1 SRO508      0.0000 
     10 CE3       135.3980  166.0570  195.3190 C.ar      1 SRO508      0.0000 
     11 CB        135.8670  169.2830  194.7150 C.3       1 SRO508      0.0000 
     12 CA        136.3310  170.3090  195.7430 C.3       1 SRO508      0.0000 
     13 NZ        135.8010  171.6170  195.4010 N.4       1 SRO508      0.0000 
@<TRIPOS>BOND
     1    1    2 1    
     2    2    3 ar   
     3    2   10 ar   
     4    3    4 ar   
     5    4    5 ar   
     6    5    6 1    
     7    5    9 ar   
     8    6    7 1    
     9    7    8 2    
    10    8    9 1    
    11    8   11 1    
    12    9   10 ar   
    13   11   12 1    
    14   12   13 1    
@<TRIPOS>SUBSTRUCTURE
     1 SRO508      1 GROUP   
@<TRIPOS>SET

