#    Name: 6dg7_1_SRO_CAVITY_N1_4
#    Modification time : Fri May 22 19:33:12 2020

@<TRIPOS>MOLECULE
6dg7_1_SRO_CAVITY_N1_4
   70     0     7     0     0
SMALL
NO_CHARGES


@<TRIPOS>ATOM
      1 OG        139.8500  141.3600  194.3400 O.3       1 SER1        0.0000 
      2 OG        142.9900  134.9700  198.1400 O.3       1 SER1        0.0000 
      3 N         139.9700  142.4500  192.5200 N.am      2 ALA2        0.0000 
      4 N         141.3800  141.9700  192.3300 N.am      2 ALA2        0.0000 
      5 N         141.5500  141.1800  195.5800 N.am      2 ALA2        0.0000 
      6 N         148.1800  137.4100  195.0000 N.am      2 ALA2        0.0000 
      7 N         144.6700  140.5300  196.6400 N.am      2 ALA2        0.0000 
      8 N         144.2500  139.1400  197.0100 N.am      2 ALA2        0.0000 
      9 N         148.4800  137.7100  196.4400 N.am      2 ALA2        0.0000 
     10 OD1       145.2200  133.4100  194.8800 O.co2     3 ASP3        0.0000 
     11 OD1       144.8000  132.0200  195.2500 O.co2     3 ASP3        0.0000 
     12 OD1       143.6800  132.8000  196.8900 O.co2     3 ASP3        0.0000 
     13 OD1       145.9300  135.1000  195.9400 O.co2     3 ASP3        0.0000 
     14 OD1       144.4000  134.4900  197.9500 O.co2     3 ASP3        0.0000 
     15 NZ        142.2800  133.2800  197.0800 N.4       4 LYS4        0.0000 
     16 CZ        139.5500  141.0600  192.9000 C.ar      5 PHE5        0.0000 
     17 CZ        140.9600  140.5800  192.7000 C.ar      5 PHE5        0.0000 
     18 CZ        141.2600  140.8800  194.1400 C.ar      5 PHE5        0.0000 
     19 CZ        140.8400  139.4900  194.5200 C.ar      5 PHE5        0.0000 
     20 CZ        143.0800  141.7900  193.5800 C.ar      5 PHE5        0.0000 
     21 CZ        142.6600  140.4000  193.9500 C.ar      5 PHE5        0.0000 
     22 CZ        142.2500  139.0100  194.3300 C.ar      5 PHE5        0.0000 
     23 CZ        141.8300  137.6200  194.7000 C.ar      5 PHE5        0.0000 
     24 CZ        144.0700  139.9300  193.7600 C.ar      5 PHE5        0.0000 
     25 CZ        143.6500  138.5400  194.1300 C.ar      5 PHE5        0.0000 
     26 CZ        143.2400  137.1500  194.5100 C.ar      5 PHE5        0.0000 
     27 CZ        144.6400  136.6700  194.3200 C.ar      5 PHE5        0.0000 
     28 CZ        146.4700  137.5800  193.7500 C.ar      5 PHE5        0.0000 
     29 CZ        141.1300  139.7900  195.9600 C.ar      5 PHE5        0.0000 
     30 CZ        142.9600  140.7000  195.3900 C.ar      5 PHE5        0.0000 
     31 CZ        142.5400  139.3100  195.7700 C.ar      5 PHE5        0.0000 
     32 CZ        142.1200  137.9200  196.1400 C.ar      5 PHE5        0.0000 
     33 CZ        141.7000  136.5300  196.5200 C.ar      5 PHE5        0.0000 
     34 CZ        141.2900  135.1400  196.8900 C.ar      5 PHE5        0.0000 
     35 CZ        144.3700  140.2300  195.2000 C.ar      5 PHE5        0.0000 
     36 CZ        143.5300  137.4500  195.9500 C.ar      5 PHE5        0.0000 
     37 CZ        143.1100  136.0600  196.3300 C.ar      5 PHE5        0.0000 
     38 CZ        145.7800  139.7500  195.0100 C.ar      5 PHE5        0.0000 
     39 CZ        145.3600  138.3600  195.3800 C.ar      5 PHE5        0.0000 
     40 CZ        146.7700  137.8800  195.1900 C.ar      5 PHE5        0.0000 
     41 CZ        142.8400  139.6100  197.2100 C.ar      5 PHE5        0.0000 
     42 CZ        143.8300  137.7500  197.3900 C.ar      5 PHE5        0.0000 
     43 CZ        146.0800  140.0500  196.4500 C.ar      5 PHE5        0.0000 
     44 CZ        145.6600  138.6600  196.8200 C.ar      5 PHE5        0.0000 
     45 CZ        145.2400  137.2700  197.2000 C.ar      5 PHE5        0.0000 
     46 CZ        144.8200  135.8800  197.5700 C.ar      5 PHE5        0.0000 
     47 CZ        147.4900  139.5700  196.2500 C.ar      5 PHE5        0.0000 
     48 CZ        147.0700  138.1800  196.6300 C.ar      5 PHE5        0.0000 
     49 CZ        146.6500  136.7900  197.0100 C.ar      5 PHE5        0.0000 
     50 CZ        145.9600  138.9600  198.2600 C.ar      5 PHE5        0.0000 
     51 CA        144.9200  133.1100  193.4400 C.3       6 GLY6        0.0000 
     52 CA        146.3300  132.6400  193.2500 C.3       6 GLY6        0.0000 
     53 CA        141.6700  142.2700  193.7700 C.3       6 GLY6        0.0000 
     54 CA        141.4100  136.2300  195.0800 C.3       6 GLY6        0.0000 
     55 CA        142.8200  135.7600  194.8900 C.3       6 GLY6        0.0000 
     56 CA        144.2300  135.2800  194.6900 C.3       6 GLY6        0.0000 
     57 CA        143.8100  133.8900  195.0700 C.3       6 GLY6        0.0000 
     58 CA        143.3900  132.5000  195.4500 C.3       6 GLY6        0.0000 
     59 CA        146.0500  136.1900  194.1300 C.3       6 GLY6        0.0000 
     60 CA        145.6300  134.8000  194.5000 C.3       6 GLY6        0.0000 
     61 CA        147.4600  135.7200  193.9300 C.3       6 GLY6        0.0000 
     62 CA        147.0400  134.3300  194.3100 C.3       6 GLY6        0.0000 
     63 CA        142.6900  134.6700  196.7000 C.3       6 GLY6        0.0000 
     64 CA        147.7600  136.0200  195.3700 C.3       6 GLY6        0.0000 
     65 CA        146.2300  135.4000  197.3800 C.3       6 GLY6        0.0000 
     66 CA        148.0600  136.3200  196.8100 C.3       6 GLY6        0.0000 
     67 DU        143.9500  138.8400  195.5700 H         7 CUB7        0.0000 
     68 DU        144.9400  136.9700  195.7600 H         7 CUB7        0.0000 
     69 DU        144.5200  135.5800  196.1300 H         7 CUB7        0.0000 
     70 DU        146.3500  136.4900  195.5700 H         7 CUB7        0.0000 
@<TRIPOS>BOND
@<TRIPOS>SUBSTRUCTURE
     1 SER1        1 GROUP   
     2 ALA2        3 GROUP   
     3 ASP3       10 GROUP   
     4 LYS4       15 GROUP   
     5 PHE5       16 GROUP   
     6 GLY6       51 GROUP   
     7 CUB7       67 GROUP   
@<TRIPOS>SET

