#    Name: 6dg7_5_SRO
#    Modification time : Fri May 22 19:33:35 2020

@<TRIPOS>MOLECULE
6dg7_5_SRO
   13    14     1     0     0
SMALL
NO_CHARGES


@<TRIPOS>ATOM
      1 OH        176.2690  142.1330  196.0810 O.3       1 SRO508      0.0000 
      2 CZ3       176.3740  140.7390  196.0050 C.ar      1 SRO508      0.0000 
      3 CH2       177.5780  140.1140  196.3330 C.ar      1 SRO508      0.0000 
      4 CZ2       177.6880  138.7320  196.2600 C.ar      1 SRO508      0.0000 
      5 CE2       176.5700  137.9570  195.8510 C.ar      1 SRO508      0.0000 
      6 NE1       176.4130  136.6180  195.6980 N.pl3     1 SRO508      0.0000 
      7 CD1       175.1880  136.3440  195.2900 C.2       1 SRO508      0.0000 
      8 CG        174.4780  137.5330  195.1650 C.2       1 SRO508      0.0000 
      9 CD2       175.3870  138.5690  195.5290 C.ar      1 SRO508      0.0000 
     10 CE3       175.2780  139.9790  195.6040 C.ar      1 SRO508      0.0000 
     11 CB        173.0240  137.7010  194.7230 C.3       1 SRO508      0.0000 
     12 CA        172.0310  137.0060  195.6510 C.3       1 SRO508      0.0000 
     13 NZ        171.9490  135.5920  195.3340 N.4       1 SRO508      0.0000 
@<TRIPOS>BOND
     1    1    2 1    
     2    2    3 ar   
     3    2   10 ar   
     4    3    4 ar   
     5    4    5 ar   
     6    5    6 1    
     7    5    9 ar   
     8    6    7 1    
     9    7    8 2    
    10    8    9 1    
    11    8   11 1    
    12    9   10 ar   
    13   11   12 1    
    14   12   13 1    
@<TRIPOS>SUBSTRUCTURE
     1 SRO508      1 GROUP   
@<TRIPOS>SET

