#    Name: 6dg7_1_SRO
#    Modification time : Fri May 22 19:33:11 2020

@<TRIPOS>MOLECULE
6dg7_1_SRO
   13    14     1     0     0
SMALL
NO_CHARGES


@<TRIPOS>ATOM
      1 OH        148.5540  138.3390  195.7900 O.3       1 SRO508      0.0000 
      2 CZ3       147.2880  137.7590  195.6600 C.ar      1 SRO508      0.0000 
      3 CH2       147.1660  136.3890  195.4240 C.ar      1 SRO508      0.0000 
      4 CZ2       145.9090  135.8120  195.2960 C.ar      1 SRO508      0.0000 
      5 CE2       144.7480  136.6240  195.4030 C.ar      1 SRO508      0.0000 
      6 NE1       143.4260  136.3260  195.3190 N.pl3     1 SRO508      0.0000 
      7 CD1       142.6970  137.4150  195.4840 C.2       1 SRO508      0.0000 
      8 CG        143.5500  138.4940  195.6890 C.2       1 SRO508      0.0000 
      9 CD2       144.8710  137.9690  195.6330 C.ar      1 SRO508      0.0000 
     10 CE3       146.1520  138.5550  195.7660 C.ar      1 SRO508      0.0000 
     11 CB        143.1590  139.9510  195.9250 C.3       1 SRO508      0.0000 
     12 CA        141.9110  140.3470  195.1420 C.3       1 SRO508      0.0000 
     13 NZ        141.2460  141.4610  195.7930 N.4       1 SRO508      0.0000 
@<TRIPOS>BOND
     1    1    2 1    
     2    2    3 ar   
     3    2   10 ar   
     4    3    4 ar   
     5    4    5 ar   
     6    5    6 1    
     7    5    9 ar   
     8    6    7 1    
     9    7    8 2    
    10    8    9 1    
    11    8   11 1    
    12    9   10 ar   
    13   11   12 1    
    14   12   13 1    
@<TRIPOS>SUBSTRUCTURE
     1 SRO508      1 GROUP   
@<TRIPOS>SET

