#    Name: 6dg7_1_SRO_CAVITY_N1_ALL
#    Modification time : Fri May 22 19:33:12 2020

@<TRIPOS>MOLECULE
6dg7_1_SRO_CAVITY_N1_ALL
  121     0     7     0     0
SMALL
NO_CHARGES


@<TRIPOS>ATOM
      1 OG        138.4800  140.9500  185.3200 O.3       1 SER1        0.0000 
      2 OG        139.4700  139.0800  185.5100 O.3       1 SER1        0.0000 
      3 OG        139.2000  142.6400  186.3900 O.3       1 SER1        0.0000 
      4 OG        138.7800  141.2500  186.7600 O.3       1 SER1        0.0000 
      5 OG        139.4900  142.9400  187.8300 O.3       1 SER1        0.0000 
      6 OG        140.4800  141.0700  188.0100 O.3       1 SER1        0.0000 
      7 OG        139.8500  141.3600  194.3400 O.3       1 SER1        0.0000 
      8 OG        142.9900  134.9700  198.1400 O.3       1 SER1        0.0000 
      9 OG        144.7000  134.7900  199.3900 O.3       1 SER1        0.0000 
     10 OG        144.2800  133.4000  199.7600 O.3       1 SER1        0.0000 
     11 N         139.7900  143.2400  189.2700 N.am      2 ALA2        0.0000 
     12 N         141.2000  142.7600  189.0700 N.am      2 ALA2        0.0000 
     13 N         139.6700  142.1500  191.0800 N.am      2 ALA2        0.0000 
     14 N         141.0800  141.6700  190.8900 N.am      2 ALA2        0.0000 
     15 N         139.9700  142.4500  192.5200 N.am      2 ALA2        0.0000 
     16 N         141.3800  141.9700  192.3300 N.am      2 ALA2        0.0000 
     17 N         141.5500  141.1800  195.5800 N.am      2 ALA2        0.0000 
     18 N         148.1800  137.4100  195.0000 N.am      2 ALA2        0.0000 
     19 N         144.6700  140.5300  196.6400 N.am      2 ALA2        0.0000 
     20 N         144.2500  139.1400  197.0100 N.am      2 ALA2        0.0000 
     21 N         148.4800  137.7100  196.4400 N.am      2 ALA2        0.0000 
     22 O         143.8600  132.0100  200.1400 O.2       2 ALA2        0.0000 
     23 OD1       137.0700  141.4300  185.5200 O.co2     3 ASP3        0.0000 
     24 OD1       136.6500  140.0400  185.8900 O.co2     3 ASP3        0.0000 
     25 OD1       135.5400  140.8100  187.5200 O.co2     3 ASP3        0.0000 
     26 OD1       137.3700  141.7300  186.9600 O.co2     3 ASP3        0.0000 
     27 OD1       145.1900  129.5600  192.5600 O.co2     3 ASP3        0.0000 
     28 OD1       144.7700  128.1700  192.9400 O.co2     3 ASP3        0.0000 
     29 OD1       144.3500  126.7800  193.3100 O.co2     3 ASP3        0.0000 
     30 OD1       145.9100  131.2500  193.6200 O.co2     3 ASP3        0.0000 
     31 OD1       145.4900  129.8600  194.0000 O.co2     3 ASP3        0.0000 
     32 OD1       145.0700  128.4700  194.3700 O.co2     3 ASP3        0.0000 
     33 OD1       144.6500  127.0800  194.7500 O.co2     3 ASP3        0.0000 
     34 OD1       145.2200  133.4100  194.8800 O.co2     3 ASP3        0.0000 
     35 OD1       144.8000  132.0200  195.2500 O.co2     3 ASP3        0.0000 
     36 OD1       144.3800  130.6300  195.6300 O.co2     3 ASP3        0.0000 
     37 OD1       145.3700  128.7600  195.8100 O.co2     3 ASP3        0.0000 
     38 OD1       143.6800  132.8000  196.8900 O.co2     3 ASP3        0.0000 
     39 OD1       145.9300  135.1000  195.9400 O.co2     3 ASP3        0.0000 
     40 OD1       144.4000  134.4900  197.9500 O.co2     3 ASP3        0.0000 
     41 OD1       143.9800  133.1000  198.3300 O.co2     3 ASP3        0.0000 
     42 NZ        136.9500  140.3400  187.3300 N.4       4 LYS4        0.0000 
     43 NZ        139.0700  141.5500  188.2000 N.4       4 LYS4        0.0000 
     44 NZ        139.3700  141.8500  189.6400 N.4       4 LYS4        0.0000 
     45 NZ        144.9500  127.3700  196.1900 N.4       4 LYS4        0.0000 
     46 NZ        142.2800  133.2800  197.0800 N.4       4 LYS4        0.0000 
     47 NZ        143.5600  131.7100  198.7000 N.4       4 LYS4        0.0000 
     48 CZ        136.5300  138.9500  187.7100 C.ar      5 PHE5        0.0000 
     49 CZ        137.9400  138.4700  187.5100 C.ar      5 PHE5        0.0000 
     50 CZ        139.7700  139.3800  186.9500 C.ar      5 PHE5        0.0000 
     51 CZ        136.8300  139.2500  189.1500 C.ar      5 PHE5        0.0000 
     52 CZ        138.6600  140.1600  188.5800 C.ar      5 PHE5        0.0000 
     53 CZ        140.0600  139.6800  188.3900 C.ar      5 PHE5        0.0000 
     54 CZ        138.9500  140.4600  190.0200 C.ar      5 PHE5        0.0000 
     55 CZ        140.7800  141.3700  189.4500 C.ar      5 PHE5        0.0000 
     56 CZ        140.3600  139.9800  189.8300 C.ar      5 PHE5        0.0000 
     57 CZ        139.2500  140.7600  191.4600 C.ar      5 PHE5        0.0000 
     58 CZ        140.6600  140.2800  191.2600 C.ar      5 PHE5        0.0000 
     59 CZ        139.5500  141.0600  192.9000 C.ar      5 PHE5        0.0000 
     60 CZ        140.9600  140.5800  192.7000 C.ar      5 PHE5        0.0000 
     61 CZ        141.2600  140.8800  194.1400 C.ar      5 PHE5        0.0000 
     62 CZ        140.8400  139.4900  194.5200 C.ar      5 PHE5        0.0000 
     63 CZ        143.0800  141.7900  193.5800 C.ar      5 PHE5        0.0000 
     64 CZ        142.6600  140.4000  193.9500 C.ar      5 PHE5        0.0000 
     65 CZ        142.2500  139.0100  194.3300 C.ar      5 PHE5        0.0000 
     66 CZ        141.8300  137.6200  194.7000 C.ar      5 PHE5        0.0000 
     67 CZ        144.0700  139.9300  193.7600 C.ar      5 PHE5        0.0000 
     68 CZ        143.6500  138.5400  194.1300 C.ar      5 PHE5        0.0000 
     69 CZ        143.2400  137.1500  194.5100 C.ar      5 PHE5        0.0000 
     70 CZ        144.6400  136.6700  194.3200 C.ar      5 PHE5        0.0000 
     71 CZ        146.4700  137.5800  193.7500 C.ar      5 PHE5        0.0000 
     72 CZ        141.1300  139.7900  195.9600 C.ar      5 PHE5        0.0000 
     73 CZ        142.9600  140.7000  195.3900 C.ar      5 PHE5        0.0000 
     74 CZ        142.5400  139.3100  195.7700 C.ar      5 PHE5        0.0000 
     75 CZ        142.1200  137.9200  196.1400 C.ar      5 PHE5        0.0000 
     76 CZ        141.7000  136.5300  196.5200 C.ar      5 PHE5        0.0000 
     77 CZ        141.2900  135.1400  196.8900 C.ar      5 PHE5        0.0000 
     78 CZ        144.3700  140.2300  195.2000 C.ar      5 PHE5        0.0000 
     79 CZ        143.5300  137.4500  195.9500 C.ar      5 PHE5        0.0000 
     80 CZ        143.1100  136.0600  196.3300 C.ar      5 PHE5        0.0000 
     81 CZ        145.7800  139.7500  195.0100 C.ar      5 PHE5        0.0000 
     82 CZ        145.3600  138.3600  195.3800 C.ar      5 PHE5        0.0000 
     83 CZ        146.7700  137.8800  195.1900 C.ar      5 PHE5        0.0000 
     84 CZ        142.8400  139.6100  197.2100 C.ar      5 PHE5        0.0000 
     85 CZ        143.8300  137.7500  197.3900 C.ar      5 PHE5        0.0000 
     86 CZ        146.0800  140.0500  196.4500 C.ar      5 PHE5        0.0000 
     87 CZ        145.6600  138.6600  196.8200 C.ar      5 PHE5        0.0000 
     88 CZ        145.2400  137.2700  197.2000 C.ar      5 PHE5        0.0000 
     89 CZ        144.8200  135.8800  197.5700 C.ar      5 PHE5        0.0000 
     90 CZ        147.4900  139.5700  196.2500 C.ar      5 PHE5        0.0000 
     91 CZ        147.0700  138.1800  196.6300 C.ar      5 PHE5        0.0000 
     92 CZ        146.6500  136.7900  197.0100 C.ar      5 PHE5        0.0000 
     93 CZ        145.9600  138.9600  198.2600 C.ar      5 PHE5        0.0000 
     94 CA        139.0500  137.6900  185.8800 C.3       6 GLY6        0.0000 
     95 CA        142.9400  127.2500  193.5000 C.3       6 GLY6        0.0000 
     96 CA        144.9200  133.1100  193.4400 C.3       6 GLY6        0.0000 
     97 CA        143.6600  128.9400  194.5700 C.3       6 GLY6        0.0000 
     98 CA        143.2400  127.5500  194.9400 C.3       6 GLY6        0.0000 
     99 CA        146.3300  132.6400  193.2500 C.3       6 GLY6        0.0000 
    100 CA        141.6700  142.2700  193.7700 C.3       6 GLY6        0.0000 
    101 CA        141.4100  136.2300  195.0800 C.3       6 GLY6        0.0000 
    102 CA        142.8200  135.7600  194.8900 C.3       6 GLY6        0.0000 
    103 CA        144.2300  135.2800  194.6900 C.3       6 GLY6        0.0000 
    104 CA        143.8100  133.8900  195.0700 C.3       6 GLY6        0.0000 
    105 CA        143.3900  132.5000  195.4500 C.3       6 GLY6        0.0000 
    106 CA        146.0500  136.1900  194.1300 C.3       6 GLY6        0.0000 
    107 CA        145.6300  134.8000  194.5000 C.3       6 GLY6        0.0000 
    108 CA        147.4600  135.7200  193.9300 C.3       6 GLY6        0.0000 
    109 CA        147.0400  134.3300  194.3100 C.3       6 GLY6        0.0000 
    110 CA        142.6900  134.6700  196.7000 C.3       6 GLY6        0.0000 
    111 CA        147.7600  136.0200  195.3700 C.3       6 GLY6        0.0000 
    112 CA        142.5700  133.5800  198.5200 C.3       6 GLY6        0.0000 
    113 CA        146.2300  135.4000  197.3800 C.3       6 GLY6        0.0000 
    114 CA        148.0600  136.3200  196.8100 C.3       6 GLY6        0.0000 
    115 DU        138.0600  139.5600  185.7000 H         7 CUB7        0.0000 
    116 DU        137.6400  138.1700  186.0800 H         7 CUB7        0.0000 
    117 DU        138.3600  139.8600  187.1400 H         7 CUB7        0.0000 
    118 DU        143.9500  138.8400  195.5700 H         7 CUB7        0.0000 
    119 DU        144.9400  136.9700  195.7600 H         7 CUB7        0.0000 
    120 DU        144.5200  135.5800  196.1300 H         7 CUB7        0.0000 
    121 DU        146.3500  136.4900  195.5700 H         7 CUB7        0.0000 
@<TRIPOS>BOND
@<TRIPOS>SUBSTRUCTURE
     1 SER1        1 GROUP   
     2 ALA2       11 GROUP   
     3 ASP3       23 GROUP   
     4 LYS4       42 GROUP   
     5 PHE5       48 GROUP   
     6 GLY6       94 GROUP   
     7 CUB7      115 GROUP   
@<TRIPOS>SET

