#    Name: 6dg7_5_SRO_CAVITY_N1_12
#    Modification time : Fri May 22 19:33:35 2020

@<TRIPOS>MOLECULE
6dg7_5_SRO_CAVITY_N1_12
   80     0     7     0     0
SMALL
NO_CHARGES


@<TRIPOS>ATOM
      1 OG        171.4700  135.3200  195.3000 O.3       1 SER1        0.0000 
      2 OG        177.4300  137.5700  198.2900 O.3       1 SER1        0.0000 
      3 OG        178.4200  135.7000  198.4800 O.3       1 SER1        0.0000 
      4 OG        179.1300  137.3900  199.5400 O.3       1 SER1        0.0000 
      5 N         172.6000  138.4000  195.9900 N.am      2 ALA2        0.0000 
      6 N         175.5700  142.4000  196.1100 N.am      2 ALA2        0.0000 
      7 N         174.7300  139.6100  196.8600 N.am      2 ALA2        0.0000 
      8 N         176.9800  141.9200  195.9200 N.am      2 ALA2        0.0000 
      9 OD1       183.0100  137.5400  192.4500 O.co2     3 ASP3        0.0000 
     10 OD1       180.4900  138.8000  194.2800 O.co2     3 ASP3        0.0000 
     11 OD1       180.0700  137.4100  194.6500 O.co2     3 ASP3        0.0000 
     12 OD1       183.3100  137.8400  193.8900 O.co2     3 ASP3        0.0000 
     13 OD1       184.7100  137.3700  193.7000 O.co2     3 ASP3        0.0000 
     14 OD1       184.3000  135.9800  194.0800 O.co2     3 ASP3        0.0000 
     15 OD1       179.3800  139.5700  195.9100 O.co2     3 ASP3        0.0000 
     16 OD1       178.9600  138.1800  196.2900 O.co2     3 ASP3        0.0000 
     17 OD1       178.5400  136.7900  196.6600 O.co2     3 ASP3        0.0000 
     18 OD1       179.9500  136.3200  196.4700 O.co2     3 ASP3        0.0000 
     19 OD1       178.8400  137.0900  198.1000 O.co2     3 ASP3        0.0000 
     20 OD1       180.2400  136.6200  197.9100 O.co2     3 ASP3        0.0000 
     21 NZ        183.7000  135.3800  191.2000 N.4       4 LYS4        0.0000 
     22 NZ        179.5300  134.9300  196.8500 N.4       4 LYS4        0.0000 
     23 NZ        179.8300  135.2300  198.2900 N.4       4 LYS4        0.0000 
     24 CZ        172.0100  137.8000  193.1100 C.ar      5 PHE5        0.0000 
     25 CZ        171.5900  136.4100  193.4900 C.ar      5 PHE5        0.0000 
     26 CZ        171.1700  135.0200  193.8600 C.ar      5 PHE5        0.0000 
     27 CZ        172.3100  138.1000  194.5500 C.ar      5 PHE5        0.0000 
     28 CZ        174.1300  139.0200  193.9800 C.ar      5 PHE5        0.0000 
     29 CZ        173.7100  137.6300  194.3600 C.ar      5 PHE5        0.0000 
     30 CZ        173.3000  136.2400  194.7400 C.ar      5 PHE5        0.0000 
     31 CZ        175.1200  137.1500  194.1700 C.ar      5 PHE5        0.0000 
     32 CZ        177.3700  139.4500  193.2200 C.ar      5 PHE5        0.0000 
     33 CZ        176.9500  138.0600  193.6000 C.ar      5 PHE5        0.0000 
     34 CZ        173.0200  139.7900  195.6200 C.ar      5 PHE5        0.0000 
     35 CZ        172.1800  137.0100  196.3700 C.ar      5 PHE5        0.0000 
     36 CZ        174.8500  140.7100  195.0500 C.ar      5 PHE5        0.0000 
     37 CZ        174.4300  139.3200  195.4200 C.ar      5 PHE5        0.0000 
     38 CZ        174.0100  137.9300  195.8000 C.ar      5 PHE5        0.0000 
     39 CZ        176.2600  140.2300  194.8600 C.ar      5 PHE5        0.0000 
     40 CZ        175.8400  138.8400  195.2300 C.ar      5 PHE5        0.0000 
     41 CZ        175.4200  137.4500  195.6100 C.ar      5 PHE5        0.0000 
     42 CZ        175.0000  136.0600  195.9800 C.ar      5 PHE5        0.0000 
     43 CZ        177.2500  138.3600  195.0400 C.ar      5 PHE5        0.0000 
     44 CZ        175.9900  134.1900  196.1700 C.ar      5 PHE5        0.0000 
     45 CZ        173.3200  140.0900  197.0600 C.ar      5 PHE5        0.0000 
     46 CZ        175.1500  141.0100  196.4900 C.ar      5 PHE5        0.0000 
     47 CZ        174.3100  138.2200  197.2400 C.ar      5 PHE5        0.0000 
     48 CZ        175.7200  137.7500  197.0500 C.ar      5 PHE5        0.0000 
     49 CZ        177.1300  137.2700  196.8500 C.ar      5 PHE5        0.0000 
     50 CZ        178.1200  135.4000  197.0400 C.ar      5 PHE5        0.0000 
     51 CZ        175.0300  139.9100  198.3000 C.ar      5 PHE5        0.0000 
     52 CZ        176.8600  140.8300  197.7300 C.ar      5 PHE5        0.0000 
     53 CZ        176.4400  139.4400  198.1100 C.ar      5 PHE5        0.0000 
     54 CZ        177.8500  138.9600  197.9200 C.ar      5 PHE5        0.0000 
     55 CA        170.1800  136.8900  193.6800 C.3       6 GLY6        0.0000 
     56 CA        170.4800  137.1900  195.1200 C.3       6 GLY6        0.0000 
     57 CA        176.5300  136.6700  193.9800 C.3       6 GLY6        0.0000 
     58 CA        176.1100  135.2800  194.3500 C.3       6 GLY6        0.0000 
     59 CA        178.3600  137.5900  193.4100 C.3       6 GLY6        0.0000 
     60 CA        179.7700  137.1100  193.2200 C.3       6 GLY6        0.0000 
     61 CA        181.6000  138.0200  192.6500 C.3       6 GLY6        0.0000 
     62 CA        184.0000  135.6800  192.6400 C.3       6 GLY6        0.0000 
     63 CA        176.6800  141.6200  194.4800 C.3       6 GLY6        0.0000 
     64 CA        178.0900  141.1400  194.2900 C.3       6 GLY6        0.0000 
     65 CA        176.8300  136.9700  195.4200 C.3       6 GLY6        0.0000 
     66 CA        176.4100  135.5800  195.7900 C.3       6 GLY6        0.0000 
     67 CA        179.5000  140.6700  194.0900 C.3       6 GLY6        0.0000 
     68 CA        179.0800  139.2700  194.4700 C.3       6 GLY6        0.0000 
     69 CA        178.6600  137.8800  194.8500 C.3       6 GLY6        0.0000 
     70 CA        178.2400  136.4900  195.2200 C.3       6 GLY6        0.0000 
     71 CA        177.8200  135.1000  195.6000 C.3       6 GLY6        0.0000 
     72 CA        181.4800  136.9300  194.4600 C.3       6 GLY6        0.0000 
     73 CA        182.8900  136.4500  194.2700 C.3       6 GLY6        0.0000 
     74 CA        178.3900  141.4400  195.7300 C.3       6 GLY6        0.0000 
     75 CA        177.9700  140.0500  196.1000 C.3       6 GLY6        0.0000 
     76 CA        178.2600  140.3500  197.5400 C.3       6 GLY6        0.0000 
     77 DU        171.8900  136.7100  194.9300 H         7 CUB7        0.0000 
     78 DU        176.5600  140.5300  196.2900 H         7 CUB7        0.0000 
     79 DU        176.1400  139.1400  196.6700 H         7 CUB7        0.0000 
     80 DU        177.5500  138.6600  196.4800 H         7 CUB7        0.0000 
@<TRIPOS>BOND
@<TRIPOS>SUBSTRUCTURE
     1 SER1        1 GROUP   
     2 ALA2        5 GROUP   
     3 ASP3        9 GROUP   
     4 LYS4       21 GROUP   
     5 PHE5       24 GROUP   
     6 GLY6       55 GROUP   
     7 CUB7       77 GROUP   
@<TRIPOS>SET

