#    Name: 6aja_1_NAP
#    Modification time : Fri May 22 19:28:06 2020

@<TRIPOS>MOLECULE
6aja_1_NAP
   48    52     1     0     1
SMALL
NO_CHARGES


@<TRIPOS>ATOM
      1 PA         57.7410    1.4450   23.2000 P.3       1 NAP501      0.0000 
      2 O1A        56.8660    0.4260   23.9150 O.co2     1 NAP501      0.0000 
      3 O2A        57.1510    2.4950   22.2870 O.co2     1 NAP501      0.0000 
      4 O5B        58.9410    0.7180   22.4300 O.3       1 NAP501      0.0000 
      5 C5B        59.7100   -0.3560   22.9540 C.3       1 NAP501      0.0000 
      6 C4B        59.9290   -1.4000   21.8640 C.3       1 NAP501      0.0000 
      7 O4B        58.9260   -2.4220   21.9110 O.3       1 NAP501      0.0000 
      8 C3B        59.8490   -0.8890   20.4340 C.3       1 NAP501      0.0000 
      9 O3B        61.0260   -0.1740   20.0630 O.3       1 NAP501      0.0000 
     10 C2B        59.5850   -2.1660   19.6680 C.3       1 NAP501      0.0000 
     11 O2B        60.7600   -2.9630   19.5610 O.3       1 NAP501      0.0000 
     12 C1B        58.5980   -2.8650   20.5910 C.3       1 NAP501      0.0000 
     13 N9A        57.2010   -2.4710   20.3050 N.pl3     1 NAP501      0.0000 
     14 C8A        56.3990   -1.6420   21.0210 C.2       1 NAP501      0.0000 
     15 N7A        55.1670   -1.5120   20.4540 N.2       1 NAP501      0.0000 
     16 C5A        55.1940   -2.2690   19.3660 C.ar      1 NAP501      0.0000 
     17 C6A        54.2440   -2.5700   18.3120 C.ar      1 NAP501      0.0000 
     18 N6A        53.0250   -2.0130   18.3710 N.pl3     1 NAP501      0.0000 
     19 N1A        54.6230   -3.4120   17.3230 N.ar      1 NAP501      0.0000 
     20 C2A        55.8630   -3.9600   17.2890 C.ar      1 NAP501      0.0000 
     21 N3A        56.8050   -3.7120   18.2290 N.ar      1 NAP501      0.0000 
     22 C4A        56.5180   -2.8960   19.2640 C.ar      1 NAP501      0.0000 
     23 O3         58.4880    2.2740   24.3310 O.3       1 NAP501      0.0000 
     24 PN         59.7560    3.1670   23.9720 P.3       1 NAP501      0.0000 
     25 O1N        60.6350    2.8580   25.1630 O.co2     1 NAP501      0.0000 
     26 O2N        60.2310    2.9650   22.5560 O.co2     1 NAP501      0.0000 
     27 O5D        59.1960    4.6680   24.1500 O.3       1 NAP501      0.0000 
     28 C5D        59.0550    5.5050   23.0100 C.3       1 NAP501      0.0000 
     29 C4D        58.2150    6.7320   23.3090 C.3       1 NAP501      0.0000 
     30 O4D        56.8950    6.3060   23.6180 O.3       1 NAP501      0.0000 
     31 C3D        58.7390    7.5760   24.4620 C.3       1 NAP501      0.0000 
     32 O3D        59.0120    8.9210   24.0470 O.3       1 NAP501      0.0000 
     33 C2D        57.6380    7.5760   25.4930 C.3       1 NAP501      0.0000 
     34 O2D        57.3610    8.8970   25.9780 O.3       1 NAP501      0.0000 
     35 C1D        56.4220    7.0310   24.7580 C.3       1 NAP501      0.0000 
     36 N1N        55.5240    6.2480   25.6410 N.pl3     1 NAP501      0.0000 
     37 C2N        54.2290    6.6180   25.6280 C.ar      1 NAP501      0.0000 
     38 C3N        53.2520    5.9760   26.3830 C.ar      1 NAP501      0.0000 
     39 C7N        51.8340    6.5120   26.2660 C.2       1 NAP501      0.0000 
     40 O7N        51.6410    7.7210   26.3450 O.2       1 NAP501      0.0000 
     41 N7N        50.7910    5.7010   26.0630 N.am      1 NAP501      0.0000 
     42 C4N        53.6480    4.9080   27.2080 C.ar      1 NAP501      0.0000 
     43 C5N        54.9910    4.5160   27.2230 C.ar      1 NAP501      0.0000 
     44 C6N        55.9230    5.2040   26.4200 C.ar      1 NAP501      0.0000 
     45 P2B        61.7410   -3.0370   18.2910 P.3       1 NAP501      0.0000 
     46 O1X        62.7440   -1.9120   18.4350 O.co2     1 NAP501      0.0000 
     47 O2X        62.3340   -4.4090   18.4210 O.co2     1 NAP501      0.0000 
     48 O3X        60.8740   -2.9430   17.0750 O.co2     1 NAP501      0.0000 
@<TRIPOS>BOND
     1    1    2 ar   
     2    1    3 ar   
     3    1    4 1    
     4    1   23 1    
     5    4    5 1    
     6    5    6 1    
     7    6    7 1    
     8    6    8 1    
     9    7   12 1    
    10    8    9 1    
    11    8   10 1    
    12   10   11 1    
    13   10   12 1    
    14   11   45 1    
    15   12   13 1    
    16   13   14 1    
    17   13   22 1    
    18   14   15 2    
    19   15   16 1    
    20   16   17 ar   
    21   16   22 ar   
    22   17   18 1    
    23   17   19 ar   
    24   19   20 ar   
    25   20   21 ar   
    26   21   22 ar   
    27   23   24 1    
    28   24   25 ar   
    29   24   26 ar   
    30   24   27 1    
    31   27   28 1    
    32   28   29 1    
    33   29   30 1    
    34   29   31 1    
    35   30   35 1    
    36   31   32 1    
    37   31   33 1    
    38   33   34 1    
    39   33   35 1    
    40   35   36 1    
    41   36   37 ar   
    42   36   44 ar   
    43   37   38 ar   
    44   38   39 1    
    45   38   42 ar   
    46   39   40 2    
    47   39   41 am   
    48   42   43 ar   
    49   43   44 ar   
    50   45   46 ar   
    51   45   47 ar   
    52   45   48 ar   
@<TRIPOS>SUBSTRUCTURE
     1 NAP501      1 GROUP   
@<TRIPOS>SET
ATOM$ORANGE STATIC     ATOMS   COLORGROUP SYSTEM 
42 5 5 6 6 8 8 10 10 12 12 14 14 16 16 17 17 20 \
20 22 22 28 28 29 29 31 31 33 33 35 35 37 37 38 38 39 \
39 42 42 43 43 44 44 

