#    Name: 6aja_4_NAP
#    Modification time : Fri May 22 19:28:22 2020

@<TRIPOS>MOLECULE
6aja_4_NAP
   48    52     1     0     1
SMALL
NO_CHARGES


@<TRIPOS>ATOM
      1 PA         10.1240   52.5150  -13.4570 P.3       1 NAP501      0.0000 
      2 O1A         8.9940   53.4240  -13.8480 O.co2     1 NAP501      0.0000 
      3 O2A        11.2290   52.2250  -14.4720 O.co2     1 NAP501      0.0000 
      4 O5B        10.6800   53.1430  -12.0800 O.3       1 NAP501      0.0000 
      5 C5B        11.3610   52.3840  -11.0700 C.3       1 NAP501      0.0000 
      6 C4B        12.1620   53.3110  -10.1720 C.3       1 NAP501      0.0000 
      7 O4B        13.3800   53.7550  -10.8200 O.3       1 NAP501      0.0000 
      8 C3B        11.4190   54.5900   -9.7550 C.3       1 NAP501      0.0000 
      9 O3B        10.4480   54.4710   -8.6960 O.3       1 NAP501      0.0000 
     10 C2B        12.6000   55.4420   -9.3830 C.3       1 NAP501      0.0000 
     11 O2B        13.1250   54.9670   -8.1560 O.3       1 NAP501      0.0000 
     12 C1B        13.5900   55.1360  -10.4970 C.3       1 NAP501      0.0000 
     13 N9A        13.3250   55.9990  -11.6690 N.pl3     1 NAP501      0.0000 
     14 C8A        12.8360   55.6210  -12.8610 C.2       1 NAP501      0.0000 
     15 N7A        12.7160   56.6930  -13.6800 N.2       1 NAP501      0.0000 
     16 C5A        13.1330   57.7700  -13.0050 C.ar      1 NAP501      0.0000 
     17 C6A        13.2740   59.2150  -13.2750 C.ar      1 NAP501      0.0000 
     18 N6A        12.9210   59.7050  -14.4850 N.pl3     1 NAP501      0.0000 
     19 N1A        13.7590   60.0140  -12.2810 N.ar      1 NAP501      0.0000 
     20 C2A        14.1030   59.5260  -11.0730 C.ar      1 NAP501      0.0000 
     21 N3A        13.9980   58.2160  -10.7760 N.ar      1 NAP501      0.0000 
     22 C4A        13.5340   57.3110  -11.6790 C.ar      1 NAP501      0.0000 
     23 O3          9.6470   51.0790  -12.9250 O.3       1 NAP501      0.0000 
     24 PN          8.4200   50.8380  -11.9250 P.3       1 NAP501      0.0000 
     25 O1N         8.2800   49.3230  -11.9560 O.co2     1 NAP501      0.0000 
     26 O2N         8.3620   51.6880  -10.6570 O.co2     1 NAP501      0.0000 
     27 O5D         7.2620   51.5520  -12.7460 O.3       1 NAP501      0.0000 
     28 C5D         6.9790   51.0950  -14.0470 C.3       1 NAP501      0.0000 
     29 C4D         5.5420   51.4480  -14.2920 C.3       1 NAP501      0.0000 
     30 O4D         5.5080   51.8610  -15.6410 O.3       1 NAP501      0.0000 
     31 C3D         4.6620   50.2290  -14.1370 C.3       1 NAP501      0.0000 
     32 O3D         3.3390   50.6650  -13.8190 O.3       1 NAP501      0.0000 
     33 C2D         4.7840   49.5690  -15.4930 C.3       1 NAP501      0.0000 
     34 O2D         3.5600   48.9970  -15.9280 O.3       1 NAP501      0.0000 
     35 C1D         5.1940   50.7130  -16.4350 C.3       1 NAP501      0.0000 
     36 N1N         6.3200   50.4620  -17.3630 N.pl3     1 NAP501      0.0000 
     37 C2N         6.2650   51.1070  -18.5500 C.ar      1 NAP501      0.0000 
     38 C3N         7.2540   50.9620  -19.5070 C.ar      1 NAP501      0.0000 
     39 C7N         7.1670   51.6890  -20.8270 C.2       1 NAP501      0.0000 
     40 O7N         6.0820   52.0700  -21.2470 O.2       1 NAP501      0.0000 
     41 N7N         8.2730   51.9160  -21.5540 N.am      1 NAP501      0.0000 
     42 C4N         8.3210   50.1270  -19.2030 C.ar      1 NAP501      0.0000 
     43 C5N         8.3780   49.4710  -17.9830 C.ar      1 NAP501      0.0000 
     44 C6N         7.3630   49.6580  -17.0660 C.ar      1 NAP501      0.0000 
     45 P2B        12.8440   55.6630   -6.7530 P.3       1 NAP501      0.0000 
     46 O1X        11.3460   55.5060   -6.5780 O.co2     1 NAP501      0.0000 
     47 O2X        13.6930   54.8120   -5.8330 O.co2     1 NAP501      0.0000 
     48 O3X        13.3560   57.0730   -6.9520 O.co2     1 NAP501      0.0000 
@<TRIPOS>BOND
     1    1    2 ar   
     2    1    3 ar   
     3    1    4 1    
     4    1   23 1    
     5    4    5 1    
     6    5    6 1    
     7    6    7 1    
     8    6    8 1    
     9    7   12 1    
    10    8    9 1    
    11    8   10 1    
    12   10   11 1    
    13   10   12 1    
    14   11   45 1    
    15   12   13 1    
    16   13   14 1    
    17   13   22 1    
    18   14   15 2    
    19   15   16 1    
    20   16   17 ar   
    21   16   22 ar   
    22   17   18 1    
    23   17   19 ar   
    24   19   20 ar   
    25   20   21 ar   
    26   21   22 ar   
    27   23   24 1    
    28   24   25 ar   
    29   24   26 ar   
    30   24   27 1    
    31   27   28 1    
    32   28   29 1    
    33   29   30 1    
    34   29   31 1    
    35   30   35 1    
    36   31   32 1    
    37   31   33 1    
    38   33   34 1    
    39   33   35 1    
    40   35   36 1    
    41   36   37 ar   
    42   36   44 ar   
    43   37   38 ar   
    44   38   39 1    
    45   38   42 ar   
    46   39   40 2    
    47   39   41 am   
    48   42   43 ar   
    49   43   44 ar   
    50   45   46 ar   
    51   45   47 ar   
    52   45   48 ar   
@<TRIPOS>SUBSTRUCTURE
     1 NAP501      1 GROUP   
@<TRIPOS>SET
ATOM$ORANGE STATIC     ATOMS   COLORGROUP SYSTEM 
42 5 5 6 6 8 8 10 10 12 12 14 14 16 16 17 17 20 \
20 22 22 28 28 29 29 31 31 33 33 35 35 37 37 38 38 39 \
39 42 42 43 43 44 44 

