#    Name: 6ote_1_SSA
#    Modification time : Fri May 22 19:31:01 2020

@<TRIPOS>MOLECULE
6ote_1_SSA
   29    31     1     0     0
SMALL
NO_CHARGES


@<TRIPOS>ATOM
      1 N10        15.9700    2.0920   25.9740 N.4       1 SSA501      0.0000 
      2 CA         16.6730    3.3610   25.7200 C.3       1 SSA501      0.0000 
      3 CB         16.8290    3.7090   24.2420 C.3       1 SSA501      0.0000 
      4 OG         15.5590    3.8630   23.6210 O.3       1 SSA501      0.0000 
      5 C9         15.8570    4.4470   26.4190 C.2       1 SSA501      0.0000 
      6 O9         14.7870    4.2300   26.9800 O.2       1 SSA501      0.0000 
      7 N8         16.3710    5.7790   26.4180 N.am      1 SSA501      0.0000 
      8 S1         15.7120    7.0790   27.0720 S.o2      1 SSA501      0.0000 
      9 O1S        15.2280    6.6500   28.3360 O.2       1 SSA501      0.0000 
     10 O2S        16.5460    8.2210   26.9510 O.2       1 SSA501      0.0000 
     11 O5'        14.4070    7.4050   26.2130 O.3       1 SSA501      0.0000 
     12 C5'        14.4790    7.2170   24.8070 C.3       1 SSA501      0.0000 
     13 C4'        13.7150    8.2890   24.0720 C.3       1 SSA501      0.0000 
     14 O4'        12.3110    8.2250   24.4320 O.3       1 SSA501      0.0000 
     15 C3'        14.1090    9.7190   24.3980 C.3       1 SSA501      0.0000 
     16 O3'        15.2740   10.1410   23.7130 O.3       1 SSA501      0.0000 
     17 C2'        12.8580   10.5040   24.0260 C.3       1 SSA501      0.0000 
     18 O2'        12.7910   10.7040   22.6220 O.3       1 SSA501      0.0000 
     19 C1'        11.7540    9.5230   24.4270 C.3       1 SSA501      0.0000 
     20 N9         11.1990    9.8180   25.7630 N.pl3     1 SSA501      0.0000 
     21 C8         11.7880    9.5860   26.9790 C.2       1 SSA501      0.0000 
     22 N7         11.0720    9.9760   28.0070 N.2       1 SSA501      0.0000 
     23 C5          9.9270   10.5020   27.4270 C.ar      1 SSA501      0.0000 
     24 C6          8.7680   11.0920   27.9700 C.ar      1 SSA501      0.0000 
     25 N6          8.5720   11.2750   29.2780 N.pl3     1 SSA501      0.0000 
     26 N1          7.8100   11.5060   27.1130 N.ar      1 SSA501      0.0000 
     27 C2          8.0050   11.3440   25.8020 C.ar      1 SSA501      0.0000 
     28 N3          9.0550   10.8110   25.1750 N.ar      1 SSA501      0.0000 
     29 C4          9.9890   10.4070   26.0450 C.ar      1 SSA501      0.0000 
@<TRIPOS>BOND
     1    1    2 1    
     2    2    3 1    
     3    2    5 1    
     4    3    4 1    
     5    5    6 2    
     6    5    7 am   
     7    7    8 1    
     8    8    9 2    
     9    8   10 2    
    10    8   11 1    
    11   11   12 1    
    12   12   13 1    
    13   13   14 1    
    14   13   15 1    
    15   14   19 1    
    16   15   16 1    
    17   15   17 1    
    18   17   18 1    
    19   17   19 1    
    20   19   20 1    
    21   20   21 1    
    22   20   29 1    
    23   21   22 2    
    24   22   23 1    
    25   23   24 ar   
    26   23   29 ar   
    27   24   25 1    
    28   24   26 ar   
    29   26   27 ar   
    30   27   28 ar   
    31   28   29 ar   
@<TRIPOS>SUBSTRUCTURE
     1 SSA501      1 GROUP   
@<TRIPOS>SET

