#    Name: 6ote_1_SSA_CAVITY_N1_ALL
#    Modification time : Fri May 22 19:31:02 2020

@<TRIPOS>MOLECULE
6ote_1_SSA_CAVITY_N1_ALL
   86     0     6     0     0
SMALL
NO_CHARGES


@<TRIPOS>ATOM
      1 OG         22.1300    3.3100   28.7700 O.3       1 SER1        0.0000 
      2 OG         21.2200    4.4800   28.5600 O.3       1 SER1        0.0000 
      3 OG         22.0600    5.3200   29.4700 O.3       1 SER1        0.0000 
      4 OG         15.0800    8.2400   33.2900 O.3       1 SER1        0.0000 
      5 O          15.2900    2.2300   31.2100 O.2       2 ALA2        0.0000 
      6 O          13.5400    2.9600   32.1700 O.2       2 ALA2        0.0000 
      7 O          22.9100    6.1500   30.3800 O.2       2 ALA2        0.0000 
      8 N          16.0400    7.8800   37.6700 N.am      2 ALA2        0.0000 
      9 OD1        15.2000    3.8300   29.8200 O.co2     3 ASP3        0.0000 
     10 OD1        14.3000    5.4000   31.6900 O.co2     3 ASP3        0.0000 
     11 OD1        15.1300    5.8400   30.5100 O.co2     3 ASP3        0.0000 
     12 OD1        15.9800    6.6700   31.4200 O.co2     3 ASP3        0.0000 
     13 OD1        14.2300    7.4000   32.3800 O.co2     3 ASP3        0.0000 
     14 OD1        21.1500    6.4800   29.2500 O.co2     3 ASP3        0.0000 
     15 OD1        20.2500    8.0500   31.1200 O.co2     3 ASP3        0.0000 
     16 NZ         16.2100    1.0700   31.4300 N.4       4 LYS4        0.0000 
     17 NZ         16.1100    2.6700   30.0400 N.4       4 LYS4        0.0000 
     18 NZ         17.7700    3.5300   27.6900 N.4       4 LYS4        0.0000 
     19 NZ         18.8000    1.1700   31.3800 N.4       4 LYS4        0.0000 
     20 NZ         19.6300    1.6100   30.2100 N.4       4 LYS4        0.0000 
     21 NZ         20.4600    2.0400   29.0400 N.4       4 LYS4        0.0000 
     22 NZ         17.0500    1.9000   32.3400 N.4       4 LYS4        0.0000 
     23 NZ         17.8800    2.3400   31.1700 N.4       4 LYS4        0.0000 
     24 NZ         18.7100    2.7700   29.9900 N.4       4 LYS4        0.0000 
     25 NZ         19.5400    3.2100   28.8200 N.4       4 LYS4        0.0000 
     26 NZ         15.3100    2.6300   33.2900 N.4       4 LYS4        0.0000 
     27 NZ         16.1400    3.0700   32.1200 N.4       4 LYS4        0.0000 
     28 NZ         16.9600    3.5000   30.9500 N.4       4 LYS4        0.0000 
     29 NZ         17.7900    3.9400   29.7800 N.4       4 LYS4        0.0000 
     30 NZ         14.3900    3.8000   33.0800 N.4       4 LYS4        0.0000 
     31 NZ         15.2200    4.2300   31.9000 N.4       4 LYS4        0.0000 
     32 NZ         18.8200    1.5800   33.4600 N.4       4 LYS4        0.0000 
     33 NZ         17.9000    2.7400   33.2500 N.4       4 LYS4        0.0000 
     34 NZ         16.9800    3.9100   33.0300 N.4       4 LYS4        0.0000 
     35 NZ         16.0700    5.0700   32.8100 N.4       4 LYS4        0.0000 
     36 NZ         14.3200    5.8000   33.7700 N.4       4 LYS4        0.0000 
     37 NZ         15.1500    6.2400   32.6000 N.4       4 LYS4        0.0000 
     38 NZ         18.7500    3.5800   34.1600 N.4       4 LYS4        0.0000 
     39 NZ         17.8300    4.7400   33.9400 N.4       4 LYS4        0.0000 
     40 NZ         16.9100    5.9100   33.7200 N.4       4 LYS4        0.0000 
     41 NZ         17.7400    6.3500   32.5500 N.4       4 LYS4        0.0000 
     42 NZ         16.0000    7.0800   33.5100 N.4       4 LYS4        0.0000 
     43 NZ         19.6000    4.4200   35.0700 N.4       4 LYS4        0.0000 
     44 NZ         18.6800    5.5800   34.8500 N.4       4 LYS4        0.0000 
     45 NZ         17.7600    6.7500   34.6300 N.4       4 LYS4        0.0000 
     46 NZ         16.0200    7.4800   35.5900 N.4       4 LYS4        0.0000 
     47 NZ         16.8400    7.9100   34.4200 N.4       4 LYS4        0.0000 
     48 NZ         15.1000    8.6500   35.3700 N.4       4 LYS4        0.0000 
     49 NZ         15.9300    9.0800   34.2000 N.4       4 LYS4        0.0000 
     50 NZ         19.5300    6.4200   35.7600 N.4       4 LYS4        0.0000 
     51 NZ         18.6100    7.5900   35.5400 N.4       4 LYS4        0.0000 
     52 NZ         15.9500    9.4800   36.2800 N.4       4 LYS4        0.0000 
     53 CA         14.3700    3.4000   30.9900 C.3       5 GLY6        0.0000 
     54 CA         13.4700    4.9700   32.8600 C.3       5 GLY6        0.0000 
     55 CA         20.4800    2.4400   31.1200 C.3       5 GLY6        0.0000 
     56 CA         19.5600    3.6100   30.9000 C.3       5 GLY6        0.0000 
     57 CA         20.5000    2.8500   33.2000 C.3       5 GLY6        0.0000 
     58 CA         22.1500    3.7200   30.8600 C.3       5 GLY6        0.0000 
     59 CA         22.9800    4.1500   29.6800 C.3       5 GLY6        0.0000 
     60 CA         19.5800    4.0100   32.9900 C.3       5 GLY6        0.0000 
     61 CA         20.4100    4.4500   31.8100 C.3       5 GLY6        0.0000 
     62 CA         21.2400    4.8800   30.6400 C.3       5 GLY6        0.0000 
     63 CA         18.6600    5.1800   32.7700 C.3       5 GLY6        0.0000 
     64 CA         19.4900    5.6100   31.6000 C.3       5 GLY6        0.0000 
     65 CA         20.3200    6.0500   30.4200 C.3       5 GLY6        0.0000 
     66 CA         19.5100    6.0200   33.6800 C.3       5 GLY6        0.0000 
     67 CA         20.3400    6.4500   32.5100 C.3       5 GLY6        0.0000 
     68 CA         21.1700    6.8900   31.3300 C.3       5 GLY6        0.0000 
     69 CA         18.7000    5.9900   36.9300 C.3       5 GLY6        0.0000 
     70 CA         20.3600    6.8500   34.5900 C.3       5 GLY6        0.0000 
     71 CA         17.7800    7.1500   36.7200 C.3       5 GLY6        0.0000 
     72 CA         16.8600    8.3200   36.5000 C.3       5 GLY6        0.0000 
     73 CA         18.6300    7.9900   37.6300 C.3       5 GLY6        0.0000 
     74 DU         16.0500    4.6700   30.7300 H         6 CUB7        0.0000 
     75 DU         16.8700    5.1000   29.5600 H         6 CUB7        0.0000 
     76 DU         19.6500    2.0100   32.2900 H         6 CUB7        0.0000 
     77 DU         21.3100    2.8800   29.9500 H         6 CUB7        0.0000 
     78 DU         18.7300    3.1800   32.0800 H         6 CUB7        0.0000 
     79 DU         20.3900    4.0400   29.7300 H         6 CUB7        0.0000 
     80 DU         17.8100    4.3400   31.8600 H         6 CUB7        0.0000 
     81 DU         18.6400    4.7800   30.6900 H         6 CUB7        0.0000 
     82 DU         16.8900    5.5100   31.6400 H         6 CUB7        0.0000 
     83 DU         18.5700    6.7800   31.3800 H         6 CUB7        0.0000 
     84 DU         16.8200    7.5100   32.3300 H         6 CUB7        0.0000 
     85 DU         18.5900    7.1800   33.4600 H         6 CUB7        0.0000 
     86 DU         20.2700    8.4600   33.2000 H         6 CUB7        0.0000 
@<TRIPOS>BOND
@<TRIPOS>SUBSTRUCTURE
     1 SER1        1 GROUP   
     2 ALA2        5 GROUP   
     3 ASP3        9 GROUP   
     4 LYS4       16 GROUP   
     5 GLY6       53 GROUP   
     6 CUB7       74 GROUP   
@<TRIPOS>SET

