#    Name: 6ote_1_SSA_CAVITY_N1_6
#    Modification time : Fri May 22 19:31:02 2020

@<TRIPOS>MOLECULE
6ote_1_SSA_CAVITY_N1_6
   45     0     6     0     0
SMALL
NO_CHARGES


@<TRIPOS>ATOM
      1 OG         21.2200    4.4800   28.5600 O.3       1 SER1        0.0000 
      2 OG         15.0800    8.2400   33.2900 O.3       1 SER1        0.0000 
      3 O          15.2900    2.2300   31.2100 O.2       2 ALA2        0.0000 
      4 O          13.5400    2.9600   32.1700 O.2       2 ALA2        0.0000 
      5 OD1        15.2000    3.8300   29.8200 O.co2     3 ASP3        0.0000 
      6 OD1        14.3000    5.4000   31.6900 O.co2     3 ASP3        0.0000 
      7 OD1        15.1300    5.8400   30.5100 O.co2     3 ASP3        0.0000 
      8 OD1        15.9800    6.6700   31.4200 O.co2     3 ASP3        0.0000 
      9 OD1        14.2300    7.4000   32.3800 O.co2     3 ASP3        0.0000 
     10 OD1        21.1500    6.4800   29.2500 O.co2     3 ASP3        0.0000 
     11 OD1        20.2500    8.0500   31.1200 O.co2     3 ASP3        0.0000 
     12 NZ         16.2100    1.0700   31.4300 N.4       4 LYS4        0.0000 
     13 NZ         16.1100    2.6700   30.0400 N.4       4 LYS4        0.0000 
     14 NZ         17.7700    3.5300   27.6900 N.4       4 LYS4        0.0000 
     15 NZ         19.6300    1.6100   30.2100 N.4       4 LYS4        0.0000 
     16 NZ         20.4600    2.0400   29.0400 N.4       4 LYS4        0.0000 
     17 NZ         17.8800    2.3400   31.1700 N.4       4 LYS4        0.0000 
     18 NZ         18.7100    2.7700   29.9900 N.4       4 LYS4        0.0000 
     19 NZ         19.5400    3.2100   28.8200 N.4       4 LYS4        0.0000 
     20 NZ         16.1400    3.0700   32.1200 N.4       4 LYS4        0.0000 
     21 NZ         16.9600    3.5000   30.9500 N.4       4 LYS4        0.0000 
     22 NZ         17.7900    3.9400   29.7800 N.4       4 LYS4        0.0000 
     23 NZ         14.3900    3.8000   33.0800 N.4       4 LYS4        0.0000 
     24 NZ         15.2200    4.2300   31.9000 N.4       4 LYS4        0.0000 
     25 NZ         16.9800    3.9100   33.0300 N.4       4 LYS4        0.0000 
     26 NZ         16.0700    5.0700   32.8100 N.4       4 LYS4        0.0000 
     27 NZ         14.3200    5.8000   33.7700 N.4       4 LYS4        0.0000 
     28 NZ         15.1500    6.2400   32.6000 N.4       4 LYS4        0.0000 
     29 NZ         16.9100    5.9100   33.7200 N.4       4 LYS4        0.0000 
     30 NZ         17.7400    6.3500   32.5500 N.4       4 LYS4        0.0000 
     31 NZ         16.0000    7.0800   33.5100 N.4       4 LYS4        0.0000 
     32 CA         14.3700    3.4000   30.9900 C.3       5 GLY6        0.0000 
     33 CA         13.4700    4.9700   32.8600 C.3       5 GLY6        0.0000 
     34 CA         19.5600    3.6100   30.9000 C.3       5 GLY6        0.0000 
     35 CA         18.6600    5.1800   32.7700 C.3       5 GLY6        0.0000 
     36 CA         19.4900    5.6100   31.6000 C.3       5 GLY6        0.0000 
     37 CA         20.3200    6.0500   30.4200 C.3       5 GLY6        0.0000 
     38 DU         16.0500    4.6700   30.7300 H         6 CUB7        0.0000 
     39 DU         16.8700    5.1000   29.5600 H         6 CUB7        0.0000 
     40 DU         20.3900    4.0400   29.7300 H         6 CUB7        0.0000 
     41 DU         17.8100    4.3400   31.8600 H         6 CUB7        0.0000 
     42 DU         18.6400    4.7800   30.6900 H         6 CUB7        0.0000 
     43 DU         16.8900    5.5100   31.6400 H         6 CUB7        0.0000 
     44 DU         18.5700    6.7800   31.3800 H         6 CUB7        0.0000 
     45 DU         16.8200    7.5100   32.3300 H         6 CUB7        0.0000 
@<TRIPOS>BOND
@<TRIPOS>SUBSTRUCTURE
     1 SER1        1 GROUP   
     2 ALA2        3 GROUP   
     3 ASP3        5 GROUP   
     4 LYS4       12 GROUP   
     5 GLY6       32 GROUP   
     6 CUB7       38 GROUP   
@<TRIPOS>SET

