#    Name: 6fnu_1_FAD
#    Modification time : Fri May 22 19:24:33 2020

@<TRIPOS>MOLECULE
6fnu_1_FAD
   53    58     1     0     1
SMALL
NO_CHARGES


@<TRIPOS>ATOM
      1 PA         18.3750   -8.4850   12.0100 P.3       1 FAD701      0.0000 
      2 O1A        19.1700   -9.7590   11.9600 O.co2     1 FAD701      0.0000 
      3 O2A        17.8230   -8.0180   13.3300 O.co2     1 FAD701      0.0000 
      4 O5B        17.1060   -8.5690   11.0130 O.3       1 FAD701      0.0000 
      5 C5B        17.2120   -8.4360    9.6000 C.3       1 FAD701      0.0000 
      6 C4B        16.2610   -9.3920    8.8880 C.3       1 FAD701      0.0000 
      7 O4B        16.7480  -10.7220    9.0710 O.3       1 FAD701      0.0000 
      8 C3B        14.8170   -9.3990    9.3690 C.3       1 FAD701      0.0000 
      9 O3B        14.0240   -8.4010    8.7330 O.3       1 FAD701      0.0000 
     10 C2B        14.3840  -10.8040    9.0220 C.3       1 FAD701      0.0000 
     11 O2B        13.9080  -10.9230    7.6670 O.3       1 FAD701      0.0000 
     12 C1B        15.6490  -11.6240    9.1720 C.3       1 FAD701      0.0000 
     13 N9A        15.7020  -12.2780   10.4930 N.pl3     1 FAD701      0.0000 
     14 C8A        16.2660  -11.7880   11.6200 C.2       1 FAD701      0.0000 
     15 N7A        16.1400  -12.6550   12.6510 N.2       1 FAD701      0.0000 
     16 C5A        15.4770  -13.7080   12.1690 C.ar      1 FAD701      0.0000 
     17 C6A        15.0190  -14.9790   12.7310 C.ar      1 FAD701      0.0000 
     18 N6A        15.2750  -15.2220   14.0310 N.pl3     1 FAD701      0.0000 
     19 N1A        14.3640  -15.8390   11.9160 N.ar      1 FAD701      0.0000 
     20 C2A        14.1210  -15.5650   10.6150 C.ar      1 FAD701      0.0000 
     21 N3A        14.5210  -14.4110   10.0330 N.ar      1 FAD701      0.0000 
     22 C4A        15.1850  -13.4670   10.7550 C.ar      1 FAD701      0.0000 
     23 N1         24.6420   -1.4090    8.3160 N.2       1 FAD701      0.0000 
     24 C2         25.9670   -1.4310    8.0200 C.2       1 FAD701      0.0000 
     25 O2         26.3550   -2.1140    7.0100 O.2       1 FAD701      0.0000 
     26 N3         26.8720   -0.7800    8.7990 N.am      1 FAD701      0.0000 
     27 C4         26.5430   -0.0370    9.8760 C.2       1 FAD701      0.0000 
     28 O4         27.3980    0.5720   10.5790 O.2       1 FAD701      0.0000 
     29 C4X        25.1240    0.0790   10.2360 C.2       1 FAD701      0.0000 
     30 N5         24.7070    0.8200   11.3090 N.2       1 FAD701      0.0000 
     31 C5X        23.3670    0.8470   11.6290 C.ar      1 FAD701      0.0000 
     32 C6         22.9130    1.5850   12.7200 C.ar      1 FAD701      0.0000 
     33 C7         21.5700    1.6570   13.0900 C.ar      1 FAD701      0.0000 
     34 C7M        21.1390    2.4770   14.3190 C.3       1 FAD701      0.0000 
     35 C8         20.5730    0.9520   12.2700 C.ar      1 FAD701      0.0000 
     36 C8M        19.1040    1.0370   12.5980 C.3       1 FAD701      0.0000 
     37 C9         21.0100    0.1900   11.1640 C.ar      1 FAD701      0.0000 
     38 C9A        22.3610    0.1090   10.8150 C.ar      1 FAD701      0.0000 
     39 N10        22.8090   -0.6460    9.6840 N.pl3     1 FAD701      0.0000 
     40 C10        24.1700   -0.6830    9.3780 C.2       1 FAD701      0.0000 
     41 C1'        21.8560   -1.3390    8.7990 C.3       1 FAD701      0.0000 
     42 C2'        21.5960   -2.8050    9.0870 C.3       1 FAD701      0.0000 
     43 O2'        22.8210   -3.5590    8.9820 O.3       1 FAD701      0.0000 
     44 C3'        20.5720   -3.2740    8.0440 C.3       1 FAD701      0.0000 
     45 O3'        19.2800   -2.6510    8.2680 O.3       1 FAD701      0.0000 
     46 C4'        20.4300   -4.8100    7.9300 C.3       1 FAD701      0.0000 
     47 O4'        19.7580   -5.1430    6.6960 O.3       1 FAD701      0.0000 
     48 C5'        19.6610   -5.5030    9.0580 C.3       1 FAD701      0.0000 
     49 O5'        20.4210   -5.4390   10.2730 O.3       1 FAD701      0.0000 
     50 P          19.7720   -5.8660   11.6600 P.3       1 FAD701      0.0000 
     51 O1P        20.9560   -5.9600   12.6060 O.co2     1 FAD701      0.0000 
     52 O2P        18.5660   -5.0480   12.0080 O.co2     1 FAD701      0.0000 
     53 O3P        19.3130   -7.3820   11.2670 O.3       1 FAD701      0.0000 
@<TRIPOS>BOND
     1    1    2 ar   
     2    1    3 ar   
     3    1    4 1    
     4    1   53 1    
     5    4    5 1    
     6    5    6 1    
     7    6    7 1    
     8    6    8 1    
     9    7   12 1    
    10    8    9 1    
    11    8   10 1    
    12   10   11 1    
    13   10   12 1    
    14   12   13 1    
    15   13   14 1    
    16   13   22 1    
    17   14   15 2    
    18   15   16 1    
    19   16   17 ar   
    20   16   22 ar   
    21   17   18 1    
    22   17   19 ar   
    23   19   20 ar   
    24   20   21 ar   
    25   21   22 ar   
    26   23   24 1    
    27   23   40 2    
    28   24   25 2    
    29   24   26 am   
    30   26   27 am   
    31   27   28 2    
    32   27   29 1    
    33   29   30 2    
    34   29   40 1    
    35   30   31 1    
    36   31   32 ar   
    37   31   38 ar   
    38   32   33 ar   
    39   33   34 1    
    40   33   35 ar   
    41   35   36 1    
    42   35   37 ar   
    43   37   38 ar   
    44   38   39 1    
    45   39   40 1    
    46   39   41 1    
    47   41   42 1    
    48   42   43 1    
    49   42   44 1    
    50   44   45 1    
    51   44   46 1    
    52   46   47 1    
    53   46   48 1    
    54   48   49 1    
    55   49   50 1    
    56   50   51 ar   
    57   50   52 ar   
    58   50   53 1    
@<TRIPOS>SUBSTRUCTURE
     1 FAD701      1 GROUP   
@<TRIPOS>SET
ATOM$ORANGE STATIC     ATOMS   COLORGROUP SYSTEM 
54 5 5 6 6 8 8 10 10 12 12 14 14 16 16 17 17 20 \
20 22 22 24 24 27 27 29 29 31 31 32 32 33 33 34 34 35 \
35 36 36 37 37 38 38 40 40 41 41 42 42 44 44 46 46 48 \
48 

