#    Name: 6fnu_1_FAD_CAVITY_N1_ALL
#    Modification time : Fri May 22 19:24:36 2020

@<TRIPOS>MOLECULE
6fnu_1_FAD_CAVITY_N1_ALL
   78     0     6     0     0
SMALL
NO_CHARGES


@<TRIPOS>ATOM
      1 OG         19.3800   -0.8200    9.7900 O.3       1 SER1        0.0000 
      2 OG         20.5800   -1.6900    9.6000 O.3       1 SER1        0.0000 
      3 OG         21.7900   -2.5600    9.4000 O.3       1 SER1        0.0000 
      4 OG         19.6300    1.4900   12.6400 O.3       1 SER1        0.0000 
      5 OG         20.4900    2.5300   13.3000 O.3       1 SER1        0.0000 
      6 OG         21.9400    2.3000   11.7700 O.3       1 SER1        0.0000 
      7 OG         23.1500    1.4300   11.5800 O.3       1 SER1        0.0000 
      8 OG         24.6100    1.2000   10.0600 O.3       1 SER1        0.0000 
      9 OG         25.8100    0.3300    9.8600 O.3       1 SER1        0.0000 
     10 OG         21.3400    3.5700   13.9600 O.3       1 SER1        0.0000 
     11 OG         25.4600    2.2400   10.7200 O.3       1 SER1        0.0000 
     12 OG         26.6700    1.3700   10.5300 O.3       1 SER1        0.0000 
     13 O          22.9900   -3.4300    9.2100 O.2       2 ALA2        0.0000 
     14 N          19.6300   -0.1700    8.4600 N.am      2 ALA2        0.0000 
     15 N          19.8800    0.4700    7.1200 N.am      2 ALA2        0.0000 
     16 N          20.2300    0.2200   10.4500 N.am      2 ALA2        0.0000 
     17 N          20.4800    0.8700    9.1200 N.am      2 ALA2        0.0000 
     18 N          20.7400    1.5100    7.7800 N.am      2 ALA2        0.0000 
     19 N          19.3800    0.8500   13.9700 N.am      2 ALA2        0.0000 
     20 N          19.8800    2.1300   11.3000 N.am      2 ALA2        0.0000 
     21 N          20.1300    2.7800    9.9700 N.am      2 ALA2        0.0000 
     22 N          21.3400    1.9000    9.7800 N.am      2 ALA2        0.0000 
     23 N          26.4100   -0.9400    7.6800 N.am      2 ALA2        0.0000 
     24 N          20.2400    1.8900   14.6300 N.am      2 ALA2        0.0000 
     25 N          27.0200   -0.5400    9.6700 N.am      2 ALA2        0.0000 
     26 N          27.2700    0.1000    8.3400 N.am      2 ALA2        0.0000 
     27 O          28.1300    1.1400    9.0000 O.2       2 ALA2        0.0000 
     28 NZ         22.5500    2.7000   13.7700 N.4       3 LYS4        0.0000 
     29 NZ         22.8000    3.3400   12.4400 N.4       3 LYS4        0.0000 
     30 NZ         24.2600    3.1100   10.9100 N.4       3 LYS4        0.0000 
     31 NZ         24.5100    3.7500    9.5800 N.4       3 LYS4        0.0000 
     32 NZ         24.7600    4.3900    8.2500 N.4       3 LYS4        0.0000 
     33 CZ         20.9900    3.8100   10.6300 C.ar      4 PHE5        0.0000 
     34 CZ         22.2000    2.9400   10.4400 C.ar      4 PHE5        0.0000 
     35 CZ         23.7500    1.8300   13.5800 C.ar      4 PHE5        0.0000 
     36 CZ         24.0100    2.4700   12.2400 C.ar      4 PHE5        0.0000 
     37 CA         21.5400   -3.2000   10.7400 C.3       5 GLY6        0.0000 
     38 CA         22.7400   -4.0700   10.5400 C.3       5 GLY6        0.0000 
     39 CA         18.7800    0.4500   11.9700 C.3       5 GLY6        0.0000 
     40 CA         19.9800   -0.4200   11.7800 C.3       5 GLY6        0.0000 
     41 CA         21.1900   -1.2900   11.5900 C.3       5 GLY6        0.0000 
     42 CA         22.6400   -1.5200   10.0700 C.3       5 GLY6        0.0000 
     43 CA         23.8500   -2.3900    9.8700 C.3       5 GLY6        0.0000 
     44 CA         25.0600   -3.2600    9.6800 C.3       5 GLY6        0.0000 
     45 CA         25.3100   -2.6200    8.3500 C.3       5 GLY6        0.0000 
     46 CA         20.5900   -0.0200   13.7800 C.3       5 GLY6        0.0000 
     47 CA         20.8400    0.6200   12.4400 C.3       5 GLY6        0.0000 
     48 CA         22.0400   -0.2500   12.2500 C.3       5 GLY6        0.0000 
     49 CA         23.5000   -0.4800   10.7300 C.3       5 GLY6        0.0000 
     50 CA         24.7100   -1.3500   10.5300 C.3       5 GLY6        0.0000 
     51 CA         25.9100   -2.2200   10.3400 C.3       5 GLY6        0.0000 
     52 CA         24.9600   -0.7100    9.2000 C.3       5 GLY6        0.0000 
     53 CA         26.1600   -1.5800    9.0100 C.3       5 GLY6        0.0000 
     54 CA         21.4400    1.0200   14.4400 C.3       5 GLY6        0.0000 
     55 CA         21.6900    1.6600   13.1100 C.3       5 GLY6        0.0000 
     56 CA         22.9000    0.7900   12.9100 C.3       5 GLY6        0.0000 
     57 CA         24.3600    0.5600   11.3900 C.3       5 GLY6        0.0000 
     58 CA         26.7700   -1.1800   11.0000 C.3       5 GLY6        0.0000 
     59 CA         25.7100    2.8800    9.3900 C.3       5 GLY6        0.0000 
     60 CA         26.9200    2.0100    9.1900 C.3       5 GLY6        0.0000 
     61 CA         28.3800    1.7800    7.6700 C.3       5 GLY6        0.0000 
     62 DU         21.1800   -2.9500    7.4100 H         6 CUB7        0.0000 
     63 DU         20.8300   -1.0400    8.2600 H         6 CUB7        0.0000 
     64 DU         21.4400   -0.6500   10.2600 H         6 CUB7        0.0000 
     65 DU         21.6900   -0.0100    8.9200 H         6 CUB7        0.0000 
     66 DU         22.9000   -0.8800    8.7300 H         6 CUB7        0.0000 
     67 DU         24.1000   -1.7500    8.5400 H         6 CUB7        0.0000 
     68 DU         21.0900    1.2600   11.1100 H         6 CUB7        0.0000 
     69 DU         22.2900    0.3900   10.9200 H         6 CUB7        0.0000 
     70 DU         23.7500    0.1600    9.3900 H         6 CUB7        0.0000 
     71 DU         21.5900    2.5500    8.4500 H         6 CUB7        0.0000 
     72 DU         25.2100   -0.0700    7.8700 H         6 CUB7        0.0000 
     73 DU         23.4000    2.0700   10.2500 H         6 CUB7        0.0000 
     74 DU         22.4500    3.5800    9.1100 H         6 CUB7        0.0000 
     75 DU         23.6500    2.7100    8.9200 H         6 CUB7        0.0000 
     76 DU         24.8600    1.8400    8.7200 H         6 CUB7        0.0000 
     77 DU         26.0600    0.9700    8.5300 H         6 CUB7        0.0000 
     78 DU         22.7000    4.2300    7.7800 H         6 CUB7        0.0000 
@<TRIPOS>BOND
@<TRIPOS>SUBSTRUCTURE
     1 SER1        1 GROUP   
     2 ALA2       13 GROUP   
     3 LYS4       28 GROUP   
     4 PHE5       33 GROUP   
     5 GLY6       37 GROUP   
     6 CUB7       62 GROUP   
@<TRIPOS>SET

