#    Name: 6ftc_1_FAD
#    Modification time : Fri May 22 19:24:51 2020

@<TRIPOS>MOLECULE
6ftc_1_FAD
   84    89     1     0     1
SMALL
NO_CHARGES


@<TRIPOS>ATOM
      1 PA         21.9820    5.4410   15.5640 P.3       1 FAD601      0.0000 
      2 O1A        21.5830    4.6640   16.8010 O.co2     1 FAD601      0.0000 
      3 O2A        21.2960    4.9540   14.3050 O.co2     1 FAD601      0.0000 
      4 O5B        23.6100    5.4180   15.3290 O.3       1 FAD601      0.0000 
      5 C5B        24.4530    5.7290   16.3900 C.3       1 FAD601      0.0000 
      6 C4B        25.7640    4.9270   16.1160 C.3       1 FAD601      0.0000 
      7 O4B        26.7790    5.4090   16.8260 O.3       1 FAD601      0.0000 
      8 C3B        25.5490    3.4850   16.5820 C.3       1 FAD601      0.0000 
      9 O3B        26.0930    2.6270   15.6700 O.3       1 FAD601      0.0000 
     10 C2B        26.2930    3.4650   17.9380 C.3       1 FAD601      0.0000 
     11 O2B        26.6220    2.0770   18.3460 O.3       1 FAD601      0.0000 
     12 C1B        27.3620    4.1610   17.6420 C.3       1 FAD601      0.0000 
     13 N9A        28.0920    4.6940   18.7800 N.pl3     1 FAD601      0.0000 
     14 C8A        27.5930    4.9550   19.9960 C.2       1 FAD601      0.0000 
     15 N7A        28.5780    5.4560   20.7530 N.2       1 FAD601      0.0000 
     16 C5A        29.6830    5.5100   19.9960 C.ar      1 FAD601      0.0000 
     17 C6A        30.9600    5.9460   20.2870 C.ar      1 FAD601      0.0000 
     18 N6A        31.4980    6.4910   21.5380 N.pl3     1 FAD601      0.0000 
     19 N1A        31.9140    5.9060   19.3620 N.ar      1 FAD601      0.0000 
     20 C2A        31.6230    5.4310   18.1220 C.ar      1 FAD601      0.0000 
     21 N3A        30.3640    5.0050   17.8350 N.ar      1 FAD601      0.0000 
     22 C4A        29.3950    5.0520   18.7780 C.ar      1 FAD601      0.0000 
     23 N1         12.7230    5.4140   12.9000 N.2       1 FAD601      0.0000 
     24 C2         11.8950    5.6930   11.7200 C.2       1 FAD601      0.0000 
     25 O2         12.0000    6.7440   11.2060 O.2       1 FAD601      0.0000 
     26 N3         10.9730    4.6490   11.2060 N.am      1 FAD601      0.0000 
     27 C4         10.8720    3.3540   11.8470 C.2       1 FAD601      0.0000 
     28 O4         10.1580    2.4810   11.4560 O.2       1 FAD601      0.0000 
     29 C4X        11.7320    3.1050   13.0530 C.2       1 FAD601      0.0000 
     30 N5         11.6440    1.8230   13.6890 N.2       1 FAD601      0.0000 
     31 C5X        12.4970    1.5660   14.8750 C.ar      1 FAD601      0.0000 
     32 C6         12.4250    0.3120   15.5000 C.ar      1 FAD601      0.0000 
     33 C7         13.2270    0.0780   16.6270 C.ar      1 FAD601      0.0000 
     34 C7M        13.0120   -1.3320   17.1590 C.3       1 FAD601      0.0000 
     35 C8         14.0890    1.0720   17.0940 C.ar      1 FAD601      0.0000 
     36 C8M        14.9520    0.7370   18.3470 C.3       1 FAD601      0.0000 
     37 C9         14.1650    2.3240   16.4660 C.ar      1 FAD601      0.0000 
     38 C9A        13.3640    2.5730   15.3580 C.ar      1 FAD601      0.0000 
     39 N10        13.4420    3.9000   14.6860 N.pl3     1 FAD601      0.0000 
     40 C10        12.6120    4.1350   13.5430 C.2       1 FAD601      0.0000 
     41 C1'        14.3180    4.9940   15.1620 C.3       1 FAD601      0.0000 
     42 C2'        15.6090    5.0470   14.3390 C.3       1 FAD601      0.0000 
     43 O2'        16.2420    3.8310   14.4270 O.3       1 FAD601      0.0000 
     44 C3'        16.4300    6.1490   15.0220 C.3       1 FAD601      0.0000 
     45 O3'        15.7210    7.3410   15.0080 O.3       1 FAD601      0.0000 
     46 C4'        17.7380    6.3150   14.2510 C.3       1 FAD601      0.0000 
     47 O4'        18.4280    5.1130   14.1870 O.3       1 FAD601      0.0000 
     48 C5'        18.5900    7.3170   15.0440 C.3       1 FAD601      0.0000 
     49 O5'        19.6760    7.5950   14.2080 O.3       1 FAD601      0.0000 
     50 P          21.0410    8.1730   14.9550 P.3       1 FAD601      0.0000 
     51 O1P        22.0500    8.5140   13.8740 O.co2     1 FAD601      0.0000 
     52 O2P        20.7170    9.3050   15.8950 O.co2     1 FAD601      0.0000 
     53 O3P        21.5770    6.9820   15.9140 O.3       1 FAD601      0.0000 
     54 H51A       24.0560    5.4460   17.2280 H         1 FAD601      0.0000 
     55 H52A       24.6350    6.6820   16.4070 H         1 FAD601      0.0000 
     56 H4B        25.9820    4.9420   15.1700 H         1 FAD601      0.0000 
     57 H3B        24.6040    3.3060   16.7100 H         1 FAD601      0.0000 
     58 HO3A       25.5940    1.9440   15.5900 H         1 FAD601      0.0000 
     59 H2B        25.7710    3.9160   18.6200 H         1 FAD601      0.0000 
     60 HO2A       26.0580    1.8110   18.9250 H         1 FAD601      0.0000 
     61 H1B        27.9520    3.6390   17.0760 H         1 FAD601      0.0000 
     62 H8A        26.7160    4.8090   20.2680 H         1 FAD601      0.0000 
     63 H61A       31.7860    5.9600   22.1500 H         1 FAD601      0.0000 
     64 H62A       31.5270    7.3420   21.6590 H         1 FAD601      0.0000 
     65 H2A        32.2840    5.4030   17.4690 H         1 FAD601      0.0000 
     66 HN3        10.4900    4.8160   10.5150 H         1 FAD601      0.0000 
     67 H6         11.8380   -0.3180   15.1480 H         1 FAD601      0.0000 
     68 HM71       12.2630   -1.3340   17.7760 H         1 FAD601      0.0000 
     69 HM72       13.8120   -1.6280   17.6210 H         1 FAD601      0.0000 
     70 HM73       12.8230   -1.9310   16.4200 H         1 FAD601      0.0000 
     71 HM81       15.4300    1.5330   18.6260 H         1 FAD601      0.0000 
     72 HM82       14.3770    0.4390   19.0700 H         1 FAD601      0.0000 
     73 HM83       15.5920    0.0440   18.1240 H         1 FAD601      0.0000 
     74 H9         14.7880    2.7990   16.9680 H         1 FAD601      0.0000 
     75 H1'1       13.8480    5.8390   15.0910 H         1 FAD601      0.0000 
     76 H1'2       14.5480    4.8330   16.0900 H         1 FAD601      0.0000 
     77 H2'        15.4220    5.2760   13.4150 H         1 FAD601      0.0000 
     78 HO2'       15.8970    3.2910   13.8690 H         1 FAD601      0.0000 
     79 H3'        16.6210    5.8930   15.9380 H         1 FAD601      0.0000 
     80 HO3'       15.7140    7.6760   15.7890 H         1 FAD601      0.0000 
     81 H4'        17.5630    6.6530   13.3590 H         1 FAD601      0.0000 
     82 HO4'       18.7180    4.9950   13.3960 H         1 FAD601      0.0000 
     83 H5'1       18.8950    6.9220   15.8760 H         1 FAD601      0.0000 
     84 H5'2       18.0840    8.1260   15.2180 H         1 FAD601      0.0000 
@<TRIPOS>BOND
     1    1    2 ar   
     2    1    3 ar   
     3    1    4 1    
     4    1   53 1    
     5    4    5 1    
     6    5    6 1    
     7    5   54 1    
     8    5   55 1    
     9    6    7 1    
    10    6    8 1    
    11    6   56 1    
    12    7   12 1    
    13    8    9 1    
    14    8   10 1    
    15    8   57 1    
    16    9   58 1    
    17   10   11 1    
    18   10   12 1    
    19   10   59 1    
    20   12   61 1    
    21   12   13 1    
    22   11   60 1    
    23   13   14 1    
    24   13   22 1    
    25   14   15 2    
    26   15   16 1    
    27   14   62 1    
    28   16   17 ar   
    29   16   22 ar   
    30   17   18 1    
    31   17   19 ar   
    32   19   20 ar   
    33   18   63 1    
    34   18   64 1    
    35   20   21 ar   
    36   21   22 ar   
    37   20   65 1    
    38   23   24 1    
    39   23   40 2    
    40   24   25 2    
    41   24   26 am   
    42   26   27 am   
    43   27   28 2    
    44   26   66 1    
    45   27   29 1    
    46   29   30 2    
    47   29   40 1    
    48   30   31 1    
    49   31   32 ar   
    50   31   38 ar   
    51   32   33 ar   
    52   33   34 1    
    53   32   67 1    
    54   33   35 ar   
    55   34   68 1    
    56   34   69 1    
    57   34   70 1    
    58   35   36 1    
    59   35   37 ar   
    60   37   74 1    
    61   36   71 1    
    62   36   72 1    
    63   36   73 1    
    64   37   38 ar   
    65   38   39 1    
    66   39   40 1    
    67   39   41 1    
    68   41   42 1    
    69   41   75 1    
    70   41   76 1    
    71   42   43 1    
    72   42   44 1    
    73   42   77 1    
    74   43   78 1    
    75   44   45 1    
    76   44   46 1    
    77   44   79 1    
    78   45   80 1    
    79   46   47 1    
    80   46   48 1    
    81   46   81 1    
    82   47   82 1    
    83   48   49 1    
    84   48   83 1    
    85   48   84 1    
    86   49   50 1    
    87   50   51 ar   
    88   50   52 ar   
    89   50   53 1    
@<TRIPOS>SUBSTRUCTURE
     1 FAD601      1 GROUP   
@<TRIPOS>SET
ATOM$ORANGE STATIC     ATOMS   COLORGROUP SYSTEM 
54 5 5 6 6 8 8 10 10 12 12 14 14 16 16 17 17 20 \
20 22 22 24 24 27 27 29 29 31 31 32 32 33 33 34 34 35 \
35 36 36 37 37 38 38 40 40 41 41 42 42 44 44 46 46 48 \
48 

