#    Name: 6ktn_1_STI
#    Modification time : Fri May 22 19:26:36 2020

@<TRIPOS>MOLECULE
6ktn_1_STI
   37    41     1     0     0
SMALL
NO_CHARGES


@<TRIPOS>ATOM
      1 C1         31.7170  -23.2660    3.2350 C.ar      1 STI501      0.0000 
      2 C6         30.8920  -23.3750    2.1200 C.ar      1 STI501      0.0000 
      3 C5         30.9590  -22.4480    1.0730 C.ar      1 STI501      0.0000 
      4 C4         31.8880  -21.4050    1.2110 C.ar      1 STI501      0.0000 
      5 N3         32.7260  -21.2940    2.3340 N.ar      1 STI501      0.0000 
      6 C2         32.6330  -22.2360    3.3490 C.ar      1 STI501      0.0000 
      7 C7         30.0910  -22.5700   -0.0550 C.ar      1 STI501      0.0000 
      8 C12        30.3610  -21.9390   -1.2870 C.ar      1 STI501      0.0000 
      9 C11        29.4750  -22.0890   -2.3560 C.ar      1 STI501      0.0000 
     10 N10        28.3170  -22.8710   -2.1780 N.ar      1 STI501      0.0000 
     11 C9         28.0650  -23.4520   -0.9790 C.ar      1 STI501      0.0000 
     12 N8         28.9430  -23.3000    0.0450 N.ar      1 STI501      0.0000 
     13 N13        26.9780  -24.2030   -0.7020 N.pl3     1 STI501      0.0000 
     14 C14        25.8490  -24.3050   -1.4720 C.ar      1 STI501      0.0000 
     15 C19        24.8570  -25.1580   -0.9350 C.ar      1 STI501      0.0000 
     16 C18        23.6610  -25.3680   -1.6270 C.ar      1 STI501      0.0000 
     17 C17        23.4200  -24.7470   -2.8440 C.ar      1 STI501      0.0000 
     18 C16        24.3690  -23.8870   -3.3860 C.ar      1 STI501      0.0000 
     19 C15        25.5910  -23.6800   -2.7160 C.ar      1 STI501      0.0000 
     20 N21        24.1100  -23.3460   -4.5830 N.am      1 STI501      0.0000 
     21 C22        22.9770  -22.6050   -4.8560 C.2       1 STI501      0.0000 
     22 C23        22.8720  -22.2150   -6.2030 C.ar      1 STI501      0.0000 
     23 C25        21.6150  -22.0890   -6.7740 C.ar      1 STI501      0.0000 
     24 C26        21.4610  -21.7240   -8.1110 C.ar      1 STI501      0.0000 
     25 C27        22.5620  -21.4910   -8.9230 C.ar      1 STI501      0.0000 
     26 C28        23.8300  -21.6300   -8.3550 C.ar      1 STI501      0.0000 
     27 C29        23.9860  -21.9930   -7.0210 C.ar      1 STI501      0.0000 
     28 C46        22.3820  -21.1040  -10.2680 C.3       1 STI501      0.0000 
     29 N48        23.0640  -22.0560  -11.1480 N.4       1 STI501      0.0000 
     30 C53        23.1660  -21.4700  -12.5120 C.3       1 STI501      0.0000 
     31 C52        22.6570  -22.3520  -13.5170 C.3       1 STI501      0.0000 
     32 N51        23.2410  -23.6870  -13.3940 N.3       1 STI501      0.0000 
     33 C54        22.8850  -24.7010  -14.4020 C.3       1 STI501      0.0000 
     34 C50        22.3730  -24.2530  -12.3590 C.3       1 STI501      0.0000 
     35 C49        22.4070  -23.3930  -11.0590 C.3       1 STI501      0.0000 
     36 O29        22.0780  -22.3020   -4.0530 O.2       1 STI501      0.0000 
     37 C20        25.0070  -25.8260    0.2940 C.3       1 STI501      0.0000 
@<TRIPOS>BOND
     1    1    2 ar   
     2    1    6 ar   
     3    2    3 ar   
     4    3    4 ar   
     5    3    7 1    
     6    4    5 ar   
     7    5    6 ar   
     8    7    8 ar   
     9    7   12 ar   
    10    8    9 ar   
    11    9   10 ar   
    12   10   11 ar   
    13   11   12 ar   
    14   11   13 1    
    15   13   14 1    
    16   14   15 ar   
    17   14   19 ar   
    18   15   16 ar   
    19   15   37 1    
    20   16   17 ar   
    21   17   18 ar   
    22   18   19 ar   
    23   18   20 1    
    24   20   21 am   
    25   21   22 1    
    26   21   36 2    
    27   22   23 ar   
    28   22   27 ar   
    29   23   24 ar   
    30   24   25 ar   
    31   25   26 ar   
    32   25   28 1    
    33   26   27 ar   
    34   28   29 1    
    35   29   30 1    
    36   29   35 1    
    37   30   31 1    
    38   31   32 1    
    39   32   33 1    
    40   32   34 1    
    41   34   35 1    
@<TRIPOS>SUBSTRUCTURE
     1 STI501      1 GROUP   
@<TRIPOS>SET

