#    Name: 6o74_2_ANP_CAVITY_N1_4
#    Modification time : Fri May 22 19:36:26 2020

@<TRIPOS>MOLECULE
6o74_2_ANP_CAVITY_N1_4
   79     0     7     0     0
SMALL
NO_CHARGES


@<TRIPOS>ATOM
      1 OG        -13.2400  -54.0100   -7.7300 O.3       1 SER1        0.0000 
      2 OG        -12.4300  -52.0700   -7.4400 O.3       1 SER1        0.0000 
      3 OG        -11.7300  -47.9800   -5.7100 O.3       1 SER1        0.0000 
      4 OG        -10.0600  -48.0100   -2.4300 O.3       1 SER1        0.0000 
      5 OG         -8.9200  -47.4400   -1.6300 O.3       1 SER1        0.0000 
      6 O         -18.4000  -52.3400   -4.4000 O.2       2 ALA2        0.0000 
      7 O         -17.1500  -53.9300   -5.0500 O.2       2 ALA2        0.0000 
      8 O         -16.8300  -55.3000   -4.5400 O.2       2 ALA2        0.0000 
      9 O         -16.5500  -52.7700   -6.7200 O.2       2 ALA2        0.0000 
     10 O         -16.2300  -54.1500   -6.2100 O.2       2 ALA2        0.0000 
     11 N         -14.6700  -52.0200   -1.4900 N.am      2 ALA2        0.0000 
     12 N         -14.3500  -53.3900   -0.9800 N.am      2 ALA2        0.0000 
     13 N         -13.7500  -52.2300   -2.6500 N.am      2 ALA2        0.0000 
     14 N         -12.9300  -50.2900   -2.3600 N.am      2 ALA2        0.0000 
     15 N         -12.6100  -51.6700   -1.8500 N.am      2 ALA2        0.0000 
     16 O         -12.1200  -48.3600   -2.0700 O.2       2 ALA2        0.0000 
     17 O         -11.3100  -46.4200   -1.7900 O.2       2 ALA2        0.0000 
     18 O         -10.7100  -45.2600   -3.4600 O.2       2 ALA2        0.0000 
     19 OD1       -15.9100  -55.5200   -5.7000 O.co2     3 ASP3        0.0000 
     20 OD1       -17.8700  -52.9300   -1.9300 O.co2     3 ASP3        0.0000 
     21 OD1       -14.1700  -53.8000   -6.5700 O.co2     3 ASP3        0.0000 
     22 OD1       -16.4100  -53.7400   -0.6200 O.co2     3 ASP3        0.0000 
     23 OD1       -15.1600  -55.3300   -1.2600 O.co2     3 ASP3        0.0000 
     24 NZ        -15.3700  -56.1100   -3.2200 N.4       4 LYS4        0.0000 
     25 NZ        -14.7700  -54.9500   -4.9000 N.4       4 LYS4        0.0000 
     26 NZ        -14.4500  -56.3200   -4.3800 N.4       4 LYS4        0.0000 
     27 NZ        -13.8400  -55.1700   -6.0600 N.4       4 LYS4        0.0000 
     28 NZ        -13.5200  -56.5400   -5.5500 N.4       4 LYS4        0.0000 
     29 NZ        -12.9200  -55.3800   -7.2200 N.4       4 LYS4        0.0000 
     30 NZ        -14.5600  -54.1700   -2.9400 N.4       4 LYS4        0.0000 
     31 NZ        -13.9600  -53.0100   -4.6100 N.4       4 LYS4        0.0000 
     32 NZ        -13.6300  -54.3900   -4.1000 N.4       4 LYS4        0.0000 
     33 NZ        -13.0300  -53.2300   -5.7700 N.4       4 LYS4        0.0000 
     34 NZ        -12.1100  -53.4500   -6.9300 N.4       4 LYS4        0.0000 
     35 NZ        -13.4200  -53.6000   -2.1400 N.4       4 LYS4        0.0000 
     36 NZ        -12.8200  -52.4500   -3.8100 N.4       4 LYS4        0.0000 
     37 CZ        -15.6300  -52.9900   -7.8800 C.ar      5 PHE5        0.0000 
     38 CZ        -14.8100  -51.0500   -7.6000 C.ar      5 PHE5        0.0000 
     39 CZ        -14.4900  -52.4200   -7.0800 C.ar      5 PHE5        0.0000 
     40 CZ        -13.3500  -51.8600   -6.2800 C.ar      5 PHE5        0.0000 
     41 CZ        -12.5400  -49.9200   -6.0000 C.ar      5 PHE5        0.0000 
     42 CZ        -12.2200  -51.2900   -5.4800 C.ar      5 PHE5        0.0000 
     43 CZ        -11.9000  -52.6600   -4.9700 C.ar      5 PHE5        0.0000 
     44 CZ        -12.3300  -49.1400   -4.0300 C.ar      5 PHE5        0.0000 
     45 CZ        -12.0100  -50.5100   -3.5200 C.ar      5 PHE5        0.0000 
     46 CZ        -11.6900  -51.8800   -3.0100 C.ar      5 PHE5        0.0000 
     47 CZ        -11.4100  -49.3500   -5.2000 C.ar      5 PHE5        0.0000 
     48 CZ        -11.2000  -48.5700   -3.2300 C.ar      5 PHE5        0.0000 
     49 CZ        -10.5900  -47.4200   -4.9100 C.ar      5 PHE5        0.0000 
     50 CA        -18.0800  -53.7100   -3.8900 C.3       6 GLY6        0.0000 
     51 CA        -17.4800  -52.5600   -5.5600 C.3       6 GLY6        0.0000 
     52 CA        -15.5800  -56.8900   -5.1800 C.3       6 GLY6        0.0000 
     53 CA        -17.2700  -51.7800   -3.6000 C.3       6 GLY6        0.0000 
     54 CA        -16.3400  -51.9900   -4.7600 C.3       6 GLY6        0.0000 
     55 CA        -15.7400  -50.8400   -6.4300 C.3       6 GLY6        0.0000 
     56 CA        -15.4200  -52.2100   -5.9200 C.3       6 GLY6        0.0000 
     57 CA        -15.8100  -52.5800   -2.2900 C.3       6 GLY6        0.0000 
     58 CA        -15.2100  -51.4300   -3.9600 C.3       6 GLY6        0.0000 
     59 CA        -14.2800  -51.6400   -5.1200 C.3       6 GLY6        0.0000 
     60 CA        -14.0700  -50.8600   -3.1600 C.3       6 GLY6        0.0000 
     61 CA        -13.4700  -49.7000   -4.8300 C.3       6 GLY6        0.0000 
     62 CA        -13.1400  -51.0800   -4.3200 C.3       6 GLY6        0.0000 
     63 CA        -13.2600  -48.9200   -2.8700 C.3       6 GLY6        0.0000 
     64 CA        -12.2900  -53.0400   -1.3400 C.3       6 GLY6        0.0000 
     65 CA        -12.6500  -47.7700   -4.5500 C.3       6 GLY6        0.0000 
     66 CA        -12.4400  -46.9800   -2.5900 C.3       6 GLY6        0.0000 
     67 CA        -11.8400  -45.8300   -4.2600 C.3       6 GLY6        0.0000 
     68 CA        -11.5200  -47.2000   -3.7500 C.3       6 GLY6        0.0000 
     69 CA        -12.2300  -46.2000   -0.6300 C.3       6 GLY6        0.0000 
     70 CA        -10.3800  -46.6300   -2.9500 C.3       6 GLY6        0.0000 
     71 DU        -16.9400  -53.1500   -3.0900 H         7 CUB7        0.0000 
     72 DU        -16.6200  -54.5200   -2.5800 H         7 CUB7        0.0000 
     73 DU        -16.0200  -53.3600   -4.2500 H         7 CUB7        0.0000 
     74 DU        -15.7000  -54.7400   -3.7400 H         7 CUB7        0.0000 
     75 DU        -15.0900  -53.5800   -5.4100 H         7 CUB7        0.0000 
     76 DU        -16.0900  -55.1100   -0.1000 H         7 CUB7        0.0000 
     77 DU        -15.4900  -53.9500   -1.7800 H         7 CUB7        0.0000 
     78 DU        -14.8800  -52.8000   -3.4500 H         7 CUB7        0.0000 
     79 DU        -14.9500  -54.5400    0.7000 H         7 CUB7        0.0000 
@<TRIPOS>BOND
@<TRIPOS>SUBSTRUCTURE
     1 SER1        1 GROUP   
     2 ALA2        6 GROUP   
     3 ASP3       19 GROUP   
     4 LYS4       24 GROUP   
     5 PHE5       37 GROUP   
     6 GLY6       50 GROUP   
     7 CUB7       71 GROUP   
@<TRIPOS>SET

