#    Name: 6o74_1_ANP
#    Modification time : Fri May 22 19:36:18 2020

@<TRIPOS>MOLECULE
6o74_1_ANP
   31    33     1     0     1
SMALL
NO_CHARGES


@<TRIPOS>ATOM
      1 PG        -15.3980  -63.7940    0.2920 P.3       1 ANP801      0.0000 
      2 O1G       -14.7570  -62.6770   -0.4760 O.co2     1 ANP801      0.0000 
      3 O2G       -14.7650  -65.1350   -0.0100 O.co2     1 ANP801      0.0000 
      4 O3G       -16.8270  -63.9110   -0.1610 O.co2     1 ANP801      0.0000 
      5 PB        -14.5540  -62.1370    2.5320 P.3       1 ANP801      0.0000 
      6 O1B       -14.9000  -61.9060    3.9780 O.co2     1 ANP801      0.0000 
      7 O2B       -13.1100  -62.1480    2.1280 O.co2     1 ANP801      0.0000 
      8 N3B       -15.2900  -63.4380    1.8780 N.3       1 ANP801      0.0000 
      9 PA        -14.8050  -59.3840    1.4850 P.3       1 ANP801      0.0000 
     10 O1A       -13.9890  -59.4230    0.2310 O.co2     1 ANP801      0.0000 
     11 O2A       -16.0290  -58.5260    1.5110 O.co2     1 ANP801      0.0000 
     12 O3A       -15.2500  -60.8870    1.8240 O.3       1 ANP801      0.0000 
     13 O5'       -13.8660  -58.9750    2.7290 O.3       1 ANP801      0.0000 
     14 C5'       -14.4210  -58.9720    4.0750 C.3       1 ANP801      0.0000 
     15 C4'       -14.2220  -57.6250    4.7270 C.3       1 ANP801      0.0000 
     16 O4'       -12.8020  -57.3930    4.8860 O.3       1 ANP801      0.0000 
     17 C3'       -14.7660  -56.3970    3.9790 C.3       1 ANP801      0.0000 
     18 O3'       -15.4780  -55.5380    4.8600 O.3       1 ANP801      0.0000 
     19 C2'       -13.5070  -55.6950    3.4650 C.3       1 ANP801      0.0000 
     20 O2'       -13.6160  -54.2920    3.3650 O.3       1 ANP801      0.0000 
     21 C1'       -12.5150  -56.0560    4.5580 C.3       1 ANP801      0.0000 
     22 N9        -11.1260  -55.9850    4.1650 N.pl3     1 ANP801      0.0000 
     23 C8        -10.5770  -56.4040    2.9890 C.2       1 ANP801      0.0000 
     24 N7         -9.2800  -56.2220    2.9440 N.2       1 ANP801      0.0000 
     25 C5         -8.9590  -55.6820    4.1810 C.ar      1 ANP801      0.0000 
     26 C6         -7.7410  -55.2820    4.7560 C.ar      1 ANP801      0.0000 
     27 N6         -6.5660  -55.3790    4.1400 N.pl3     1 ANP801      0.0000 
     28 N1         -7.7870  -54.7920    6.0170 N.ar      1 ANP801      0.0000 
     29 C2         -8.9730  -54.7060    6.6350 C.ar      1 ANP801      0.0000 
     30 N3        -10.1780  -55.0470    6.1910 N.ar      1 ANP801      0.0000 
     31 C4        -10.0970  -55.5340    4.9420 C.ar      1 ANP801      0.0000 
@<TRIPOS>BOND
     1    1    2 ar   
     2    1    3 ar   
     3    1    4 ar   
     4    1    8 1    
     5    5    6 ar   
     6    5    7 ar   
     7    5    8 1    
     8    5   12 1    
     9    9   10 ar   
    10    9   11 ar   
    11    9   12 1    
    12    9   13 1    
    13   13   14 1    
    14   14   15 1    
    15   15   16 1    
    16   15   17 1    
    17   16   21 1    
    18   17   18 1    
    19   17   19 1    
    20   19   20 1    
    21   19   21 1    
    22   21   22 1    
    23   22   23 1    
    24   22   31 1    
    25   23   24 2    
    26   24   25 1    
    27   25   26 ar   
    28   25   31 ar   
    29   26   27 1    
    30   26   28 ar   
    31   28   29 ar   
    32   29   30 ar   
    33   30   31 ar   
@<TRIPOS>SUBSTRUCTURE
     1 ANP801      1 GROUP   
@<TRIPOS>SET
ATOM$ORANGE STATIC     ATOMS   COLORGROUP SYSTEM 
20 14 14 15 15 17 17 19 19 21 21 23 23 25 25 26 26 29 \
29 31 31 

