#    Name: 6o74_1_ANP_CAVITY_N1_4
#    Modification time : Fri May 22 19:36:19 2020

@<TRIPOS>MOLECULE
6o74_1_ANP_CAVITY_N1_4
   76     0     7     0     0
SMALL
NO_CHARGES


@<TRIPOS>ATOM
      1 OG        -15.3400  -54.9200    4.3300 O.3       1 SER1        0.0000 
      2 OG        -15.0200  -56.2900    4.8400 O.3       1 SER1        0.0000 
      3 OG        -14.7400  -53.7600    2.6600 O.3       1 SER1        0.0000 
      4 OG        -14.4200  -55.1400    3.1700 O.3       1 SER1        0.0000 
      5 OG        -13.8900  -55.7300    5.6400 O.3       1 SER1        0.0000 
      6 OG        -13.2800  -54.5700    3.9700 O.3       1 SER1        0.0000 
      7 OG        -12.9600  -55.9400    4.4800 O.3       1 SER1        0.0000 
      8 OG        -12.3600  -54.7900    2.8100 O.3       1 SER1        0.0000 
      9 OG        -12.7500  -55.1600    6.4400 O.3       1 SER1        0.0000 
     10 OG        -12.1500  -54.0000    4.7700 O.3       1 SER1        0.0000 
     11 OG        -11.8300  -55.3800    5.2800 O.3       1 SER1        0.0000 
     12 OG         -8.6300  -54.4600    5.7200 O.3       1 SER1        0.0000 
     13 O         -13.4500  -59.2500    4.7100 O.2       2 ALA2        0.0000 
     14 N         -13.8200  -53.9800    1.5000 N.am      2 ALA2        0.0000 
     15 N         -12.8900  -54.2000    0.3400 N.am      2 ALA2        0.0000 
     16 N         -12.6800  -53.4100    2.3000 N.am      2 ALA2        0.0000 
     17 N         -11.7600  -53.6300    1.1400 N.am      2 ALA2        0.0000 
     18 N         -11.2200  -54.2200    3.6100 N.am      2 ALA2        0.0000 
     19 N         -10.0900  -53.6500    4.4100 N.am      2 ALA2        0.0000 
     20 OD1       -17.9400  -54.6800    2.2200 O.co2     3 ASP3        0.0000 
     21 OD1       -14.6300  -55.9200    1.2100 O.co2     3 ASP3        0.0000 
     22 OD1       -14.3100  -57.2900    1.7200 O.co2     3 ASP3        0.0000 
     23 OD1       -13.9800  -58.6600    2.2400 O.co2     3 ASP3        0.0000 
     24 OD1       -12.5700  -55.5700    0.8500 O.co2     3 ASP3        0.0000 
     25 OD1       -13.0300  -57.6900    8.6300 O.co2     3 ASP3        0.0000 
     26 OD1       -12.2200  -55.7500    8.9200 O.co2     3 ASP3        0.0000 
     27 NZ        -16.8000  -54.1100    3.0200 N.4       4 LYS4        0.0000 
     28 NZ        -15.8800  -54.3300    1.8600 N.4       4 LYS4        0.0000 
     29 NZ        -13.1700  -56.7200    2.5200 N.4       4 LYS4        0.0000 
     30 NZ        -12.8500  -58.1000    3.0400 N.4       4 LYS4        0.0000 
     31 NZ        -11.1100  -56.3700    2.1600 N.4       4 LYS4        0.0000 
     32 CZ        -15.9500  -56.0800    6.0000 C.ar      5 PHE5        0.0000 
     33 CZ        -14.4900  -56.8800    7.3200 C.ar      5 PHE5        0.0000 
     34 CZ        -13.3500  -56.3200    8.1200 C.ar      5 PHE5        0.0000 
     35 CZ        -12.4300  -56.5300    6.9600 C.ar      5 PHE5        0.0000 
     36 CZ        -12.1100  -57.9000    7.4700 C.ar      5 PHE5        0.0000 
     37 CZ        -11.5000  -56.7500    5.8000 C.ar      5 PHE5        0.0000 
     38 CZ        -12.5400  -54.3800    8.4000 C.ar      5 PHE5        0.0000 
     39 CZ        -11.6200  -54.5900    7.2400 C.ar      5 PHE5        0.0000 
     40 CZ        -11.2900  -55.9700    7.7600 C.ar      5 PHE5        0.0000 
     41 CZ        -11.0100  -53.4400    5.5700 C.ar      5 PHE5        0.0000 
     42 CZ        -10.6900  -54.8100    6.0800 C.ar      5 PHE5        0.0000 
     43 CZ        -10.3700  -56.1800    6.6000 C.ar      5 PHE5        0.0000 
     44 CZ         -9.7600  -55.0300    4.9200 C.ar      5 PHE5        0.0000 
     45 CZ        -10.1600  -55.4000    8.5600 C.ar      5 PHE5        0.0000 
     46 CZ         -9.5500  -54.2400    6.8800 C.ar      5 PHE5        0.0000 
     47 CZ         -9.2300  -55.6200    7.4000 C.ar      5 PHE5        0.0000 
     48 CA        -14.3800  -59.0400    5.8700 C.3       6 GLY6        0.0000 
     49 CA        -12.5300  -59.4700    3.5500 C.3       6 GLY6        0.0000 
     50 CA        -14.1700  -58.2500    7.8300 C.3       6 GLY6        0.0000 
     51 CA        -13.2400  -58.4700    6.6700 C.3       6 GLY6        0.0000 
     52 CA        -12.3200  -58.6900    5.5100 C.3       6 GLY6        0.0000 
     53 CA        -11.7100  -57.5300    3.8400 C.3       6 GLY6        0.0000 
     54 CA        -11.4300  -55.0000    1.6500 C.3       6 GLY6        0.0000 
     55 CA        -10.7900  -57.7500    2.6700 C.3       6 GLY6        0.0000 
     56 CA        -10.5800  -56.9600    4.6400 C.3       6 GLY6        0.0000 
     57 CA        -10.3000  -54.4400    2.4500 C.3       6 GLY6        0.0000 
     58 CA         -9.9700  -55.8100    2.9600 C.3       6 GLY6        0.0000 
     59 CA         -9.1600  -53.8700    3.2500 C.3       6 GLY6        0.0000 
     60 CA         -8.8400  -55.2400    3.7600 C.3       6 GLY6        0.0000 
     61 CA         -8.5200  -56.6100    4.2700 C.3       6 GLY6        0.0000 
     62 CA         -8.9500  -53.0900    5.2100 C.3       6 GLY6        0.0000 
     63 CA         -7.7000  -54.6800    4.5600 C.3       6 GLY6        0.0000 
     64 DU        -15.5600  -55.7000    2.3700 H         7 CUB7        0.0000 
     65 DU        -15.2300  -57.0700    2.8800 H         7 CUB7        0.0000 
     66 DU        -14.9100  -58.4500    3.4000 H         7 CUB7        0.0000 
     67 DU        -14.9500  -54.5400    0.7000 H         7 CUB7        0.0000 
     68 DU        -15.6200  -57.4500    6.5200 H         7 CUB7        0.0000 
     69 DU        -14.7000  -57.6600    5.3600 H         7 CUB7        0.0000 
     70 DU        -14.1000  -56.5100    3.6800 H         7 CUB7        0.0000 
     71 DU        -13.7700  -57.8800    4.2000 H         7 CUB7        0.0000 
     72 DU        -13.4900  -55.3500    2.0100 H         7 CUB7        0.0000 
     73 DU        -13.5600  -57.1000    6.1600 H         7 CUB7        0.0000 
     74 DU        -12.6400  -57.3100    5.0000 H         7 CUB7        0.0000 
     75 DU        -12.0400  -56.1600    3.3200 H         7 CUB7        0.0000 
     76 DU        -10.9000  -55.5900    4.1200 H         7 CUB7        0.0000 
@<TRIPOS>BOND
@<TRIPOS>SUBSTRUCTURE
     1 SER1        1 GROUP   
     2 ALA2       13 GROUP   
     3 ASP3       20 GROUP   
     4 LYS4       27 GROUP   
     5 PHE5       32 GROUP   
     6 GLY6       48 GROUP   
     7 CUB7       64 GROUP   
@<TRIPOS>SET

