#    Name: 6o74_2_ANP
#    Modification time : Fri May 22 19:36:25 2020

@<TRIPOS>MOLECULE
6o74_2_ANP
   31    33     1     0     1
SMALL
NO_CHARGES


@<TRIPOS>ATOM
      1 PG        -22.0890  -52.9000    0.1480 P.3       1 ANP802      0.0000 
      2 O1G       -21.9440  -51.5890    0.8660 O.co2     1 ANP802      0.0000 
      3 O2G       -23.3000  -53.5960    0.7260 O.co2     1 ANP802      0.0000 
      4 O3G       -22.4130  -52.5340   -1.2790 O.co2     1 ANP802      0.0000 
      5 PB        -19.6540  -54.4190   -0.7820 P.3       1 ANP802      0.0000 
      6 O1B       -18.2280  -54.1800   -0.3580 O.co2     1 ANP802      0.0000 
      7 O2B       -20.0370  -55.8110   -1.2100 O.co2     1 ANP802      0.0000 
      8 N3B       -20.7540  -53.8590    0.3210 N.3       1 ANP802      0.0000 
      9 PA        -19.4950  -52.0620   -2.6090 P.3       1 ANP802      0.0000 
     10 O1A       -19.2450  -51.1850   -1.4280 O.co2     1 ANP802      0.0000 
     11 O2A       -20.4730  -51.5530   -3.6170 O.co2     1 ANP802      0.0000 
     12 O3A       -19.9070  -53.5310   -2.1010 O.3       1 ANP802      0.0000 
     13 O5'       -18.1040  -52.4000   -3.3510 O.3       1 ANP802      0.0000 
     14 C5'       -16.9270  -52.8390   -2.6180 C.3       1 ANP802      0.0000 
     15 C4'       -15.8290  -53.1960   -3.5920 C.3       1 ANP802      0.0000 
     16 O4'       -15.2100  -51.9850   -4.1020 O.3       1 ANP802      0.0000 
     17 C3'       -14.6780  -54.0360   -3.0130 C.3       1 ANP802      0.0000 
     18 O3'       -14.2820  -55.0710   -3.9010 O.3       1 ANP802      0.0000 
     19 C2'       -13.5530  -53.0130   -2.8520 C.3       1 ANP802      0.0000 
     20 O2'       -12.2540  -53.5560   -2.9100 O.3       1 ANP802      0.0000 
     21 C1'       -13.8110  -52.1400   -4.0700 C.3       1 ANP802      0.0000 
     22 N9        -13.1720  -50.8330   -3.9820 N.pl3     1 ANP802      0.0000 
     23 C8        -12.9030  -50.1060   -2.8480 C.2       1 ANP802      0.0000 
     24 N7        -12.3060  -48.9650   -3.1020 N.2       1 ANP802      0.0000 
     25 C5        -12.1860  -48.9420   -4.4830 C.ar      1 ANP802      0.0000 
     26 C6        -11.6480  -47.9930   -5.3660 C.ar      1 ANP802      0.0000 
     27 N6        -11.1120  -46.8420   -4.9710 N.pl3     1 ANP802      0.0000 
     28 N1        -11.6970  -48.2820   -6.6880 N.ar      1 ANP802      0.0000 
     29 C2        -12.2560  -49.4380   -7.0750 C.ar      1 ANP802      0.0000 
     30 N3        -12.7740  -50.4120   -6.3320 N.ar      1 ANP802      0.0000 
     31 C4        -12.7110  -50.0910   -5.0320 C.ar      1 ANP802      0.0000 
@<TRIPOS>BOND
     1    1    2 ar   
     2    1    3 ar   
     3    1    4 ar   
     4    1    8 1    
     5    5    6 ar   
     6    5    7 ar   
     7    5    8 1    
     8    5   12 1    
     9    9   10 ar   
    10    9   11 ar   
    11    9   12 1    
    12    9   13 1    
    13   13   14 1    
    14   14   15 1    
    15   15   16 1    
    16   15   17 1    
    17   16   21 1    
    18   17   18 1    
    19   17   19 1    
    20   19   20 1    
    21   19   21 1    
    22   21   22 1    
    23   22   23 1    
    24   22   31 1    
    25   23   24 2    
    26   24   25 1    
    27   25   26 ar   
    28   25   31 ar   
    29   26   27 1    
    30   26   28 ar   
    31   28   29 ar   
    32   29   30 ar   
    33   30   31 ar   
@<TRIPOS>SUBSTRUCTURE
     1 ANP802      1 GROUP   
@<TRIPOS>SET
ATOM$ORANGE STATIC     ATOMS   COLORGROUP SYSTEM 
20 14 14 15 15 17 17 19 19 21 21 23 23 25 25 26 26 29 \
29 31 31 

