#    Name: 6egf_1_ANP
#    Modification time : Fri May 22 19:24:58 2020

@<TRIPOS>MOLECULE
6egf_1_ANP
   31    33     1     0     1
SMALL
NO_CHARGES


@<TRIPOS>ATOM
      1 PG         67.0350  -10.1860  -10.2880 P.3       1 ANP501      0.0000 
      2 O1G        66.5900  -11.6220  -10.7840 O.co2     1 ANP501      0.0000 
      3 O2G        66.0310   -9.6920   -9.1780 O.co2     1 ANP501      0.0000 
      4 O3G        68.4190  -10.2600   -9.7230 O.co2     1 ANP501      0.0000 
      5 PB         67.0640   -9.8880  -13.0570 P.3       1 ANP501      0.0000 
      6 O1B        66.3900   -8.9890  -14.1320 O.co2     1 ANP501      0.0000 
      7 O2B        66.3030  -11.1700  -12.9670 O.co2     1 ANP501      0.0000 
      8 N3B        67.0120   -9.0930  -11.5800 N.3       1 ANP501      0.0000 
      9 PA         69.3340  -11.4980  -13.2040 P.3       1 ANP501      0.0000 
     10 O1A        70.6880  -11.1180  -12.5980 O.co2     1 ANP501      0.0000 
     11 O2A        68.5810  -12.4420  -12.3460 O.co2     1 ANP501      0.0000 
     12 O3A        68.5540  -10.1320  -13.4640 O.3       1 ANP501      0.0000 
     13 O5'        69.5220  -12.1480  -14.6320 O.3       1 ANP501      0.0000 
     14 C5'        70.1350  -11.4190  -15.7190 C.3       1 ANP501      0.0000 
     15 C4'        69.3970  -11.7010  -17.0070 C.3       1 ANP501      0.0000 
     16 O4'        69.6370  -13.0660  -17.4190 O.3       1 ANP501      0.0000 
     17 C3'        67.8790  -11.5390  -16.9530 C.3       1 ANP501      0.0000 
     18 O3'        67.3760  -11.0480  -18.1900 O.3       1 ANP501      0.0000 
     19 C2'        67.3960  -12.9620  -16.6720 C.3       1 ANP501      0.0000 
     20 O2'        66.0800  -13.1790  -17.1670 O.3       1 ANP501      0.0000 
     21 C1'        68.4240  -13.7940  -17.4430 C.3       1 ANP501      0.0000 
     22 N9         68.6720  -15.1100  -16.8640 N.pl3     1 ANP501      0.0000 
     23 C8         68.8980  -15.4040  -15.5450 C.2       1 ANP501      0.0000 
     24 N7         69.0960  -16.6780  -15.3070 N.2       1 ANP501      0.0000 
     25 C5         69.0000  -17.2640  -16.5610 C.ar      1 ANP501      0.0000 
     26 C6         69.1130  -18.5990  -16.9950 C.ar      1 ANP501      0.0000 
     27 N6         69.3570  -19.6280  -16.1800 N.pl3     1 ANP501      0.0000 
     28 N1         68.9590  -18.8440  -18.3160 N.ar      1 ANP501      0.0000 
     29 C2         68.7110  -17.8190  -19.1360 C.ar      1 ANP501      0.0000 
     30 N3         68.5830  -16.5230  -18.8420 N.ar      1 ANP501      0.0000 
     31 C4         68.7380  -16.3100  -17.5290 C.ar      1 ANP501      0.0000 
@<TRIPOS>BOND
     1    1    2 ar   
     2    1    3 ar   
     3    1    4 ar   
     4    1    8 1    
     5    5    6 ar   
     6    5    7 ar   
     7    5    8 1    
     8    5   12 1    
     9    9   10 ar   
    10    9   11 ar   
    11    9   12 1    
    12    9   13 1    
    13   13   14 1    
    14   14   15 1    
    15   15   16 1    
    16   15   17 1    
    17   16   21 1    
    18   17   18 1    
    19   17   19 1    
    20   19   20 1    
    21   19   21 1    
    22   21   22 1    
    23   22   23 1    
    24   22   31 1    
    25   23   24 2    
    26   24   25 1    
    27   25   26 ar   
    28   25   31 ar   
    29   26   27 1    
    30   26   28 ar   
    31   28   29 ar   
    32   29   30 ar   
    33   30   31 ar   
@<TRIPOS>SUBSTRUCTURE
     1 ANP501      1 GROUP   
@<TRIPOS>SET
ATOM$ORANGE STATIC     ATOMS   COLORGROUP SYSTEM 
20 14 14 15 15 17 17 19 19 21 21 23 23 25 25 26 26 29 \
29 31 31 

