#    Name: 5zui_1_ADP
#    Modification time : Fri May 22 19:25:18 2020

@<TRIPOS>MOLECULE
5zui_1_ADP
   27    29     1     0     1
SMALL
NO_CHARGES


@<TRIPOS>ATOM
      1 PB         24.8750   10.8890   56.7700 P.3       1 ADP901      0.0000 
      2 O1B        25.6470   10.0530   55.7780 O.co2     1 ADP901      0.0000 
      3 O2B        24.9270   10.3870   58.1940 O.co2     1 ADP901      0.0000 
      4 O3B        23.5010   11.2910   56.2860 O.co2     1 ADP901      0.0000 
      5 PA         26.9650   12.5850   55.8880 P.3       1 ADP901      0.0000 
      6 O1A        26.4750   12.5530   54.4590 O.co2     1 ADP901      0.0000 
      7 O2A        28.1560   11.7470   56.2810 O.co2     1 ADP901      0.0000 
      8 O3A        25.7070   12.2680   56.8470 O.3       1 ADP901      0.0000 
      9 O5'        27.2440   14.1160   56.2940 O.3       1 ADP901      0.0000 
     10 C5'        26.5730   15.1680   55.6030 C.3       1 ADP901      0.0000 
     11 C4'        27.5050   16.3630   55.4810 C.3       1 ADP901      0.0000 
     12 O4'        28.1780   16.5650   56.7230 O.3       1 ADP901      0.0000 
     13 C3'        28.5510   16.1020   54.4130 C.3       1 ADP901      0.0000 
     14 O3'        28.5770   17.2040   53.4970 O.3       1 ADP901      0.0000 
     15 C2'        29.8640   16.0070   55.1610 C.3       1 ADP901      0.0000 
     16 O2'        30.8830   16.7220   54.4590 O.3       1 ADP901      0.0000 
     17 C1'        29.5890   16.6370   56.5160 C.3       1 ADP901      0.0000 
     18 N9         30.2920   15.9180   57.6070 N.pl3     1 ADP901      0.0000 
     19 C8         29.7260   15.0810   58.4990 C.2       1 ADP901      0.0000 
     20 N7         30.6490   14.6020   59.3750 N.2       1 ADP901      0.0000 
     21 C5         31.8370   15.1480   59.0450 C.ar      1 ADP901      0.0000 
     22 C6         33.2320   15.0770   59.5490 C.ar      1 ADP901      0.0000 
     23 N6         33.5580   14.3050   60.6130 N.pl3     1 ADP901      0.0000 
     24 N1         34.1720   15.8100   58.9110 N.ar      1 ADP901      0.0000 
     25 C2         33.8730   16.5820   57.8490 C.ar      1 ADP901      0.0000 
     26 N3         32.6340   16.6930   57.3420 N.ar      1 ADP901      0.0000 
     27 C4         31.5930   16.0170   57.8830 C.ar      1 ADP901      0.0000 
@<TRIPOS>BOND
     1    1    2 ar   
     2    1    3 ar   
     3    1    4 ar   
     4    1    8 1    
     5    5    6 ar   
     6    5    7 ar   
     7    5    8 1    
     8    5    9 1    
     9    9   10 1    
    10   10   11 1    
    11   11   12 1    
    12   11   13 1    
    13   12   17 1    
    14   13   14 1    
    15   13   15 1    
    16   15   16 1    
    17   15   17 1    
    18   17   18 1    
    19   18   19 1    
    20   18   27 1    
    21   19   20 2    
    22   20   21 1    
    23   21   22 ar   
    24   21   27 ar   
    25   22   23 1    
    26   22   24 ar   
    27   24   25 ar   
    28   25   26 ar   
    29   26   27 ar   
@<TRIPOS>SUBSTRUCTURE
     1 ADP901      1 GROUP   
@<TRIPOS>SET
ATOM$ORANGE STATIC     ATOMS   COLORGROUP SYSTEM 
20 10 10 11 11 13 13 15 15 17 17 19 19 21 21 22 22 25 \
25 27 27 

