#    Name: 5zui_2_ADP
#    Modification time : Fri May 22 19:25:26 2020

@<TRIPOS>MOLECULE
5zui_2_ADP
   27    29     1     0     1
SMALL
NO_CHARGES


@<TRIPOS>ATOM
      1 PB         -2.3820   26.4550   83.1630 P.3       1 ADP902      0.0000 
      2 O1B        -1.2900   25.9200   82.2680 O.co2     1 ADP902      0.0000 
      3 O2B        -3.3970   25.4190   83.5860 O.co2     1 ADP902      0.0000 
      4 O3B        -1.8630   27.3300   84.2800 O.co2     1 ADP902      0.0000 
      5 PA         -2.6040   28.1490   80.9070 P.3       1 ADP902      0.0000 
      6 O1A        -2.5920   27.0950   79.8230 O.co2     1 ADP902      0.0000 
      7 O2A        -1.3420   28.8840   81.2650 O.co2     1 ADP902      0.0000 
      8 O3A        -3.2210   27.4650   82.2310 O.3       1 ADP902      0.0000 
      9 O5'        -3.7450   29.2240   80.5360 O.3       1 ADP902      0.0000 
     10 C5'        -4.7060   28.9440   79.5160 C.3       1 ADP902      0.0000 
     11 C4'        -5.1470   30.2390   78.8480 C.3       1 ADP902      0.0000 
     12 O4'        -5.5200   31.2040   79.8360 O.3       1 ADP902      0.0000 
     13 C3'        -4.0200   30.8410   78.0270 C.3       1 ADP902      0.0000 
     14 O3'        -4.2390   30.6190   76.6310 O.3       1 ADP902      0.0000 
     15 C2'        -4.0780   32.3200   78.3280 C.3       1 ADP902      0.0000 
     16 O2'        -4.7400   32.9680   77.2390 O.3       1 ADP902      0.0000 
     17 C1'        -4.9240   32.4750   79.5810 C.3       1 ADP902      0.0000 
     18 N9         -4.0620   32.8400   80.7380 N.pl3     1 ADP902      0.0000 
     19 C8         -3.9670   32.1490   81.8910 C.2       1 ADP902      0.0000 
     20 N7         -3.1020   32.7420   82.7580 N.2       1 ADP902      0.0000 
     21 C5         -2.6260   33.8460   82.1590 C.ar      1 ADP902      0.0000 
     22 C6         -1.6760   34.9220   82.5180 C.ar      1 ADP902      0.0000 
     23 N6         -1.0490   34.9360   83.7180 N.pl3     1 ADP902      0.0000 
     24 N1         -1.4550   35.8910   81.6030 N.ar      1 ADP902      0.0000 
     25 C2         -2.0760   35.8930   80.4060 C.ar      1 ADP902      0.0000 
     26 N3         -2.9500   34.9460   80.0140 N.ar      1 ADP902      0.0000 
     27 C4         -3.2630   33.9120   80.8320 C.ar      1 ADP902      0.0000 
@<TRIPOS>BOND
     1    1    2 ar   
     2    1    3 ar   
     3    1    4 ar   
     4    1    8 1    
     5    5    6 ar   
     6    5    7 ar   
     7    5    8 1    
     8    5    9 1    
     9    9   10 1    
    10   10   11 1    
    11   11   12 1    
    12   11   13 1    
    13   12   17 1    
    14   13   14 1    
    15   13   15 1    
    16   15   16 1    
    17   15   17 1    
    18   17   18 1    
    19   18   19 1    
    20   18   27 1    
    21   19   20 2    
    22   20   21 1    
    23   21   22 ar   
    24   21   27 ar   
    25   22   23 1    
    26   22   24 ar   
    27   24   25 ar   
    28   25   26 ar   
    29   26   27 ar   
@<TRIPOS>SUBSTRUCTURE
     1 ADP902      1 GROUP   
@<TRIPOS>SET
ATOM$ORANGE STATIC     ATOMS   COLORGROUP SYSTEM 
20 10 10 11 11 13 13 15 15 17 17 19 19 21 21 22 22 25 \
25 27 27 

