#    Name: 6gxk_1_NAP
#    Modification time : Fri May 22 19:30:21 2020

@<TRIPOS>MOLECULE
6gxk_1_NAP
   48    52     1     0     1
SMALL
NO_CHARGES


@<TRIPOS>ATOM
      1 PA         -5.1530   17.9290   19.6650 P.3       1 NAP401      0.0000 
      2 O1A        -6.5890   17.9960   19.1680 O.co2     1 NAP401      0.0000 
      3 O2A        -4.7290   18.4390   20.9670 O.co2     1 NAP401      0.0000 
      4 O5B        -4.8040   16.3490   19.5150 O.3       1 NAP401      0.0000 
      5 C5B        -3.4290   16.2290   19.7900 C.3       1 NAP401      0.0000 
      6 C4B        -3.0190   14.7830   19.4540 C.3       1 NAP401      0.0000 
      7 O4B        -3.9430   13.8840   20.0370 O.3       1 NAP401      0.0000 
      8 C3B        -3.0860   14.5900   17.9120 C.3       1 NAP401      0.0000 
      9 O3B        -1.8170   14.7400   17.3330 O.3       1 NAP401      0.0000 
     10 C2B        -3.5470   13.0900   17.7680 C.3       1 NAP401      0.0000 
     11 O2B        -2.5670   12.2920   17.2880 O.3       1 NAP401      0.0000 
     12 C1B        -3.8980   12.6820   19.2470 C.3       1 NAP401      0.0000 
     13 N9A        -5.1930   12.0510   19.3460 N.pl3     1 NAP401      0.0000 
     14 C8A        -6.3840   12.4130   18.6760 C.2       1 NAP401      0.0000 
     15 N7A        -7.4260   11.6210   19.0080 N.2       1 NAP401      0.0000 
     16 C5A        -6.8820   10.7070   19.9120 C.ar      1 NAP401      0.0000 
     17 C6A        -7.4460    9.6350   20.6050 C.ar      1 NAP401      0.0000 
     18 N6A        -8.7740    9.3230   20.4610 N.pl3     1 NAP401      0.0000 
     19 N1A        -6.6940    8.8700   21.4620 N.ar      1 NAP401      0.0000 
     20 C2A        -5.3780    9.2430   21.5690 C.ar      1 NAP401      0.0000 
     21 N3A        -4.6920   10.2360   20.9690 N.ar      1 NAP401      0.0000 
     22 C4A        -5.4960   10.9720   20.1380 C.ar      1 NAP401      0.0000 
     23 O3         -4.2180   18.5960   18.4750 O.3       1 NAP401      0.0000 
     24 PN         -3.9660   20.1520   18.1210 P.3       1 NAP401      0.0000 
     25 O1N        -3.6150   20.1640   16.6990 O.co2     1 NAP401      0.0000 
     26 O2N        -3.0960   20.8420   19.1650 O.co2     1 NAP401      0.0000 
     27 O5D        -5.4680   21.0190   18.2790 O.3       1 NAP401      0.0000 
     28 C5D        -6.3370   20.5210   17.3120 C.3       1 NAP401      0.0000 
     29 C4D        -6.6980   21.6060   16.2690 C.3       1 NAP401      0.0000 
     30 O4D        -6.9160   22.8760   16.9040 O.3       1 NAP401      0.0000 
     31 C3D        -5.5180   21.8670   15.3090 C.3       1 NAP401      0.0000 
     32 O3D        -5.4460   20.8030   14.3860 O.3       1 NAP401      0.0000 
     33 C2D        -6.0120   23.1630   14.6840 C.3       1 NAP401      0.0000 
     34 O2D        -7.1110   22.9130   13.8170 O.3       1 NAP401      0.0000 
     35 C1D        -6.5800   23.8960   15.9560 C.3       1 NAP401      0.0000 
     36 N1N        -5.5360   24.7910   16.6010 N.pl3     1 NAP401      0.0000 
     37 C2N        -5.6970   26.1620   16.5190 C.ar      1 NAP401      0.0000 
     38 C3N        -4.7570   26.9890   17.1090 C.ar      1 NAP401      0.0000 
     39 C7N        -4.9390   28.4380   17.0450 C.2       1 NAP401      0.0000 
     40 O7N        -4.0250   29.2130   17.3030 O.2       1 NAP401      0.0000 
     41 N7N        -6.1940   28.9410   16.7570 N.am      1 NAP401      0.0000 
     42 C4N        -3.6470   26.4480   17.7720 C.ar      1 NAP401      0.0000 
     43 C5N        -3.5040   25.0640   17.8620 C.ar      1 NAP401      0.0000 
     44 C6N        -4.4470   24.2350   17.2880 C.ar      1 NAP401      0.0000 
     45 P2B        -2.8780   11.2830   15.8560 P.3       1 NAP401      0.0000 
     46 O1X        -3.0270   12.3360   14.7970 O.co2     1 NAP401      0.0000 
     47 O2X        -1.7040   10.3500   15.8040 O.co2     1 NAP401      0.0000 
     48 O3X        -4.2350   10.7380   16.2580 O.co2     1 NAP401      0.0000 
@<TRIPOS>BOND
     1    1    2 ar   
     2    1    3 ar   
     3    1    4 1    
     4    1   23 1    
     5    4    5 1    
     6    5    6 1    
     7    6    7 1    
     8    6    8 1    
     9    7   12 1    
    10    8    9 1    
    11    8   10 1    
    12   10   11 1    
    13   10   12 1    
    14   11   45 1    
    15   12   13 1    
    16   13   14 1    
    17   13   22 1    
    18   14   15 2    
    19   15   16 1    
    20   16   17 ar   
    21   16   22 ar   
    22   17   18 1    
    23   17   19 ar   
    24   19   20 ar   
    25   20   21 ar   
    26   21   22 ar   
    27   23   24 1    
    28   24   25 ar   
    29   24   26 ar   
    30   24   27 1    
    31   27   28 1    
    32   28   29 1    
    33   29   30 1    
    34   29   31 1    
    35   30   35 1    
    36   31   32 1    
    37   31   33 1    
    38   33   34 1    
    39   33   35 1    
    40   35   36 1    
    41   36   37 ar   
    42   36   44 ar   
    43   37   38 ar   
    44   38   39 1    
    45   38   42 ar   
    46   39   40 2    
    47   39   41 am   
    48   42   43 ar   
    49   43   44 ar   
    50   45   46 ar   
    51   45   47 ar   
    52   45   48 ar   
@<TRIPOS>SUBSTRUCTURE
     1 NAP401      1 GROUP   
@<TRIPOS>SET
ATOM$ORANGE STATIC     ATOMS   COLORGROUP SYSTEM 
42 5 5 6 6 8 8 10 10 12 12 14 14 16 16 17 17 20 \
20 22 22 28 28 29 29 31 31 33 33 35 35 37 37 38 38 39 \
39 42 42 43 43 44 44 

