#    Name: 6gxk_2_NAP
#    Modification time : Fri May 22 19:30:26 2020

@<TRIPOS>MOLECULE
6gxk_2_NAP
   48    52     1     0     1
SMALL
NO_CHARGES


@<TRIPOS>ATOM
      1 PA          6.5300   -0.4810  -21.9090 P.3       1 NAP401      0.0000 
      2 O1A         5.0250   -0.3470  -21.8250 O.co2     1 NAP401      0.0000 
      3 O2A         7.4420   -0.2410  -20.7110 O.co2     1 NAP401      0.0000 
      4 O5B         6.6750   -2.0280  -22.4680 O.3       1 NAP401      0.0000 
      5 C5B         8.0310   -2.1740  -22.8060 C.3       1 NAP401      0.0000 
      6 C4B         8.1880   -3.5240  -23.5170 C.3       1 NAP401      0.0000 
      7 O4B         7.5080   -4.4910  -22.7750 O.3       1 NAP401      0.0000 
      8 C3B         7.4770   -3.4300  -24.8820 C.3       1 NAP401      0.0000 
      9 O3B         8.3920   -3.1070  -25.8960 O.3       1 NAP401      0.0000 
     10 C2B         6.9430   -4.8790  -25.0800 C.3       1 NAP401      0.0000 
     11 O2B         7.6120   -5.5550  -26.0220 O.3       1 NAP401      0.0000 
     12 C1B         7.2010   -5.5440  -23.6820 C.3       1 NAP401      0.0000 
     13 N9A         6.0150   -6.2060  -23.1600 N.pl3     1 NAP401      0.0000 
     14 C8A         4.6720   -5.7380  -23.1660 C.2       1 NAP401      0.0000 
     15 N7A         3.8260   -6.6040  -22.5580 N.2       1 NAP401      0.0000 
     16 C5A         4.6510   -7.6790  -22.1650 C.ar      1 NAP401      0.0000 
     17 C6A         4.3680   -8.8860  -21.5130 C.ar      1 NAP401      0.0000 
     18 N6A         3.0830   -9.1930  -21.1300 N.pl3     1 NAP401      0.0000 
     19 N1A         5.3590   -9.7830  -21.2370 N.ar      1 NAP401      0.0000 
     20 C2A         6.6290   -9.4120  -21.6370 C.ar      1 NAP401      0.0000 
     21 N3A         7.0550   -8.2960  -22.2650 N.ar      1 NAP401      0.0000 
     22 C4A         6.0120   -7.4410  -22.5280 C.ar      1 NAP401      0.0000 
     23 O3          6.9970    0.3780  -23.2420 O.3       1 NAP401      0.0000 
     24 PN          7.1130    1.9910  -23.4330 P.3       1 NAP401      0.0000 
     25 O1N         6.8650    2.2480  -24.8430 O.co2     1 NAP401      0.0000 
     26 O2N         8.2980    2.4970  -22.7560 O.co2     1 NAP401      0.0000 
     27 O5D         5.8360    2.8020  -22.5530 O.3       1 NAP401      0.0000 
     28 C5D         4.6440    2.4540  -23.1260 C.3       1 NAP401      0.0000 
     29 C4D         3.9410    3.6860  -23.7600 C.3       1 NAP401      0.0000 
     30 O4D         4.0480    4.8330  -22.9180 O.3       1 NAP401      0.0000 
     31 C3D         4.6050    4.1170  -25.0880 C.3       1 NAP401      0.0000 
     32 O3D         4.2280    3.2420  -26.1130 O.3       1 NAP401      0.0000 
     33 C2D         3.9730    5.4960  -25.2440 C.3       1 NAP401      0.0000 
     34 O2D         2.6110    5.4090  -25.5540 O.3       1 NAP401      0.0000 
     35 C1D         4.0600    5.9960  -23.7540 C.3       1 NAP401      0.0000 
     36 N1N         5.3450    6.7630  -23.4810 N.pl3     1 NAP401      0.0000 
     37 C2N         5.2770    8.1220  -23.3310 C.ar      1 NAP401      0.0000 
     38 C3N         6.4380    8.8350  -23.0640 C.ar      1 NAP401      0.0000 
     39 C7N         6.3450   10.2790  -22.8690 C.2       1 NAP401      0.0000 
     40 O7N         7.3350   11.0200  -22.9750 O.2       1 NAP401      0.0000 
     41 N7N         5.1270   10.7990  -22.4670 N.am      1 NAP401      0.0000 
     42 C4N         7.6940    8.1810  -22.9630 C.ar      1 NAP401      0.0000 
     43 C5N         7.7430    6.8020  -23.1200 C.ar      1 NAP401      0.0000 
     44 C6N         6.5830    6.0950  -23.3630 C.ar      1 NAP401      0.0000 
     45 P2B         6.7030   -6.2800  -27.3450 P.3       1 NAP401      0.0000 
     46 O1X         6.1370   -5.0150  -27.9810 O.co2     1 NAP401      0.0000 
     47 O2X         7.7300   -7.0610  -28.1110 O.co2     1 NAP401      0.0000 
     48 O3X         5.6150   -7.0120  -26.5670 O.co2     1 NAP401      0.0000 
@<TRIPOS>BOND
     1    1    2 ar   
     2    1    3 ar   
     3    1    4 1    
     4    1   23 1    
     5    4    5 1    
     6    5    6 1    
     7    6    7 1    
     8    6    8 1    
     9    7   12 1    
    10    8    9 1    
    11    8   10 1    
    12   10   11 1    
    13   10   12 1    
    14   11   45 1    
    15   12   13 1    
    16   13   14 1    
    17   13   22 1    
    18   14   15 2    
    19   15   16 1    
    20   16   17 ar   
    21   16   22 ar   
    22   17   18 1    
    23   17   19 ar   
    24   19   20 ar   
    25   20   21 ar   
    26   21   22 ar   
    27   23   24 1    
    28   24   25 ar   
    29   24   26 ar   
    30   24   27 1    
    31   27   28 1    
    32   28   29 1    
    33   29   30 1    
    34   29   31 1    
    35   30   35 1    
    36   31   32 1    
    37   31   33 1    
    38   33   34 1    
    39   33   35 1    
    40   35   36 1    
    41   36   37 ar   
    42   36   44 ar   
    43   37   38 ar   
    44   38   39 1    
    45   38   42 ar   
    46   39   40 2    
    47   39   41 am   
    48   42   43 ar   
    49   43   44 ar   
    50   45   46 ar   
    51   45   47 ar   
    52   45   48 ar   
@<TRIPOS>SUBSTRUCTURE
     1 NAP401      1 GROUP   
@<TRIPOS>SET
ATOM$ORANGE STATIC     ATOMS   COLORGROUP SYSTEM 
42 5 5 6 6 8 8 10 10 12 12 14 14 16 16 17 17 20 \
20 22 22 28 28 29 29 31 31 33 33 35 35 37 37 38 38 39 \
39 42 42 43 43 44 44 

