#    Name: 6pur_6_APR_CAVITY_N1_4
#    Modification time : Fri May 22 19:31:34 2020

@<TRIPOS>MOLECULE
6pur_6_APR_CAVITY_N1_4
   21     0     5     0     0
SMALL
NO_CHARGES


@<TRIPOS>ATOM
      1 OG        213.6900  184.2300  103.0200 O.3       1 SER1        0.0000 
      2 OG        214.5500  183.0200  103.2800 O.3       1 SER1        0.0000 
      3 N         214.8500  180.7500  100.4100 N.am      2 ALA2        0.0000 
      4 N         215.8200  181.2100   99.3600 N.am      2 ALA2        0.0000 
      5 N         215.9400  182.8800   98.0600 N.am      2 ALA2        0.0000 
      6 N         216.7900  181.6700   98.3200 N.am      2 ALA2        0.0000 
      7 CZ        213.2400  181.2000   99.1000 C.ar      3 PHE5        0.0000 
      8 CZ        212.1700  182.7100  100.9300 C.ar      3 PHE5        0.0000 
      9 CZ        213.0200  181.5000  101.1900 C.ar      3 PHE5        0.0000 
     10 CZ        212.9300  183.4700  101.9800 C.ar      3 PHE5        0.0000 
     11 CZ        213.7800  182.2600  102.2300 C.ar      3 PHE5        0.0000 
     12 CA        215.6100  181.5100  101.4500 C.3       4 GLY6        0.0000 
     13 CA        216.5800  181.9700  100.4100 C.3       4 GLY6        0.0000 
     14 CA        215.5200  183.4800  102.2400 C.3       4 GLY6        0.0000 
     15 CA        216.3700  182.2700  102.4900 C.3       4 GLY6        0.0000 
     16 CA        217.3400  182.7300  101.4500 C.3       4 GLY6        0.0000 
     17 DU        214.0000  181.9600  100.1500 H         5 CUB7        0.0000 
     18 DU        214.9700  182.4200   99.1000 H         5 CUB7        0.0000 
     19 DU        214.7600  182.7200  101.1900 H         5 CUB7        0.0000 
     20 DU        215.7300  183.1800  100.1500 H         5 CUB7        0.0000 
     21 DU        217.5500  182.4300   99.3600 H         5 CUB7        0.0000 
@<TRIPOS>BOND
@<TRIPOS>SUBSTRUCTURE
     1 SER1        1 GROUP   
     2 ALA2        3 GROUP   
     3 PHE5        7 GROUP   
     4 GLY6       12 GROUP   
     5 CUB7       17 GROUP   
@<TRIPOS>SET

