#    Name: 6pur_8_APR_CAVITY_N1_4
#    Modification time : Fri May 22 19:32:02 2020

@<TRIPOS>MOLECULE
6pur_8_APR_CAVITY_N1_4
   19     0     6     0     0
SMALL
NO_CHARGES


@<TRIPOS>ATOM
      1 OG        139.2000  212.6000   97.8500 O.3       1 SER1        0.0000 
      2 OG        139.9600  213.3600   98.9000 O.3       1 SER1        0.0000 
      3 OG        139.5400  213.9600  103.0800 O.3       1 SER1        0.0000 
      4 N         140.9400  213.8200   97.8500 N.am      2 ALA2        0.0000 
      5 N         140.8500  215.7900   98.6400 N.am      2 ALA2        0.0000 
      6 N         141.7000  214.5900   98.9000 N.am      2 ALA2        0.0000 
      7 N         141.6100  216.5500   99.6800 N.am      2 ALA2        0.0000 
      8 OD1       136.4100  212.8900   99.6800 O.co2     3 ASP3        0.0000 
      9 OD1       138.2300  212.1400   98.9000 O.co2     3 ASP3        0.0000 
     10 CZ        138.0200  212.4400  100.9900 C.ar      4 PHE5        0.0000 
     11 CZ        138.9900  212.9000   99.9400 C.ar      4 PHE5        0.0000 
     12 CZ        138.7800  213.2000  102.0300 C.ar      4 PHE5        0.0000 
     13 CZ        139.7500  213.6600  100.9900 C.ar      4 PHE5        0.0000 
     14 CZ        140.5100  214.4200  102.0300 C.ar      4 PHE5        0.0000 
     15 CA        139.6600  215.6300  101.7700 C.3       5 GLY6        0.0000 
     16 CA        141.4900  214.8900  100.9900 C.3       5 GLY6        0.0000 
     17 DU        140.7200  214.1200   99.9400 H         6 CUB7        0.0000 
     18 DU        140.6300  216.0900  100.7300 H         6 CUB7        0.0000 
     19 DU        140.7600  217.7600   99.4200 H         6 CUB7        0.0000 
@<TRIPOS>BOND
@<TRIPOS>SUBSTRUCTURE
     1 SER1        1 GROUP   
     2 ALA2        4 GROUP   
     3 ASP3        8 GROUP   
     4 PHE5       10 GROUP   
     5 GLY6       15 GROUP   
     6 CUB7       17 GROUP   
@<TRIPOS>SET

