#    Name: 6pur_8_APR
#    Modification time : Fri May 22 19:32:01 2020

@<TRIPOS>MOLECULE
6pur_8_APR
   36    39     1     0     0
SMALL
NO_CHARGES


@<TRIPOS>ATOM
      1 N1        138.9680  207.1070  101.9590 N.ar      1 APR1602     0.0000 
      2 C2        138.4010  207.5360  103.0970 C.ar      1 APR1602     0.0000 
      3 N3        137.4630  208.4880  103.1420 N.ar      1 APR1602     0.0000 
      4 C4        137.0260  209.0750  102.0110 C.ar      1 APR1602     0.0000 
      5 C5        137.5900  208.6620  100.7260 C.ar      1 APR1602     0.0000 
      6 C6        138.6210  207.6100  100.7610 C.ar      1 APR1602     0.0000 
      7 N6        139.1950  207.1670   99.6210 N.pl3     1 APR1602     0.0000 
      8 N7        136.9860  209.3960   99.7790 N.2       1 APR1602     0.0000 
      9 C8        136.1090  210.2120  100.4120 C.2       1 APR1602     0.0000 
     10 N9        136.1370  210.0180  101.7380 N.pl3     1 APR1602     0.0000 
     11 C1'       135.3080  210.7220  102.7390 C.3       1 APR1602     0.0000 
     12 C2'       135.8900  212.0810  103.0540 C.3       1 APR1602     0.0000 
     13 O2'       136.5940  212.0090  104.2920 O.3       1 APR1602     0.0000 
     14 C3'       134.6890  212.9850  103.2040 C.3       1 APR1602     0.0000 
     15 O3'       134.5070  213.2710  104.5890 O.3       1 APR1602     0.0000 
     16 O4'       134.0040  210.9560  102.2120 O.3       1 APR1602     0.0000 
     17 C4'       133.4960  212.1920  102.7060 C.3       1 APR1602     0.0000 
     18 C5'       132.7700  212.9300  101.5940 C.3       1 APR1602     0.0000 
     19 O5'       133.6540  212.9950  100.4830 O.3       1 APR1602     0.0000 
     20 PA        133.9820  214.4240   99.8320 P.3       1 APR1602     0.0000 
     21 O1A       133.3630  215.4760  100.7130 O.co2     1 APR1602     0.0000 
     22 O2A       133.6410  214.3720   98.3640 O.co2     1 APR1602     0.0000 
     23 O3A       135.5840  214.4140   99.9800 O.3       1 APR1602     0.0000 
     24 PB        136.4800  215.7490   99.9760 P.3       1 APR1602     0.0000 
     25 O1B       137.9070  215.3460   99.6940 O.co2     1 APR1602     0.0000 
     26 O2B       135.8190  216.7870   99.1050 O.co2     1 APR1602     0.0000 
     27 O5D       136.4310  216.2500  101.5050 O.3       1 APR1602     0.0000 
     28 C5D       135.7000  217.4200  101.8540 C.3       1 APR1602     0.0000 
     29 O4D       135.4270  219.0560  103.5960 O.3       1 APR1602     0.0000 
     30 O1D       133.5870  219.8240  104.8190 O.3       1 APR1602     0.0000 
     31 C1D       134.7690  219.0210  104.8600 C.3       1 APR1602     0.0000 
     32 O2D       134.6070  217.2410  106.4780 O.3       1 APR1602     0.0000 
     33 C2D       134.4110  217.5680  105.1050 C.3       1 APR1602     0.0000 
     34 O3D       136.3890  216.2260  105.1050 O.3       1 APR1602     0.0000 
     35 C3D       135.3760  216.7720  104.2600 C.3       1 APR1602     0.0000 
     36 C4D       135.9870  217.7760  103.3010 C.3       1 APR1602     0.0000 
@<TRIPOS>BOND
     1    1    2 ar   
     2    1    6 ar   
     3    2    3 ar   
     4    3    4 ar   
     5    4    5 ar   
     6    4   10 1    
     7    5    6 ar   
     8    5    8 1    
     9    6    7 1    
    10    8    9 2    
    11    9   10 1    
    12   10   11 1    
    13   11   12 1    
    14   11   16 1    
    15   12   13 1    
    16   12   14 1    
    17   14   15 1    
    18   14   17 1    
    19   16   17 1    
    20   17   18 1    
    21   18   19 1    
    22   19   20 1    
    23   20   21 ar   
    24   20   22 ar   
    25   20   23 1    
    26   23   24 1    
    27   24   25 ar   
    28   24   26 ar   
    29   24   27 1    
    30   27   28 1    
    31   28   36 1    
    32   29   31 1    
    33   29   36 1    
    34   30   31 1    
    35   31   33 1    
    36   32   33 1    
    37   33   35 1    
    38   34   35 1    
    39   35   36 1    
@<TRIPOS>SUBSTRUCTURE
     1 APR1602     1 GROUP   
@<TRIPOS>SET

