#    Name: 6pur_6_APR
#    Modification time : Fri May 22 19:31:33 2020

@<TRIPOS>MOLECULE
6pur_6_APR
   36    39     1     0     0
SMALL
NO_CHARGES


@<TRIPOS>ATOM
      1 N1        207.1040  183.2510  101.9670 N.ar      1 APR1602     0.0000 
      2 C2        207.5340  183.8170  103.1060 C.ar      1 APR1602     0.0000 
      3 N3        208.4860  184.7550  103.1510 N.ar      1 APR1602     0.0000 
      4 C4        209.0730  185.1930  102.0200 C.ar      1 APR1602     0.0000 
      5 C5        208.6590  184.6290  100.7350 C.ar      1 APR1602     0.0000 
      6 C6        207.6070  183.5980  100.7690 C.ar      1 APR1602     0.0000 
      7 N6        207.1640  183.0240   99.6290 N.pl3     1 APR1602     0.0000 
      8 N7        209.3930  185.2330   99.7880 N.2       1 APR1602     0.0000 
      9 C8        210.2080  186.1100  100.4210 C.2       1 APR1602     0.0000 
     10 N9        210.0160  186.0820  101.7470 N.pl3     1 APR1602     0.0000 
     11 C1'       210.7200  186.9100  102.7480 C.3       1 APR1602     0.0000 
     12 C2'       212.0790  186.3280  103.0630 C.3       1 APR1602     0.0000 
     13 O2'       212.0070  185.6240  104.3010 O.3       1 APR1602     0.0000 
     14 C3'       212.9830  187.5290  103.2130 C.3       1 APR1602     0.0000 
     15 O3'       213.2690  187.7100  104.5980 O.3       1 APR1602     0.0000 
     16 O4'       210.9530  188.2140  102.2220 O.3       1 APR1602     0.0000 
     17 C4'       212.1890  188.7220  102.7160 C.3       1 APR1602     0.0000 
     18 C5'       212.9270  189.4480  101.6040 C.3       1 APR1602     0.0000 
     19 O5'       212.9920  188.5650  100.4930 O.3       1 APR1602     0.0000 
     20 PA        214.4210  188.2370   99.8410 P.3       1 APR1602     0.0000 
     21 O1A       215.4730  188.8560  100.7210 O.co2     1 APR1602     0.0000 
     22 O2A       214.3690  188.5780   98.3730 O.co2     1 APR1602     0.0000 
     23 O3A       214.4100  186.6350   99.9890 O.3       1 APR1602     0.0000 
     24 PB        215.7460  185.7390   99.9840 P.3       1 APR1602     0.0000 
     25 O1B       215.3430  184.3120   99.7020 O.co2     1 APR1602     0.0000 
     26 O2B       216.7830  186.4000   99.1130 O.co2     1 APR1602     0.0000 
     27 O5D       216.2480  185.7870  101.5120 O.3       1 APR1602     0.0000 
     28 C5D       217.4180  186.5180  101.8620 C.3       1 APR1602     0.0000 
     29 O4D       219.0540  186.7910  103.6030 O.3       1 APR1602     0.0000 
     30 O1D       219.8220  188.6310  104.8270 O.3       1 APR1602     0.0000 
     31 C1D       219.0190  187.4490  104.8680 C.3       1 APR1602     0.0000 
     32 O2D       217.2390  187.6100  106.4860 O.3       1 APR1602     0.0000 
     33 C2D       217.5660  187.8070  105.1130 C.3       1 APR1602     0.0000 
     34 O3D       216.2240  185.8280  105.1120 O.3       1 APR1602     0.0000 
     35 C3D       216.7700  186.8410  104.2680 C.3       1 APR1602     0.0000 
     36 C4D       217.7740  186.2310  103.3080 C.3       1 APR1602     0.0000 
@<TRIPOS>BOND
     1    1    2 ar   
     2    1    6 ar   
     3    2    3 ar   
     4    3    4 ar   
     5    4    5 ar   
     6    4   10 1    
     7    5    6 ar   
     8    5    8 1    
     9    6    7 1    
    10    8    9 2    
    11    9   10 1    
    12   10   11 1    
    13   11   12 1    
    14   11   16 1    
    15   12   13 1    
    16   12   14 1    
    17   14   15 1    
    18   14   17 1    
    19   16   17 1    
    20   17   18 1    
    21   18   19 1    
    22   19   20 1    
    23   20   21 ar   
    24   20   22 ar   
    25   20   23 1    
    26   23   24 1    
    27   24   25 ar   
    28   24   26 ar   
    29   24   27 1    
    30   27   28 1    
    31   28   36 1    
    32   29   31 1    
    33   29   36 1    
    34   30   31 1    
    35   31   33 1    
    36   32   33 1    
    37   33   35 1    
    38   34   35 1    
    39   35   36 1    
@<TRIPOS>SUBSTRUCTURE
     1 APR1602     1 GROUP   
@<TRIPOS>SET

