#    Name: 6pur_4_APR
#    Modification time : Fri May 22 19:31:04 2020

@<TRIPOS>MOLECULE
6pur_4_APR
   36    39     1     0     0
SMALL
NO_CHARGES


@<TRIPOS>ATOM
      1 N1        183.2440  115.1060  101.9540 N.ar      1 APR1602     0.0000 
      2 C2        183.8110  114.6770  103.0920 C.ar      1 APR1602     0.0000 
      3 N3        184.7490  113.7250  103.1370 N.ar      1 APR1602     0.0000 
      4 C4        185.1860  113.1380  102.0060 C.ar      1 APR1602     0.0000 
      5 C5        184.6220  113.5510  100.7210 C.ar      1 APR1602     0.0000 
      6 C6        183.5910  114.6030  100.7560 C.ar      1 APR1602     0.0000 
      7 N6        183.0160  115.0460   99.6160 N.pl3     1 APR1602     0.0000 
      8 N7        185.2260  112.8170   99.7740 N.2       1 APR1602     0.0000 
      9 C8        186.1030  112.0020  100.4070 C.2       1 APR1602     0.0000 
     10 N9        186.0750  112.1950  101.7330 N.pl3     1 APR1602     0.0000 
     11 C1'       186.9040  111.4900  102.7340 C.3       1 APR1602     0.0000 
     12 C2'       186.3210  110.1310  103.0480 C.3       1 APR1602     0.0000 
     13 O2'       185.6170  110.2030  104.2860 O.3       1 APR1602     0.0000 
     14 C3'       187.5220  109.2270  103.1980 C.3       1 APR1602     0.0000 
     15 O3'       187.7040  108.9410  104.5830 O.3       1 APR1602     0.0000 
     16 O4'       188.2080  111.2570  102.2070 O.3       1 APR1602     0.0000 
     17 C4'       188.7160  110.0210  102.7000 C.3       1 APR1602     0.0000 
     18 C5'       189.4410  109.2830  101.5880 C.3       1 APR1602     0.0000 
     19 O5'       188.5580  109.2190  100.4770 O.3       1 APR1602     0.0000 
     20 PA        188.2290  107.7900   99.8260 P.3       1 APR1602     0.0000 
     21 O1A       188.8480  106.7370  100.7060 O.co2     1 APR1602     0.0000 
     22 O2A       188.5710  107.8420   98.3580 O.co2     1 APR1602     0.0000 
     23 O3A       186.6270  107.8000   99.9740 O.3       1 APR1602     0.0000 
     24 PB        185.7310  106.4640   99.9700 P.3       1 APR1602     0.0000 
     25 O1B       184.3040  106.8670   99.6880 O.co2     1 APR1602     0.0000 
     26 O2B       186.3920  105.4270   99.0970 O.co2     1 APR1602     0.0000 
     27 O5D       185.7800  105.9630  101.4970 O.3       1 APR1602     0.0000 
     28 C5D       186.5110  104.7930  101.8460 C.3       1 APR1602     0.0000 
     29 O4D       186.7850  103.1560  103.5880 O.3       1 APR1602     0.0000 
     30 O1D       188.6240  102.3880  104.8110 O.3       1 APR1602     0.0000 
     31 C1D       187.4430  103.1910  104.8520 C.3       1 APR1602     0.0000 
     32 O2D       187.6050  104.9710  106.4700 O.3       1 APR1602     0.0000 
     33 C2D       187.8010  104.6440  105.0970 C.3       1 APR1602     0.0000 
     34 O3D       185.8220  105.9860  105.0970 O.3       1 APR1602     0.0000 
     35 C3D       186.8350  105.4400  104.2520 C.3       1 APR1602     0.0000 
     36 C4D       186.2250  104.4360  103.2930 C.3       1 APR1602     0.0000 
@<TRIPOS>BOND
     1    1    2 ar   
     2    1    6 ar   
     3    2    3 ar   
     4    3    4 ar   
     5    4    5 ar   
     6    4   10 1    
     7    5    6 ar   
     8    5    8 1    
     9    6    7 1    
    10    8    9 2    
    11    9   10 1    
    12   10   11 1    
    13   11   12 1    
    14   11   16 1    
    15   12   13 1    
    16   12   14 1    
    17   14   15 1    
    18   14   17 1    
    19   16   17 1    
    20   17   18 1    
    21   18   19 1    
    22   19   20 1    
    23   20   21 ar   
    24   20   22 ar   
    25   20   23 1    
    26   23   24 1    
    27   24   25 ar   
    28   24   26 ar   
    29   24   27 1    
    30   27   28 1    
    31   28   36 1    
    32   29   31 1    
    33   29   36 1    
    34   30   31 1    
    35   31   33 1    
    36   32   33 1    
    37   33   35 1    
    38   34   35 1    
    39   35   36 1    
@<TRIPOS>SUBSTRUCTURE
     1 APR1602     1 GROUP   
@<TRIPOS>SET

