#    Name: 6pur_3_APR
#    Modification time : Fri May 22 19:30:48 2020

@<TRIPOS>MOLECULE
6pur_3_APR
   36    39     1     0     0
SMALL
NO_CHARGES


@<TRIPOS>ATOM
      1 N1        204.9240  128.7360  125.5590 N.ar      1 APR1601     0.0000 
      2 C2        205.5720  129.8720  125.8490 C.ar      1 APR1601     0.0000 
      3 N3        205.8470  130.8230  124.9460 N.ar      1 APR1601     0.0000 
      4 C4        205.4700  130.6800  123.6640 C.ar      1 APR1601     0.0000 
      5 C5        204.7590  129.4710  123.2670 C.ar      1 APR1601     0.0000 
      6 C6        204.4950  128.4720  124.3140 C.ar      1 APR1601     0.0000 
      7 N6        203.8400  127.3270  124.0300 N.pl3     1 APR1601     0.0000 
      8 N7        204.5050  129.5860  121.9560 N.2       1 APR1601     0.0000 
      9 C8        205.0000  130.7770  121.5500 C.2       1 APR1601     0.0000 
     10 N9        205.5880  131.4110  122.5690 N.pl3     1 APR1601     0.0000 
     11 C1'       206.2380  132.7210  122.4840 C.3       1 APR1601     0.0000 
     12 C2'       207.0130  132.7690  121.1890 C.3       1 APR1601     0.0000 
     13 O2'       208.4040  132.6460  121.4620 O.3       1 APR1601     0.0000 
     14 C3'       206.7370  134.1340  120.6150 C.3       1 APR1601     0.0000 
     15 O3'       207.9320  134.9050  120.6970 O.3       1 APR1601     0.0000 
     16 O4'       205.2500  133.7370  122.4040 O.3       1 APR1601     0.0000 
     17 C4'       205.6920  134.7520  121.5140 C.3       1 APR1601     0.0000 
     18 C5'       204.5040  135.2080  120.7040 C.3       1 APR1601     0.0000 
     19 O5'       203.3870  135.1160  121.5710 O.3       1 APR1601     0.0000 
     20 PA        201.9470  135.5620  121.0480 P.3       1 APR1601     0.0000 
     21 O1A       201.3910  136.6210  121.9490 O.co2     1 APR1601     0.0000 
     22 O2A       202.0100  135.7930  119.5660 O.co2     1 APR1601     0.0000 
     23 O3A       201.1750  134.2070  121.3620 O.3       1 APR1601     0.0000 
     24 PB        201.0290  133.1500  120.1790 P.3       1 APR1601     0.0000 
     25 O1B       202.3790  132.9710  119.5350 O.co2     1 APR1601     0.0000 
     26 O2B       199.8160  133.5430  119.3790 O.co2     1 APR1601     0.0000 
     27 O5D       200.7380  131.8490  121.0600 O.3       1 APR1601     0.0000 
     28 C5D       199.4210  131.3970  121.3320 C.3       1 APR1601     0.0000 
     29 O4D       198.5070  130.1080  123.1940 O.3       1 APR1601     0.0000 
     30 O1D       197.1530  128.2860  123.7630 O.3       1 APR1601     0.0000 
     31 C1D       198.4950  128.7420  123.6030 C.3       1 APR1601     0.0000 
     32 O2D       200.1120  127.0420  123.0590 O.3       1 APR1601     0.0000 
     33 C2D       199.1660  127.9520  122.4960 C.3       1 APR1601     0.0000 
     34 O3D       201.2850  128.7100  121.5950 O.3       1 APR1601     0.0000 
     35 C3D       199.8840  128.9780  121.6500 C.3       1 APR1601     0.0000 
     36 C4D       199.6350  130.2970  122.3480 C.3       1 APR1601     0.0000 
@<TRIPOS>BOND
     1    1    2 ar   
     2    1    6 ar   
     3    2    3 ar   
     4    3    4 ar   
     5    4    5 ar   
     6    4   10 1    
     7    5    6 ar   
     8    5    8 1    
     9    6    7 1    
    10    8    9 2    
    11    9   10 1    
    12   10   11 1    
    13   11   12 1    
    14   11   16 1    
    15   12   13 1    
    16   12   14 1    
    17   14   15 1    
    18   14   17 1    
    19   16   17 1    
    20   17   18 1    
    21   18   19 1    
    22   19   20 1    
    23   20   21 ar   
    24   20   22 ar   
    25   20   23 1    
    26   23   24 1    
    27   24   25 ar   
    28   24   26 ar   
    29   24   27 1    
    30   27   28 1    
    31   28   36 1    
    32   29   31 1    
    33   29   36 1    
    34   30   31 1    
    35   31   33 1    
    36   32   33 1    
    37   33   35 1    
    38   34   35 1    
    39   35   36 1    
@<TRIPOS>SUBSTRUCTURE
     1 APR1601     1 GROUP   
@<TRIPOS>SET

