#    Name: 6pur_8_APR_CAVITY_N1_8
#    Modification time : Fri May 22 19:32:02 2020

@<TRIPOS>MOLECULE
6pur_8_APR_CAVITY_N1_8
   56     0     6     0     0
SMALL
NO_CHARGES


@<TRIPOS>ATOM
      1 OG        139.2000  212.6000   97.8500 O.3       1 SER1        0.0000 
      2 OG        139.9600  213.3600   98.9000 O.3       1 SER1        0.0000 
      3 OG        139.5400  213.9600  103.0800 O.3       1 SER1        0.0000 
      4 OG        140.3000  214.7300  104.1200 O.3       1 SER1        0.0000 
      5 OG        141.1500  213.5200  104.3800 O.3       1 SER1        0.0000 
      6 N         140.9400  213.8200   97.8500 N.am      2 ALA2        0.0000 
      7 N         140.8500  215.7900   98.6400 N.am      2 ALA2        0.0000 
      8 N         141.7000  214.5900   98.9000 N.am      2 ALA2        0.0000 
      9 N         141.6100  216.5500   99.6800 N.am      2 ALA2        0.0000 
     10 N         142.4600  215.3500   99.9400 N.am      2 ALA2        0.0000 
     11 N         142.5800  217.0100   98.6400 N.am      2 ALA2        0.0000 
     12 N         143.2200  216.1100  100.9900 N.am      2 ALA2        0.0000 
     13 N         140.7900  221.4000   98.9000 N.am      2 ALA2        0.0000 
     14 N         141.6400  220.1900   99.1600 N.am      2 ALA2        0.0000 
     15 N         142.4900  218.9800   99.4200 N.am      2 ALA2        0.0000 
     16 N         140.7000  223.3700   99.6900 N.am      2 ALA2        0.0000 
     17 N         141.5500  222.1600   99.9500 N.am      2 ALA2        0.0000 
     18 N         142.4000  220.9500  100.2100 N.am      2 ALA2        0.0000 
     19 N         143.2500  219.7400  100.4700 N.am      2 ALA2        0.0000 
     20 O         141.2500  224.4300  102.8200 O.2       2 ALA2        0.0000 
     21 OD1       136.4100  212.8900   99.6800 O.co2     3 ASP3        0.0000 
     22 OD1       138.2300  212.1400   98.9000 O.co2     3 ASP3        0.0000 
     23 CZ        138.0200  212.4400  100.9900 C.ar      4 PHE5        0.0000 
     24 CZ        138.9900  212.9000   99.9400 C.ar      4 PHE5        0.0000 
     25 CZ        140.8100  212.1600   99.1600 C.ar      4 PHE5        0.0000 
     26 CZ        138.7800  213.2000  102.0300 C.ar      4 PHE5        0.0000 
     27 CZ        139.7500  213.6600  100.9900 C.ar      4 PHE5        0.0000 
     28 CZ        141.5800  212.9200  100.2000 C.ar      4 PHE5        0.0000 
     29 CZ        140.5100  214.4200  102.0300 C.ar      4 PHE5        0.0000 
     30 CA        139.6600  215.6300  101.7700 C.3       5 GLY6        0.0000 
     31 CA        141.3600  213.2200  102.2900 C.3       5 GLY6        0.0000 
     32 CA        141.4900  214.8900  100.9900 C.3       5 GLY6        0.0000 
     33 CA        140.8800  219.4300   98.1200 C.3       5 GLY6        0.0000 
     34 CA        140.4200  216.3900  102.8200 C.3       5 GLY6        0.0000 
     35 CA        141.2700  215.1900  103.0800 C.3       5 GLY6        0.0000 
     36 CA        141.4000  216.8500  101.7700 C.3       5 GLY6        0.0000 
     37 CA        142.2500  215.6500  102.0300 C.3       5 GLY6        0.0000 
     38 CA        140.6700  219.7300  100.2100 C.3       5 GLY6        0.0000 
     39 CA        141.5200  218.5200  100.4700 C.3       5 GLY6        0.0000 
     40 CA        142.3700  217.3200  100.7300 C.3       5 GLY6        0.0000 
     41 CA        141.0600  215.4900  105.1700 C.3       5 GLY6        0.0000 
     42 CA        142.0300  215.9500  104.1200 C.3       5 GLY6        0.0000 
     43 CA        142.1600  217.6200  102.8200 C.3       5 GLY6        0.0000 
     44 CA        140.5800  221.7000  100.9900 C.3       5 GLY6        0.0000 
     45 CA        141.4300  220.4900  101.2500 C.3       5 GLY6        0.0000 
     46 CA        142.2800  219.2800  101.5100 C.3       5 GLY6        0.0000 
     47 CA        144.1000  218.5400  100.7300 C.3       5 GLY6        0.0000 
     48 CA        139.5100  223.2100  102.8200 C.3       5 GLY6        0.0000 
     49 CA        140.4900  223.6700  101.7800 C.3       5 GLY6        0.0000 
     50 CA        141.3400  222.4600  102.0400 C.3       5 GLY6        0.0000 
     51 CA        142.1900  221.2500  102.3000 C.3       5 GLY6        0.0000 
     52 CA        143.0400  220.0500  102.5600 C.3       5 GLY6        0.0000 
     53 CA        142.1000  223.2200  103.0800 C.3       5 GLY6        0.0000 
     54 DU        140.7200  214.1200   99.9400 H         6 CUB7        0.0000 
     55 DU        140.6300  216.0900  100.7300 H         6 CUB7        0.0000 
     56 DU        140.7600  217.7600   99.4200 H         6 CUB7        0.0000 
@<TRIPOS>BOND
@<TRIPOS>SUBSTRUCTURE
     1 SER1        1 GROUP   
     2 ALA2        6 GROUP   
     3 ASP3       21 GROUP   
     4 PHE5       23 GROUP   
     5 GLY6       30 GROUP   
     6 CUB7       54 GROUP   
@<TRIPOS>SET

