#    Name: 6pur_4_APR_CAVITY_N1_4
#    Modification time : Fri May 22 19:31:05 2020

@<TRIPOS>MOLECULE
6pur_4_APR_CAVITY_N1_4
   82     0     7     0     0
SMALL
NO_CHARGES


@<TRIPOS>ATOM
      1 OG        182.5400  108.7500   96.7100 O.3       1 SER1        0.0000 
      2 OG        182.3300  109.0500   98.8000 O.3       1 SER1        0.0000 
      3 OG        183.3000  109.5100   97.7600 O.3       1 SER1        0.0000 
      4 OG        182.2400  111.0200   99.5900 O.3       1 SER1        0.0000 
      5 OG        183.2100  111.4800   98.5400 O.3       1 SER1        0.0000 
      6 OG        183.7300  108.9000  102.2000 O.3       1 SER1        0.0000 
      7 OG        185.3800  112.0900  102.9800 O.3       1 SER1        0.0000 
      8 OG        185.1600  112.3900  105.0700 O.3       1 SER1        0.0000 
      9 OG        186.1400  112.8600  104.0300 O.3       1 SER1        0.0000 
     10 N         181.5400  104.6500   98.2800 N.am      2 ALA2        0.0000 
     11 N         180.4800  106.1600  100.1100 N.am      2 ALA2        0.0000 
     12 N         180.6000  107.8300   98.8000 N.am      2 ALA2        0.0000 
     13 N         181.4500  106.6200   99.0600 N.am      2 ALA2        0.0000 
     14 N         181.5700  108.2900   97.7600 N.am      2 ALA2        0.0000 
     15 O         181.7600  117.2200  104.0300 O.2       2 ALA2        0.0000 
     16 O         182.7300  117.6900  102.9900 O.2       2 ALA2        0.0000 
     17 O         183.7100  118.1500  101.9400 O.2       2 ALA2        0.0000 
     18 O         183.4900  118.4500  104.0300 O.2       2 ALA2        0.0000 
     19 OD1       184.0700  110.2700   98.8000 O.co2     3 ASP3        0.0000 
     20 OD1       183.9800  112.2400   99.5900 O.co2     3 ASP3        0.0000 
     21 OD1       184.8300  111.0300   99.8500 O.co2     3 ASP3        0.0000 
     22 OD1       184.9500  112.7000   98.5400 O.co2     3 ASP3        0.0000 
     23 OD1       185.5900  111.7900  100.8900 O.co2     3 ASP3        0.0000 
     24 OD1       187.3200  113.0200  100.8900 O.co2     3 ASP3        0.0000 
     25 NZ        183.1200  113.4500   99.3300 N.4       4 LYS4        0.0000 
     26 NZ        183.0300  115.4200  100.1100 N.4       4 LYS4        0.0000 
     27 NZ        183.8900  114.2100  100.3700 N.4       4 LYS4        0.0000 
     28 NZ        184.7400  113.0000  100.6300 N.4       4 LYS4        0.0000 
     29 NZ        185.7100  113.4600   99.5900 N.4       4 LYS4        0.0000 
     30 NZ        186.4700  114.2200  100.6300 N.4       4 LYS4        0.0000 
     31 CZ        181.3600  108.5900   99.8500 C.ar      5 PHE5        0.0000 
     32 CZ        182.0000  107.6800  102.2000 C.ar      5 PHE5        0.0000 
     33 CZ        182.1200  109.3500  100.8900 C.ar      5 PHE5        0.0000 
     34 CZ        182.9700  108.1400  101.1500 C.ar      5 PHE5        0.0000 
     35 CZ        183.0900  109.8100   99.8500 C.ar      5 PHE5        0.0000 
     36 CZ        182.1500  112.9900  100.3700 C.ar      5 PHE5        0.0000 
     37 CZ        183.0000  111.7800  100.6300 C.ar      5 PHE5        0.0000 
     38 CZ        183.8500  110.5700  100.8900 C.ar      5 PHE5        0.0000 
     39 CZ        182.9100  113.7500  101.4200 C.ar      5 PHE5        0.0000 
     40 CZ        183.7600  112.5400  101.6800 C.ar      5 PHE5        0.0000 
     41 CZ        184.6100  111.3300  101.9400 C.ar      5 PHE5        0.0000 
     42 CZ        183.6700  114.5100  102.4600 C.ar      5 PHE5        0.0000 
     43 CZ        184.5300  113.3000  102.7200 C.ar      5 PHE5        0.0000 
     44 CZ        182.6100  116.0200  104.2900 C.ar      5 PHE5        0.0000 
     45 CZ        183.4600  114.8100  104.5500 C.ar      5 PHE5        0.0000 
     46 CZ        184.3100  113.6000  104.8100 C.ar      5 PHE5        0.0000 
     47 CZ        185.2900  114.0600  103.7700 C.ar      5 PHE5        0.0000 
     48 CA        181.3300  104.9500  100.3700 C.3       6 GLY6        0.0000 
     49 CA        182.1800  103.7400  100.6300 C.3       6 GLY6        0.0000 
     50 CA        182.0900  105.7100  101.4100 C.3       6 GLY6        0.0000 
     51 CA        182.8500  106.4700  102.4600 C.3       6 GLY6        0.0000 
     52 CA        182.0600  114.9600  101.1600 C.3       6 GLY6        0.0000 
     53 CA        181.9700  116.9200  101.9400 C.3       6 GLY6        0.0000 
     54 CA        182.8200  115.7200  102.2000 C.3       6 GLY6        0.0000 
     55 CA        182.9500  117.3900  100.9000 C.3       6 GLY6        0.0000 
     56 CA        183.8000  116.1800  101.1600 C.3       6 GLY6        0.0000 
     57 CA        184.6500  114.9700  101.4200 C.3       6 GLY6        0.0000 
     58 CA        185.6200  115.4300  100.3700 C.3       6 GLY6        0.0000 
     59 CA        184.5600  116.9400  102.2000 C.3       6 GLY6        0.0000 
     60 CA        185.4100  115.7300  102.4600 C.3       6 GLY6        0.0000 
     61 CA        186.2600  114.5200  102.7200 C.3       6 GLY6        0.0000 
     62 CA        187.1100  113.3200  102.9800 C.3       6 GLY6        0.0000 
     63 CA        187.9600  112.1100  103.2400 C.3       6 GLY6        0.0000 
     64 CA        185.3200  117.7000  103.2500 C.3       6 GLY6        0.0000 
     65 CA        186.1700  116.4900  103.5100 C.3       6 GLY6        0.0000 
     66 CA        187.0200  115.2800  103.7700 C.3       6 GLY6        0.0000 
     67 CA        187.8700  114.0800  104.0300 C.3       6 GLY6        0.0000 
     68 CA        188.7200  112.8700  104.2900 C.3       6 GLY6        0.0000 
     69 DU        182.3000  105.4100   99.3200 H         7 CUB7        0.0000 
     70 DU        181.2400  106.9200  101.1500 H         7 CUB7        0.0000 
     71 DU        182.2100  107.3800  100.1100 H         7 CUB7        0.0000 
     72 DU        183.0600  106.1700  100.3700 H         7 CUB7        0.0000 
     73 DU        183.1800  107.8400   99.0600 H         7 CUB7        0.0000 
     74 DU        183.9400  108.6000  100.1100 H         7 CUB7        0.0000 
     75 DU        185.5000  113.7600  101.6800 H         7 CUB7        0.0000 
     76 DU        186.3500  112.5500  101.9400 H         7 CUB7        0.0000 
     77 DU        187.2000  111.3500  102.2000 H         7 CUB7        0.0000 
     78 DU        183.5800  116.4800  103.2500 H         7 CUB7        0.0000 
     79 DU        184.4400  115.2700  103.5100 H         7 CUB7        0.0000 
     80 DU        184.3500  117.2400  104.2900 H         7 CUB7        0.0000 
     81 DU        185.2000  116.0300  104.5500 H         7 CUB7        0.0000 
     82 DU        186.0500  114.8200  104.8100 H         7 CUB7        0.0000 
@<TRIPOS>BOND
@<TRIPOS>SUBSTRUCTURE
     1 SER1        1 GROUP   
     2 ALA2       10 GROUP   
     3 ASP3       19 GROUP   
     4 LYS4       25 GROUP   
     5 PHE5       31 GROUP   
     6 GLY6       48 GROUP   
     7 CUB7       69 GROUP   
@<TRIPOS>SET

