#    Name: 6pur_7_APR
#    Modification time : Fri May 22 19:31:46 2020

@<TRIPOS>MOLECULE
6pur_7_APR
   36    39     1     0     0
SMALL
NO_CHARGES


@<TRIPOS>ATOM
      1 N1        117.2870  193.4710  125.5600 N.ar      1 APR1601     0.0000 
      2 C2        116.6390  192.3350  125.8490 C.ar      1 APR1601     0.0000 
      3 N3        116.3640  191.3840  124.9460 N.ar      1 APR1601     0.0000 
      4 C4        116.7410  191.5270  123.6640 C.ar      1 APR1601     0.0000 
      5 C5        117.4520  192.7360  123.2680 C.ar      1 APR1601     0.0000 
      6 C6        117.7160  193.7350  124.3150 C.ar      1 APR1601     0.0000 
      7 N6        118.3710  194.8800  124.0310 N.pl3     1 APR1601     0.0000 
      8 N7        117.7060  192.6220  121.9570 N.2       1 APR1601     0.0000 
      9 C8        117.2120  191.4310  121.5500 C.2       1 APR1601     0.0000 
     10 N9        116.6240  190.7960  122.5690 N.pl3     1 APR1601     0.0000 
     11 C1'       115.9730  189.4860  122.4830 C.3       1 APR1601     0.0000 
     12 C2'       115.1980  189.4380  121.1880 C.3       1 APR1601     0.0000 
     13 O2'       113.8070  189.5610  121.4620 O.3       1 APR1601     0.0000 
     14 C3'       115.4740  188.0740  120.6140 C.3       1 APR1601     0.0000 
     15 O3'       114.2790  187.3020  120.6950 O.3       1 APR1601     0.0000 
     16 O4'       116.9610  188.4700  122.4030 O.3       1 APR1601     0.0000 
     17 C4'       116.5190  187.4550  121.5120 C.3       1 APR1601     0.0000 
     18 C5'       117.7070  187.0000  120.7020 C.3       1 APR1601     0.0000 
     19 O5'       118.8240  187.0920  121.5700 O.3       1 APR1601     0.0000 
     20 PA        120.2640  186.6460  121.0470 P.3       1 APR1601     0.0000 
     21 O1A       120.8200  185.5870  121.9470 O.co2     1 APR1601     0.0000 
     22 O2A       120.2010  186.4150  119.5650 O.co2     1 APR1601     0.0000 
     23 O3A       121.0360  188.0010  121.3610 O.3       1 APR1601     0.0000 
     24 PB        121.1820  189.0580  120.1780 P.3       1 APR1601     0.0000 
     25 O1B       119.8320  189.2370  119.5340 O.co2     1 APR1601     0.0000 
     26 O2B       122.3950  188.6660  119.3780 O.co2     1 APR1601     0.0000 
     27 O5D       121.4730  190.3590  121.0590 O.3       1 APR1601     0.0000 
     28 C5D       122.7910  190.8100  121.3320 C.3       1 APR1601     0.0000 
     29 O4D       123.7040  192.0990  123.1940 O.3       1 APR1601     0.0000 
     30 O1D       125.0580  193.9210  123.7630 O.3       1 APR1601     0.0000 
     31 C1D       123.7160  193.4650  123.6030 C.3       1 APR1601     0.0000 
     32 O2D       122.0990  195.1650  123.0600 O.3       1 APR1601     0.0000 
     33 C2D       123.0450  194.2550  122.4970 C.3       1 APR1601     0.0000 
     34 O3D       120.9260  193.4980  121.5960 O.3       1 APR1601     0.0000 
     35 C3D       122.3270  193.2300  121.6510 C.3       1 APR1601     0.0000 
     36 C4D       122.5760  191.9100  122.3480 C.3       1 APR1601     0.0000 
@<TRIPOS>BOND
     1    1    2 ar   
     2    1    6 ar   
     3    2    3 ar   
     4    3    4 ar   
     5    4    5 ar   
     6    4   10 1    
     7    5    6 ar   
     8    5    8 1    
     9    6    7 1    
    10    8    9 2    
    11    9   10 1    
    12   10   11 1    
    13   11   12 1    
    14   11   16 1    
    15   12   13 1    
    16   12   14 1    
    17   14   15 1    
    18   14   17 1    
    19   16   17 1    
    20   17   18 1    
    21   18   19 1    
    22   19   20 1    
    23   20   21 ar   
    24   20   22 ar   
    25   20   23 1    
    26   23   24 1    
    27   24   25 ar   
    28   24   26 ar   
    29   24   27 1    
    30   27   28 1    
    31   28   36 1    
    32   29   31 1    
    33   29   36 1    
    34   30   31 1    
    35   31   33 1    
    36   32   33 1    
    37   33   35 1    
    38   34   35 1    
    39   35   36 1    
@<TRIPOS>SUBSTRUCTURE
     1 APR1601     1 GROUP   
@<TRIPOS>SET

