#    Name: 6pur_5_APR
#    Modification time : Fri May 22 19:31:18 2020

@<TRIPOS>MOLECULE
6pur_5_APR
   36    39     1     0     0
SMALL
NO_CHARGES


@<TRIPOS>ATOM
      1 N1        193.4710  204.9240  125.5770 N.ar      1 APR1601     0.0000 
      2 C2        192.3360  205.5720  125.8660 C.ar      1 APR1601     0.0000 
      3 N3        191.3840  205.8480  124.9630 N.ar      1 APR1601     0.0000 
      4 C4        191.5270  205.4710  123.6810 C.ar      1 APR1601     0.0000 
      5 C5        192.7360  204.7600  123.2850 C.ar      1 APR1601     0.0000 
      6 C6        193.7350  204.4960  124.3320 C.ar      1 APR1601     0.0000 
      7 N6        194.8800  203.8410  124.0470 N.pl3     1 APR1601     0.0000 
      8 N7        192.6220  204.5060  121.9740 N.2       1 APR1601     0.0000 
      9 C8        191.4310  205.0010  121.5670 C.2       1 APR1601     0.0000 
     10 N9        190.7960  205.5880  122.5860 N.pl3     1 APR1601     0.0000 
     11 C1'       189.4860  206.2390  122.5020 C.3       1 APR1601     0.0000 
     12 C2'       189.4380  207.0140  121.2070 C.3       1 APR1601     0.0000 
     13 O2'       189.5610  208.4050  121.4800 O.3       1 APR1601     0.0000 
     14 C3'       188.0740  206.7380  120.6330 C.3       1 APR1601     0.0000 
     15 O3'       187.3020  207.9330  120.7140 O.3       1 APR1601     0.0000 
     16 O4'       188.4700  205.2510  122.4210 O.3       1 APR1601     0.0000 
     17 C4'       187.4550  205.6930  121.5310 C.3       1 APR1601     0.0000 
     18 C5'       187.0000  204.5050  120.7200 C.3       1 APR1601     0.0000 
     19 O5'       187.0920  203.3880  121.5880 O.3       1 APR1601     0.0000 
     20 PA        186.6460  201.9480  121.0640 P.3       1 APR1601     0.0000 
     21 O1A       185.5870  201.3920  121.9640 O.co2     1 APR1601     0.0000 
     22 O2A       186.4150  202.0120  119.5830 O.co2     1 APR1601     0.0000 
     23 O3A       188.0010  201.1760  121.3780 O.3       1 APR1601     0.0000 
     24 PB        189.0580  201.0300  120.1950 P.3       1 APR1601     0.0000 
     25 O1B       189.2370  202.3810  119.5510 O.co2     1 APR1601     0.0000 
     26 O2B       188.6650  199.8180  119.3950 O.co2     1 APR1601     0.0000 
     27 O5D       190.3590  200.7390  121.0760 O.3       1 APR1601     0.0000 
     28 C5D       190.8110  199.4220  121.3480 C.3       1 APR1601     0.0000 
     29 O4D       192.1000  198.5080  123.2100 O.3       1 APR1601     0.0000 
     30 O1D       193.9220  197.1540  123.7780 O.3       1 APR1601     0.0000 
     31 C1D       193.4660  198.4960  123.6190 C.3       1 APR1601     0.0000 
     32 O2D       195.1660  200.1130  123.0750 O.3       1 APR1601     0.0000 
     33 C2D       194.2560  199.1670  122.5120 C.3       1 APR1601     0.0000 
     34 O3D       193.4980  201.2870  121.6120 O.3       1 APR1601     0.0000 
     35 C3D       193.2300  199.8860  121.6660 C.3       1 APR1601     0.0000 
     36 C4D       191.9110  199.6360  122.3640 C.3       1 APR1601     0.0000 
@<TRIPOS>BOND
     1    1    2 ar   
     2    1    6 ar   
     3    2    3 ar   
     4    3    4 ar   
     5    4    5 ar   
     6    4   10 1    
     7    5    6 ar   
     8    5    8 1    
     9    6    7 1    
    10    8    9 2    
    11    9   10 1    
    12   10   11 1    
    13   11   12 1    
    14   11   16 1    
    15   12   13 1    
    16   12   14 1    
    17   14   15 1    
    18   14   17 1    
    19   16   17 1    
    20   17   18 1    
    21   18   19 1    
    22   19   20 1    
    23   20   21 ar   
    24   20   22 ar   
    25   20   23 1    
    26   23   24 1    
    27   24   25 ar   
    28   24   26 ar   
    29   24   27 1    
    30   27   28 1    
    31   28   36 1    
    32   29   31 1    
    33   29   36 1    
    34   30   31 1    
    35   31   33 1    
    36   32   33 1    
    37   33   35 1    
    38   34   35 1    
    39   35   36 1    
@<TRIPOS>SUBSTRUCTURE
     1 APR1601     1 GROUP   
@<TRIPOS>SET

