#    Name: 6pur_6_APR_CAVITY_N1_8
#    Modification time : Fri May 22 19:31:34 2020

@<TRIPOS>MOLECULE
6pur_6_APR_CAVITY_N1_8
   58     0     5     0     0
SMALL
NO_CHARGES


@<TRIPOS>ATOM
      1 OG        213.6900  184.2300  103.0200 O.3       1 SER1        0.0000 
      2 OG        214.5500  183.0200  103.2800 O.3       1 SER1        0.0000 
      3 OG        215.4000  181.8100  103.5400 O.3       1 SER1        0.0000 
      4 N         214.0900  179.9900   99.3600 N.am      2 ALA2        0.0000 
      5 N         215.0600  180.4500   98.3200 N.am      2 ALA2        0.0000 
      6 N         214.8500  180.7500  100.4100 N.am      2 ALA2        0.0000 
      7 N         215.7000  179.5400  100.6700 N.am      2 ALA2        0.0000 
      8 N         216.5500  178.3400  100.9300 N.am      2 ALA2        0.0000 
      9 N         215.8200  181.2100   99.3600 N.am      2 ALA2        0.0000 
     10 N         216.6700  180.0000   99.6200 N.am      2 ALA2        0.0000 
     11 N         217.5200  178.8000   99.8800 N.am      2 ALA2        0.0000 
     12 N         215.9400  182.8800   98.0600 N.am      2 ALA2        0.0000 
     13 N         216.7900  181.6700   98.3200 N.am      2 ALA2        0.0000 
     14 N         217.6400  180.4700   98.5800 N.am      2 ALA2        0.0000 
     15 N         219.3500  178.0500   99.1000 N.am      2 ALA2        0.0000 
     16 N         219.2600  180.0200   99.8800 N.am      2 ALA2        0.0000 
     17 N         220.1100  178.8100  100.1400 N.am      2 ALA2        0.0000 
     18 N         220.2300  180.4800   98.8400 N.am      2 ALA2        0.0000 
     19 N         220.8700  179.5700  101.1900 N.am      2 ALA2        0.0000 
     20 N         220.9900  181.2400   99.8800 N.am      2 ALA2        0.0000 
     21 N         221.8400  180.0300  100.1400 N.am      2 ALA2        0.0000 
     22 N         221.9600  181.7000   98.8400 N.am      2 ALA2        0.0000 
     23 CZ        212.2600  180.7400  100.1500 C.ar      3 PHE5        0.0000 
     24 CZ        213.2400  181.2000   99.1000 C.ar      3 PHE5        0.0000 
     25 CZ        212.1700  182.7100  100.9300 C.ar      3 PHE5        0.0000 
     26 CZ        213.0200  181.5000  101.1900 C.ar      3 PHE5        0.0000 
     27 CZ        212.9300  183.4700  101.9800 C.ar      3 PHE5        0.0000 
     28 CZ        213.7800  182.2600  102.2300 C.ar      3 PHE5        0.0000 
     29 CA        213.8700  180.2900  101.4500 C.3       4 GLY6        0.0000 
     30 CA        218.3700  177.5900  100.1400 C.3       4 GLY6        0.0000 
     31 CA        218.5000  179.2600   98.8400 C.3       4 GLY6        0.0000 
     32 CA        214.6400  181.0500  102.4900 C.3       4 GLY6        0.0000 
     33 CA        215.4900  179.8400  102.7500 C.3       4 GLY6        0.0000 
     34 CA        215.6100  181.5100  101.4500 C.3       4 GLY6        0.0000 
     35 CA        216.4600  180.3000  101.7100 C.3       4 GLY6        0.0000 
     36 CA        216.5800  181.9700  100.4100 C.3       4 GLY6        0.0000 
     37 CA        217.4300  180.7700  100.6700 C.3       4 GLY6        0.0000 
     38 CA        218.2800  179.5600  100.9300 C.3       4 GLY6        0.0000 
     39 CA        219.1300  178.3500  101.1900 C.3       4 GLY6        0.0000 
     40 CA        215.5200  183.4800  102.2400 C.3       4 GLY6        0.0000 
     41 CA        216.3700  182.2700  102.4900 C.3       4 GLY6        0.0000 
     42 CA        217.3400  182.7300  101.4500 C.3       4 GLY6        0.0000 
     43 CA        219.0400  180.3200  101.9700 C.3       4 GLY6        0.0000 
     44 CA        219.9000  179.1100  102.2300 C.3       4 GLY6        0.0000 
     45 CA        219.1700  181.9900  100.6700 C.3       4 GLY6        0.0000 
     46 CA        220.0200  180.7800  100.9300 C.3       4 GLY6        0.0000 
     47 CA        220.7800  181.5400  101.9700 C.3       4 GLY6        0.0000 
     48 CA        221.6300  180.3300  102.2300 C.3       4 GLY6        0.0000 
     49 CA        221.7500  182.0000  100.9300 C.3       4 GLY6        0.0000 
     50 CA        222.6000  180.7900  101.1900 C.3       4 GLY6        0.0000 
     51 CA        223.3600  181.5600  102.2300 C.3       4 GLY6        0.0000 
     52 DU        214.0000  181.9600  100.1500 H         5 CUB7        0.0000 
     53 DU        214.9700  182.4200   99.1000 H         5 CUB7        0.0000 
     54 DU        214.7600  182.7200  101.1900 H         5 CUB7        0.0000 
     55 DU        215.7300  183.1800  100.1500 H         5 CUB7        0.0000 
     56 DU        217.5500  182.4300   99.3600 H         5 CUB7        0.0000 
     57 DU        218.4100  181.2300   99.6200 H         5 CUB7        0.0000 
     58 DU        223.5800  181.2500  100.1400 H         5 CUB7        0.0000 
@<TRIPOS>BOND
@<TRIPOS>SUBSTRUCTURE
     1 SER1        1 GROUP   
     2 ALA2        4 GROUP   
     3 PHE5       23 GROUP   
     4 GLY6       29 GROUP   
     5 CUB7       52 GROUP   
@<TRIPOS>SET

