#    Name: 6pur_1_APR
#    Modification time : Fri May 22 19:30:33 2020

@<TRIPOS>MOLECULE
6pur_1_APR
   36    39     1     0     0
SMALL
NO_CHARGES


@<TRIPOS>ATOM
      1 N1        128.7390  117.2880  125.5650 N.ar      1 APR1601     0.0000 
      2 C2        129.8750  116.6400  125.8540 C.ar      1 APR1601     0.0000 
      3 N3        130.8260  116.3650  124.9510 N.ar      1 APR1601     0.0000 
      4 C4        130.6830  116.7420  123.6690 C.ar      1 APR1601     0.0000 
      5 C5        129.4740  117.4530  123.2730 C.ar      1 APR1601     0.0000 
      6 C6        128.4750  117.7170  124.3200 C.ar      1 APR1601     0.0000 
      7 N6        127.3300  118.3720  124.0360 N.pl3     1 APR1601     0.0000 
      8 N7        129.5880  117.7070  121.9620 N.2       1 APR1601     0.0000 
      9 C8        130.7790  117.2130  121.5550 C.2       1 APR1601     0.0000 
     10 N9        131.4140  116.6250  122.5740 N.pl3     1 APR1601     0.0000 
     11 C1'       132.7240  115.9750  122.4890 C.3       1 APR1601     0.0000 
     12 C2'       132.7720  115.2000  121.1940 C.3       1 APR1601     0.0000 
     13 O2'       132.6490  113.8090  121.4670 O.3       1 APR1601     0.0000 
     14 C3'       134.1360  115.4760  120.6200 C.3       1 APR1601     0.0000 
     15 O3'       134.9080  114.2810  120.7010 O.3       1 APR1601     0.0000 
     16 O4'       133.7400  116.9630  122.4090 O.3       1 APR1601     0.0000 
     17 C4'       134.7550  116.5210  121.5180 C.3       1 APR1601     0.0000 
     18 C5'       135.2100  117.7090  120.7080 C.3       1 APR1601     0.0000 
     19 O5'       135.1180  118.8260  121.5760 O.3       1 APR1601     0.0000 
     20 PA        135.5640  120.2660  121.0530 P.3       1 APR1601     0.0000 
     21 O1A       136.6230  120.8220  121.9530 O.co2     1 APR1601     0.0000 
     22 O2A       135.7950  120.2030  119.5710 O.co2     1 APR1601     0.0000 
     23 O3A       134.2090  121.0380  121.3670 O.3       1 APR1601     0.0000 
     24 PB        133.1520  121.1840  120.1840 P.3       1 APR1601     0.0000 
     25 O1B       132.9730  119.8340  119.5400 O.co2     1 APR1601     0.0000 
     26 O2B       133.5440  122.3970  119.3840 O.co2     1 APR1601     0.0000 
     27 O5D       131.8510  121.4750  121.0650 O.3       1 APR1601     0.0000 
     28 C5D       131.3990  122.7920  121.3380 C.3       1 APR1601     0.0000 
     29 O4D       130.1100  123.7050  123.2000 O.3       1 APR1601     0.0000 
     30 O1D       128.2880  125.0590  123.7690 O.3       1 APR1601     0.0000 
     31 C1D       128.7440  123.7170  123.6090 C.3       1 APR1601     0.0000 
     32 O2D       127.0440  122.1000  123.0650 O.3       1 APR1601     0.0000 
     33 C2D       127.9540  123.0460  122.5020 C.3       1 APR1601     0.0000 
     34 O3D       128.7120  120.9270  121.6010 O.3       1 APR1601     0.0000 
     35 C3D       128.9800  122.3280  121.6560 C.3       1 APR1601     0.0000 
     36 C4D       130.2990  122.5770  122.3540 C.3       1 APR1601     0.0000 
@<TRIPOS>BOND
     1    1    2 ar   
     2    1    6 ar   
     3    2    3 ar   
     4    3    4 ar   
     5    4    5 ar   
     6    4   10 1    
     7    5    6 ar   
     8    5    8 1    
     9    6    7 1    
    10    8    9 2    
    11    9   10 1    
    12   10   11 1    
    13   11   12 1    
    14   11   16 1    
    15   12   13 1    
    16   12   14 1    
    17   14   15 1    
    18   14   17 1    
    19   16   17 1    
    20   17   18 1    
    21   18   19 1    
    22   19   20 1    
    23   20   21 ar   
    24   20   22 ar   
    25   20   23 1    
    26   23   24 1    
    27   24   25 ar   
    28   24   26 ar   
    29   24   27 1    
    30   27   28 1    
    31   28   36 1    
    32   29   31 1    
    33   29   36 1    
    34   30   31 1    
    35   31   33 1    
    36   32   33 1    
    37   33   35 1    
    38   34   35 1    
    39   35   36 1    
@<TRIPOS>SUBSTRUCTURE
     1 APR1601     1 GROUP   
@<TRIPOS>SET

