#    Name: 6mxd_1_IMP
#    Modification time : Fri May 22 19:29:57 2020

@<TRIPOS>MOLECULE
6mxd_1_IMP
   23    25     1     0     0
SMALL
NO_CHARGES


@<TRIPOS>ATOM
      1 P          55.7690    4.2510   -6.7890 P.3       1 IMP301      0.0000 
      2 O1P        56.4810    5.4120   -7.4370 O.co2     1 IMP301      0.0000 
      3 O2P        56.1170    2.8510   -7.2370 O.co2     1 IMP301      0.0000 
      4 O3P        55.9720    4.3360   -5.2940 O.co2     1 IMP301      0.0000 
      5 O5'        54.2190    4.4610   -7.0890 O.3       1 IMP301      0.0000 
      6 C5'        53.5650    5.6610   -6.7070 C.3       1 IMP301      0.0000 
      7 C4'        52.2400    5.8200   -7.4080 C.3       1 IMP301      0.0000 
      8 O4'        52.3430    6.8490   -8.4240 O.3       1 IMP301      0.0000 
      9 C3'        51.7340    4.6030   -8.1660 C.3       1 IMP301      0.0000 
     10 O3'        51.1100    3.6490   -7.3230 O.3       1 IMP301      0.0000 
     11 C2'        50.7910    5.2180   -9.1930 C.3       1 IMP301      0.0000 
     12 O2'        49.5360    5.5240   -8.6040 O.3       1 IMP301      0.0000 
     13 C1'        51.5050    6.5330   -9.5160 C.3       1 IMP301      0.0000 
     14 N9         52.3230    6.4400  -10.7400 N.pl3     1 IMP301      0.0000 
     15 C8         53.6070    5.9740  -10.8630 C.2       1 IMP301      0.0000 
     16 N7         53.9750    6.0720  -12.1630 N.2       1 IMP301      0.0000 
     17 C5         52.9470    6.5960  -12.8690 C.2       1 IMP301      0.0000 
     18 C6         52.7910    6.9050  -14.2150 C.2       1 IMP301      0.0000 
     19 O6         53.7760    6.9450  -14.9500 O.2       1 IMP301      0.0000 
     20 N1         51.5980    7.4420  -14.6520 N.am      1 IMP301      0.0000 
     21 C2         50.5740    7.6700  -13.7560 C.2       1 IMP301      0.0000 
     22 N3         50.7390    7.3610  -12.4220 N.2       1 IMP301      0.0000 
     23 C4         51.9060    6.8330  -11.9850 C.2       1 IMP301      0.0000 
@<TRIPOS>BOND
     1    1    2 ar   
     2    1    3 ar   
     3    1    4 ar   
     4    1    5 1    
     5    5    6 1    
     6    6    7 1    
     7    7    8 1    
     8    7    9 1    
     9    8   13 1    
    10    9   10 1    
    11    9   11 1    
    12   11   12 1    
    13   11   13 1    
    14   13   14 1    
    15   14   15 1    
    16   14   23 1    
    17   15   16 2    
    18   16   17 1    
    19   17   18 1    
    20   17   23 2    
    21   18   19 2    
    22   18   20 am   
    23   20   21 1    
    24   21   22 2    
    25   22   23 1    
@<TRIPOS>SUBSTRUCTURE
     1 IMP301      1 GROUP   
@<TRIPOS>SET

