#    Name: 6mxd_2_IMP
#    Modification time : Fri May 22 19:30:01 2020

@<TRIPOS>MOLECULE
6mxd_2_IMP
   23    25     1     0     0
SMALL
NO_CHARGES


@<TRIPOS>ATOM
      1 P          19.1700   -5.8300   -4.5980 P.3       1 IMP3301     0.0000 
      2 O1P        18.9270   -4.8770   -5.7440 O.co2     1 IMP3301     0.0000 
      3 O2P        18.6850   -7.2540   -4.7310 O.co2     1 IMP3301     0.0000 
      4 O3P        18.5470   -5.2390   -3.3550 O.co2     1 IMP3301     0.0000 
      5 O5'        20.7460   -5.9030   -4.3810 O.3       1 IMP3301     0.0000 
      6 C5'        21.3390   -7.0040   -3.7090 C.3       1 IMP3301     0.0000 
      7 C4'        22.7700   -7.1990   -4.1390 C.3       1 IMP3301     0.0000 
      8 O4'        23.0650   -8.6210   -4.2200 O.3       1 IMP3301     0.0000 
      9 C3'        23.1290   -6.6510   -5.5170 C.3       1 IMP3301     0.0000 
     10 O3'        23.4800   -5.2780   -5.4900 O.3       1 IMP3301     0.0000 
     11 C2'        24.2610   -7.5630   -5.9650 C.3       1 IMP3301     0.0000 
     12 O2'        25.4830   -7.1920   -5.3440 O.3       1 IMP3301     0.0000 
     13 C1'        23.8110   -8.8990   -5.3830 C.3       1 IMP3301     0.0000 
     14 N9         22.9580   -9.6580   -6.3200 N.pl3     1 IMP3301     0.0000 
     15 C8         21.6030   -9.5380   -6.4960 C.2       1 IMP3301     0.0000 
     16 N7         21.2100  -10.4170   -7.4470 N.2       1 IMP3301     0.0000 
     17 C5         22.2930  -11.1000   -7.8780 C.2       1 IMP3301     0.0000 
     18 C6         22.4540  -12.1040   -8.8270 C.2       1 IMP3301     0.0000 
     19 O6         21.4680  -12.6490   -9.3190 O.2       1 IMP3301     0.0000 
     20 N1         23.7100  -12.6240   -9.0600 N.am      1 IMP3301     0.0000 
     21 C2         24.7950  -12.1470   -8.3540 C.2       1 IMP3301     0.0000 
     22 N3         24.6270  -11.1510   -7.4130 N.2       1 IMP3301     0.0000 
     23 C4         23.3970  -10.6350   -7.1780 C.2       1 IMP3301     0.0000 
@<TRIPOS>BOND
     1    1    2 ar   
     2    1    3 ar   
     3    1    4 ar   
     4    1    5 1    
     5    5    6 1    
     6    6    7 1    
     7    7    8 1    
     8    7    9 1    
     9    8   13 1    
    10    9   10 1    
    11    9   11 1    
    12   11   12 1    
    13   11   13 1    
    14   13   14 1    
    15   14   15 1    
    16   14   23 1    
    17   15   16 2    
    18   16   17 1    
    19   17   18 1    
    20   17   23 2    
    21   18   19 2    
    22   18   20 am   
    23   20   21 1    
    24   21   22 2    
    25   22   23 1    
@<TRIPOS>SUBSTRUCTURE
     1 IMP3301     1 GROUP   
@<TRIPOS>SET

