#    Name: 6mxd_1_IMP_CAVITY_N1_6
#    Modification time : Fri May 22 19:29:58 2020

@<TRIPOS>MOLECULE
6mxd_1_IMP_CAVITY_N1_6
  100     0     7     0     0
SMALL
NO_CHARGES


@<TRIPOS>ATOM
      1 OG         50.0400    7.5000  -12.7500 O.3       1 SER1        0.0000 
      2 OG         48.7700    7.9700  -12.0900 O.3       1 SER1        0.0000 
      3 OG         49.5700    8.6000  -11.0000 O.3       1 SER1        0.0000 
      4 OG         50.3800    9.2400   -9.9000 O.3       1 SER1        0.0000 
      5 OG         50.8500    3.5000   -4.8600 O.3       1 SER1        0.0000 
      6 OG         50.9200    4.7800   -5.6500 O.3       1 SER1        0.0000 
      7 OG         49.5200    2.7000   -3.4200 O.3       1 SER1        0.0000 
      8 OG         49.5900    3.9700   -4.2100 O.3       1 SER1        0.0000 
      9 OG         55.5800    5.2800   -7.3100 O.3       1 SER1        0.0000 
     10 OG         55.6500    6.5600   -8.1000 O.3       1 SER1        0.0000 
     11 OG         51.7200    5.4200   -4.5600 O.3       1 SER1        0.0000 
     12 OG         56.3800    5.9200   -6.2100 O.3       1 SER1        0.0000 
     13 OG         57.1900    6.5500   -5.1200 O.3       1 SER1        0.0000 
     14 N          51.3000    7.0300  -13.4000 N.am      2 ALA2        0.0000 
     15 N          53.9800    4.0100   -9.5000 N.am      2 ALA2        0.0000 
     16 N          52.6500    3.2000   -8.0600 N.am      2 ALA2        0.0000 
     17 N          47.5200    3.8100   -4.6500 N.am      2 ALA2        0.0000 
     18 N          48.3200    4.4400   -3.5500 N.am      2 ALA2        0.0000 
     19 N          48.3900    5.7200   -4.3400 N.am      2 ALA2        0.0000 
     20 N          47.1200    6.1900   -3.6900 N.am      2 ALA2        0.0000 
     21 N          50.3900    4.6100   -3.1100 N.am      2 ALA2        0.0000 
     22 N          50.4500    5.8800   -3.9000 N.am      2 ALA2        0.0000 
     23 N          49.1900    6.3500   -3.2500 N.am      2 ALA2        0.0000 
     24 N          52.5200    6.0500   -3.4600 N.am      2 ALA2        0.0000 
     25 O          55.7900    4.4800   -2.8800 O.2       2 ALA2        0.0000 
     26 OD1        53.3700    7.1900  -12.9600 O.co2     3 ASP3        0.0000 
     27 OD1        48.0500    3.9700   -7.1900 O.co2     3 ASP3        0.0000 
     28 OD1        54.1700    7.8300  -11.8600 O.co2     3 ASP3        0.0000 
     29 OD1        48.8500    4.6100   -6.0900 O.co2     3 ASP3        0.0000 
     30 OD1        48.9100    5.8900   -6.8800 O.co2     3 ASP3        0.0000 
     31 OD1        48.9800    7.1600   -7.6700 O.co2     3 ASP3        0.0000 
     32 OD1        47.5800    5.0800   -5.4400 O.co2     3 ASP3        0.0000 
     33 OD1        47.6500    6.3600   -6.2300 O.co2     3 ASP3        0.0000 
     34 OD1        47.7100    7.6300   -7.0200 O.co2     3 ASP3        0.0000 
     35 NZ         49.9100    4.9500  -11.1700 N.4       4 LYS4        0.0000 
     36 NZ         50.5800    3.0400   -8.5000 N.4       4 LYS4        0.0000 
     37 NZ         50.6400    4.3100   -9.2900 N.4       4 LYS4        0.0000 
     38 NZ         49.3100    3.5100   -7.8400 N.4       4 LYS4        0.0000 
     39 NZ         49.3800    4.7800   -8.6300 N.4       4 LYS4        0.0000 
     40 NZ         49.5100    7.3300  -10.2100 N.4       4 LYS4        0.0000 
     41 NZ         48.2400    7.8000   -9.5500 N.4       4 LYS4        0.0000 
     42 NZ         51.3800    3.6700   -7.4000 N.4       4 LYS4        0.0000 
     43 NZ         50.0500    2.8700   -5.9600 N.4       4 LYS4        0.0000 
     44 NZ         50.1100    4.1400   -6.7500 N.4       4 LYS4        0.0000 
     45 NZ         54.9100    7.1900   -9.9800 N.4       4 LYS4        0.0000 
     46 NZ         54.9700    8.4700  -10.7700 N.4       4 LYS4        0.0000 
     47 NZ         55.7100    7.8300   -8.8800 N.4       4 LYS4        0.0000 
     48 CZ         49.9700    6.2200  -11.9600 C.ar      5 PHE5        0.0000 
     49 CZ         52.1000    7.6600  -12.3000 C.ar      5 PHE5        0.0000 
     50 CZ         50.8400    8.1300  -11.6500 C.ar      5 PHE5        0.0000 
     51 CZ         52.9100    8.3000  -11.2100 C.ar      5 PHE5        0.0000 
     52 CZ         51.6400    8.7700  -10.5500 C.ar      5 PHE5        0.0000 
     53 CZ         55.0400    9.7400  -11.5600 C.ar      5 PHE5        0.0000 
     54 CA         52.5700    6.5600  -14.0500 C.3       6 GLY6        0.0000 
     55 CA         51.2400    5.7500  -12.6100 C.3       6 GLY6        0.0000 
     56 CA         48.7000    6.6900  -11.3000 C.3       6 GLY6        0.0000 
     57 CA         53.3000    5.9200  -12.1700 C.3       6 GLY6        0.0000 
     58 CA         51.9700    5.1200  -10.7300 C.3       6 GLY6        0.0000 
     59 CA         52.0400    6.3900  -11.5200 C.3       6 GLY6        0.0000 
     60 CA         50.7100    5.5800  -10.0700 C.3       6 GLY6        0.0000 
     61 CA         47.9800    2.7000   -6.4000 C.3       6 GLY6        0.0000 
     62 CA         54.0400    5.2800  -10.2900 C.3       6 GLY6        0.0000 
     63 CA         54.1100    6.5600  -11.0800 C.3       6 GLY6        0.0000 
     64 CA         52.7100    4.4800   -8.8400 C.3       6 GLY6        0.0000 
     65 CA         52.7800    5.7500   -9.6300 C.3       6 GLY6        0.0000 
     66 CA         48.7200    2.0600   -4.5200 C.3       6 GLY6        0.0000 
     67 CA         48.7800    3.3400   -5.3000 C.3       6 GLY6        0.0000 
     68 CA         54.7100    3.3700   -7.6100 C.3       6 GLY6        0.0000 
     69 CA         54.7800    4.6400   -8.4000 C.3       6 GLY6        0.0000 
     70 CA         54.8400    5.9200   -9.1900 C.3       6 GLY6        0.0000 
     71 CA         53.4500    3.8400   -6.9600 C.3       6 GLY6        0.0000 
     72 CA         52.1800    4.3100   -6.3100 C.3       6 GLY6        0.0000 
     73 CA         55.5200    4.0100   -6.5200 C.3       6 GLY6        0.0000 
     74 CA         54.2500    4.4800   -5.8600 C.3       6 GLY6        0.0000 
     75 CA         52.9900    4.9500   -5.2100 C.3       6 GLY6        0.0000 
     76 CA         56.3200    4.6400   -5.4200 C.3       6 GLY6        0.0000 
     77 CA         55.0500    5.1100   -4.7700 C.3       6 GLY6        0.0000 
     78 CA         53.7900    5.5800   -4.1100 C.3       6 GLY6        0.0000 
     79 CA         57.1200    5.2800   -4.3300 C.3       6 GLY6        0.0000 
     80 CA         55.8600    5.7500   -3.6700 C.3       6 GLY6        0.0000 
     81 DU         50.7700    6.8600  -10.8600 H         7 CUB7        0.0000 
     82 DU         49.4400    6.0500   -9.4200 H         7 CUB7        0.0000 
     83 DU         52.8400    7.0300  -10.4200 H         7 CUB7        0.0000 
     84 DU         51.4500    4.9500   -8.1900 H         7 CUB7        0.0000 
     85 DU         51.5100    6.2200   -8.9800 H         7 CUB7        0.0000 
     86 DU         51.5800    7.5000   -9.7700 H         7 CUB7        0.0000 
     87 DU         50.1800    5.4200   -7.5400 H         7 CUB7        0.0000 
     88 DU         50.2500    6.6900   -8.3200 H         7 CUB7        0.0000 
     89 DU         50.3100    7.9700   -9.1100 H         7 CUB7        0.0000 
     90 DU         53.5100    5.1100   -7.7500 H         7 CUB7        0.0000 
     91 DU         53.5800    6.3900   -8.5400 H         7 CUB7        0.0000 
     92 DU         53.6400    7.6600   -9.3300 H         7 CUB7        0.0000 
     93 DU         52.2500    5.5800   -7.0900 H         7 CUB7        0.0000 
     94 DU         49.6500    5.2500   -5.0000 H         7 CUB7        0.0000 
     95 DU         49.7200    6.5200   -5.7900 H         7 CUB7        0.0000 
     96 DU         48.4500    6.9900   -5.1300 H         7 CUB7        0.0000 
     97 DU         47.1900    7.4600   -4.4800 H         7 CUB7        0.0000 
     98 DU         54.3200    5.7500   -6.6500 H         7 CUB7        0.0000 
     99 DU         53.0500    6.2200   -6.0000 H         7 CUB7        0.0000 
    100 DU         55.1200    6.3900   -5.5600 H         7 CUB7        0.0000 
@<TRIPOS>BOND
@<TRIPOS>SUBSTRUCTURE
     1 SER1        1 GROUP   
     2 ALA2       14 GROUP   
     3 ASP3       26 GROUP   
     4 LYS4       35 GROUP   
     5 PHE5       48 GROUP   
     6 GLY6       54 GROUP   
     7 CUB7       81 GROUP   
@<TRIPOS>SET

