#    Name: 6mxd_3_IMP
#    Modification time : Fri May 22 19:30:05 2020

@<TRIPOS>MOLECULE
6mxd_3_IMP
   23    25     1     0     0
SMALL
NO_CHARGES


@<TRIPOS>ATOM
      1 P          48.8400   -7.6100  -54.3920 P.3       1 IMP301      0.0000 
      2 O1P        48.0250   -8.0860  -55.5710 O.co2     1 IMP301      0.0000 
      3 O2P        48.7750   -8.6720  -53.3200 O.co2     1 IMP301      0.0000 
      4 O3P        48.3920   -6.2090  -54.0480 O.co2     1 IMP301      0.0000 
      5 O5'        50.3630   -7.5010  -54.8400 O.3       1 IMP301      0.0000 
      6 C5'        50.8920   -6.2750  -55.3200 C.3       1 IMP301      0.0000 
      7 C4'        52.2910   -6.0520  -54.8090 C.3       1 IMP301      0.0000 
      8 O4'        52.4950   -4.6370  -54.5570 O.3       1 IMP301      0.0000 
      9 C3'        52.6260   -6.7290  -53.4870 C.3       1 IMP301      0.0000 
     10 O3'        53.0200   -8.0800  -53.6490 O.3       1 IMP301      0.0000 
     11 C2'        53.7180   -5.8350  -52.9170 C.3       1 IMP301      0.0000 
     12 O2'        54.9670   -6.1170  -53.5300 O.3       1 IMP301      0.0000 
     13 C1'        53.2520   -4.4580  -53.3820 C.3       1 IMP301      0.0000 
     14 N9         52.4070   -3.7770  -52.3880 N.pl3     1 IMP301      0.0000 
     15 C8         51.0600   -3.9320  -52.1840 C.2       1 IMP301      0.0000 
     16 N7         50.6950   -3.1040  -51.1820 N.2       1 IMP301      0.0000 
     17 C5         51.7870   -2.4230  -50.7570 C.2       1 IMP301      0.0000 
     18 C6         51.9530   -1.4560  -49.7880 C.2       1 IMP301      0.0000 
     19 O6         50.9710   -0.7960  -49.4560 O.2       1 IMP301      0.0000 
     20 N1         53.2130   -0.9330  -49.5720 N.am      1 IMP301      0.0000 
     21 C2         54.2820   -1.3610  -50.3290 C.2       1 IMP301      0.0000 
     22 N3         54.0980   -2.3150  -51.3080 N.2       1 IMP301      0.0000 
     23 C4         52.8690   -2.8340  -51.5150 C.2       1 IMP301      0.0000 
@<TRIPOS>BOND
     1    1    2 ar   
     2    1    3 ar   
     3    1    4 ar   
     4    1    5 1    
     5    5    6 1    
     6    6    7 1    
     7    7    8 1    
     8    7    9 1    
     9    8   13 1    
    10    9   10 1    
    11    9   11 1    
    12   11   12 1    
    13   11   13 1    
    14   13   14 1    
    15   14   15 1    
    16   14   23 1    
    17   15   16 2    
    18   16   17 1    
    19   17   18 1    
    20   17   23 2    
    21   18   19 2    
    22   18   20 am   
    23   20   21 1    
    24   21   22 2    
    25   22   23 1    
@<TRIPOS>SUBSTRUCTURE
     1 IMP301      1 GROUP   
@<TRIPOS>SET

