#    Name: 6mxd_2_IMP_CAVITY_N1_12
#    Modification time : Fri May 22 19:30:02 2020

@<TRIPOS>MOLECULE
6mxd_2_IMP_CAVITY_N1_12
   95     0     7     0     0
SMALL
NO_CHARGES


@<TRIPOS>ATOM
      1 OG         24.3000  -12.3500   -7.0000 O.3       1 SER1        0.0000 
      2 OG         26.3700  -12.1800   -6.5600 O.3       1 SER1        0.0000 
      3 OG         25.1100  -11.7100   -5.9100 O.3       1 SER1        0.0000 
      4 OG         23.8400  -11.2400   -5.2500 O.3       1 SER1        0.0000 
      5 OG         18.8500   -8.0900   -3.4200 O.3       1 SER1        0.0000 
      6 OG         18.9100   -6.8200   -4.2100 O.3       1 SER1        0.0000 
      7 OG         20.9100   -7.9300   -2.9800 O.3       1 SER1        0.0000 
      8 OG         20.9800   -6.6500   -3.7700 O.3       1 SER1        0.0000 
      9 OG         21.0400   -5.3800   -4.5600 O.3       1 SER1        0.0000 
     10 OG         23.0500   -6.4800   -3.3300 O.3       1 SER1        0.0000 
     11 OG         21.7200   -7.2900   -1.8900 O.3       1 SER1        0.0000 
     12 N          20.7000   -7.1200   -7.4100 N.am      2 ALA2        0.0000 
     13 N          21.5100   -6.4800   -6.3100 N.am      2 ALA2        0.0000 
     14 O          20.2400   -6.0100   -5.6600 O.2       2 ALA2        0.0000 
     15 N          23.5700   -6.3200   -5.8700 N.am      2 ALA2        0.0000 
     16 N          22.3100   -5.8500   -5.2100 N.am      2 ALA2        0.0000 
     17 N          22.3700   -4.5700   -6.0000 N.am      2 ALA2        0.0000 
     18 N          27.9900   -5.5100   -1.3500 N.am      2 ALA2        0.0000 
     19 N          28.0500   -4.2400   -2.1400 N.am      2 ALA2        0.0000 
     20 N          26.7200   -5.0400   -0.7000 N.am      2 ALA2        0.0000 
     21 OD1        21.0400  -10.7700   -7.5800 O.co2     3 ASP3        0.0000 
     22 OD1        19.6500   -7.4600   -2.3300 O.co2     3 ASP3        0.0000 
     23 OD1        26.7800   -9.1700   -4.5100 O.co2     3 ASP3        0.0000 
     24 OD1        26.3200   -8.0600   -2.7600 O.co2     3 ASP3        0.0000 
     25 OD1        26.3800   -6.7900   -3.5400 O.co2     3 ASP3        0.0000 
     26 OD1        27.1200   -7.4200   -1.6600 O.co2     3 ASP3        0.0000 
     27 OD1        27.1800   -6.1500   -2.4500 O.co2     3 ASP3        0.0000 
     28 OD1        27.2500   -4.8700   -3.2400 O.co2     3 ASP3        0.0000 
     29 OD1        27.9200   -6.7900   -0.5600 O.co2     3 ASP3        0.0000 
     30 NZ         19.7100  -11.5800   -6.1400 N.4       4 LYS4        0.0000 
     31 NZ         19.2400  -10.4700   -4.3900 N.4       4 LYS4        0.0000 
     32 NZ         17.9800  -10.0000   -3.7300 N.4       4 LYS4        0.0000 
     33 NZ         18.0400   -8.7300   -4.5200 N.4       4 LYS4        0.0000 
     34 NZ         27.2400  -10.2700   -6.2600 N.4       4 LYS4        0.0000 
     35 NZ         25.9100  -11.0800   -4.8100 N.4       4 LYS4        0.0000 
     36 NZ         26.0400   -8.5300   -6.3900 N.4       4 LYS4        0.0000 
     37 NZ         26.7100  -10.4400   -3.7200 N.4       4 LYS4        0.0000 
     38 NZ         25.6400   -6.1500   -5.4300 N.4       4 LYS4        0.0000 
     39 NZ         24.4400   -4.4000   -5.5600 N.4       4 LYS4        0.0000 
     40 NZ         26.4500   -5.5100   -4.3300 N.4       4 LYS4        0.0000 
     41 NZ         26.5100   -4.2400   -5.1200 N.4       4 LYS4        0.0000 
     42 NZ         25.2500   -3.7700   -4.4700 N.4       4 LYS4        0.0000 
     43 CZ         22.2400  -12.5200   -7.4400 C.ar      5 PHE5        0.0000 
     44 CZ         20.9700  -12.0500   -6.7900 C.ar      5 PHE5        0.0000 
     45 CZ         25.6400  -11.5500   -8.4500 C.ar      5 PHE5        0.0000 
     46 CZ         24.3700  -11.0800   -7.7900 C.ar      5 PHE5        0.0000 
     47 CZ         23.0400  -11.8800   -6.3500 C.ar      5 PHE5        0.0000 
     48 CZ         21.7700  -11.4100   -5.6900 C.ar      5 PHE5        0.0000 
     49 CZ         26.5000   -9.6400   -8.1400 C.ar      5 PHE5        0.0000 
     50 CA         23.5700  -11.7100   -8.8900 C.3       6 GLY6        0.0000 
     51 CA         22.3000  -11.2400   -8.2300 C.3       6 GLY6        0.0000 
     52 CA         21.1000   -9.5000   -8.3700 C.3       6 GLY6        0.0000 
     53 CA         19.7700  -10.3000   -6.9200 C.3       6 GLY6        0.0000 
     54 CA         24.4300   -9.8000   -8.5800 C.3       6 GLY6        0.0000 
     55 CA         23.1000  -10.6100   -7.1400 C.3       6 GLY6        0.0000 
     56 CA         21.8400  -10.1400   -6.4800 C.3       6 GLY6        0.0000 
     57 CA         20.5700   -9.6700   -5.8300 C.3       6 GLY6        0.0000 
     58 CA         20.6400   -8.3900   -6.6200 C.3       6 GLY6        0.0000 
     59 CA         19.3100   -9.2000   -5.1700 C.3       6 GLY6        0.0000 
     60 CA         26.4400  -10.9100   -7.3500 C.3       6 GLY6        0.0000 
     61 CA         25.2400   -9.1700   -7.4800 C.3       6 GLY6        0.0000 
     62 CA         23.9700   -8.7000   -6.8300 C.3       6 GLY6        0.0000 
     63 CA         22.7100   -8.2300   -6.1800 C.3       6 GLY6        0.0000 
     64 CA         22.7700   -6.9500   -6.9600 C.3       6 GLY6        0.0000 
     65 CA         20.1800   -7.2900   -4.8700 C.3       6 GLY6        0.0000 
     66 CA         24.8400   -6.7800   -6.5200 C.3       6 GLY6        0.0000 
     67 CA         23.1100   -5.2100   -4.1200 C.3       6 GLY6        0.0000 
     68 CA         25.1800   -5.0400   -3.6800 C.3       6 GLY6        0.0000 
     69 CA         23.8500   -5.8500   -2.2400 C.3       6 GLY6        0.0000 
     70 CA         27.3100   -3.6000   -4.0300 C.3       6 GLY6        0.0000 
     71 CA         25.8500   -6.9500   -1.0100 C.3       6 GLY6        0.0000 
     72 CA         25.9200   -5.6800   -1.7900 C.3       6 GLY6        0.0000 
     73 CA         25.9800   -4.4100   -2.5800 C.3       6 GLY6        0.0000 
     74 CA         26.0500   -3.1300   -3.3700 C.3       6 GLY6        0.0000 
     75 CA         24.6500   -5.2100   -1.1400 C.3       6 GLY6        0.0000 
     76 DU         20.5100  -10.9400   -5.0400 H         7 CUB7        0.0000 
     77 DU         25.1700  -10.4400   -6.7000 H         7 CUB7        0.0000 
     78 DU         23.9100   -9.9700   -6.0400 H         7 CUB7        0.0000 
     79 DU         22.5800  -10.7800   -4.6000 H         7 CUB7        0.0000 
     80 DU         22.6400   -9.5000   -5.3900 H         7 CUB7        0.0000 
     81 DU         21.3800   -9.0300   -4.7300 H         7 CUB7        0.0000 
     82 DU         21.4400   -7.7600   -5.5200 H         7 CUB7        0.0000 
     83 DU         20.0500   -9.8400   -3.2900 H         7 CUB7        0.0000 
     84 DU         20.1100   -8.5600   -4.0800 H         7 CUB7        0.0000 
     85 DU         25.9800   -9.8000   -5.6000 H         7 CUB7        0.0000 
     86 DU         24.7700   -8.0600   -5.7300 H         7 CUB7        0.0000 
     87 DU         23.5100   -7.5900   -5.0800 H         7 CUB7        0.0000 
     88 DU         22.1800   -8.3900   -3.6400 H         7 CUB7        0.0000 
     89 DU         22.2400   -7.1200   -4.4300 H         7 CUB7        0.0000 
     90 DU         25.5100   -8.7000   -3.8500 H         7 CUB7        0.0000 
     91 DU         25.5800   -7.4200   -4.6400 H         7 CUB7        0.0000 
     92 DU         24.3100   -6.9500   -3.9900 H         7 CUB7        0.0000 
     93 DU         24.3800   -5.6800   -4.7700 H         7 CUB7        0.0000 
     94 DU         25.0500   -7.5900   -2.1000 H         7 CUB7        0.0000 
     95 DU         25.1100   -6.3200   -2.8900 H         7 CUB7        0.0000 
@<TRIPOS>BOND
@<TRIPOS>SUBSTRUCTURE
     1 SER1        1 GROUP   
     2 ALA2       12 GROUP   
     3 ASP3       21 GROUP   
     4 LYS4       30 GROUP   
     5 PHE5       43 GROUP   
     6 GLY6       50 GROUP   
     7 CUB7       76 GROUP   
@<TRIPOS>SET

