#    Name: 6mxd_4_IMP_CAVITY_N1_4
#    Modification time : Fri May 22 19:30:11 2020

@<TRIPOS>MOLECULE
6mxd_4_IMP_CAVITY_N1_4
   88     0     7     0     0
SMALL
NO_CHARGES


@<TRIPOS>ATOM
      1 OG         21.5400  -17.8000  -53.1500 O.3       1 SER1        0.0000 
      2 OG         21.6000  -16.5300  -53.9400 O.3       1 SER1        0.0000 
      3 OG         23.5400  -18.9100  -51.9200 O.3       1 SER1        0.0000 
      4 OG         22.3400  -17.1700  -52.0500 O.3       1 SER1        0.0000 
      5 OG         20.8100  -21.8000  -48.2400 O.3       1 SER1        0.0000 
      6 OG         19.5500  -21.3300  -47.5900 O.3       1 SER1        0.0000 
      7 OG         26.8100  -20.4900  -51.3400 O.3       1 SER1        0.0000 
      8 OG         25.5400  -20.0200  -50.6900 O.3       1 SER1        0.0000 
      9 OG         25.6100  -18.7500  -51.4800 O.3       1 SER1        0.0000 
     10 OG         25.6700  -17.4700  -52.2700 O.3       1 SER1        0.0000 
     11 OG         24.4100  -17.0000  -51.6100 O.3       1 SER1        0.0000 
     12 OG         23.1400  -16.5300  -50.9600 O.3       1 SER1        0.0000 
     13 O          18.2800  -20.8600  -46.9400 O.2       2 ALA2        0.0000 
     14 N          17.0800  -19.1100  -47.0700 N.am      2 ALA2        0.0000 
     15 O          26.4100  -18.1100  -50.3800 O.2       2 ALA2        0.0000 
     16 O          25.1400  -17.6400  -49.7300 O.2       2 ALA2        0.0000 
     17 O          25.2100  -16.3600  -50.5200 O.2       2 ALA2        0.0000 
     18 N          21.0900  -21.3300  -44.6100 N.am      2 ALA2        0.0000 
     19 O          23.1600  -21.1600  -44.1700 O.2       2 ALA2        0.0000 
     20 OD1        16.7400  -20.8600  -49.9200 O.co2     3 ASP3        0.0000 
     21 OD1        24.4200  -21.6300  -44.8200 O.co2     3 ASP3        0.0000 
     22 OD1        24.4900  -20.3600  -45.6100 O.co2     3 ASP3        0.0000 
     23 NZ         18.7400  -21.9600  -48.6900 N.4       4 LYS4        0.0000 
     24 NZ         19.0000  -16.8700  -51.8400 N.4       4 LYS4        0.0000 
     25 NZ         19.0700  -15.5900  -52.6300 N.4       4 LYS4        0.0000 
     26 NZ         17.7400  -16.4000  -51.1900 N.4       4 LYS4        0.0000 
     27 NZ         21.0100  -17.9700  -50.6100 N.4       4 LYS4        0.0000 
     28 NZ         21.0700  -16.7000  -51.4000 N.4       4 LYS4        0.0000 
     29 NZ         19.6800  -18.7800  -49.1700 N.4       4 LYS4        0.0000 
     30 NZ         19.7400  -17.5000  -49.9600 N.4       4 LYS4        0.0000 
     31 NZ         18.3500  -19.5800  -47.7200 N.4       4 LYS4        0.0000 
     32 NZ         18.4100  -18.3100  -48.5100 N.4       4 LYS4        0.0000 
     33 NZ         24.9500  -21.4600  -47.3600 N.4       4 LYS4        0.0000 
     34 CZ         24.0800  -23.3700  -47.6700 C.ar      5 PHE5        0.0000 
     35 CZ         22.8800  -21.6300  -47.8000 C.ar      5 PHE5        0.0000 
     36 CZ         21.6100  -21.1600  -47.1500 C.ar      5 PHE5        0.0000 
     37 CZ         20.3500  -20.6900  -46.4900 C.ar      5 PHE5        0.0000 
     38 CZ         19.0800  -20.2200  -45.8400 C.ar      5 PHE5        0.0000 
     39 CZ         19.1500  -18.9500  -46.6300 C.ar      5 PHE5        0.0000 
     40 CZ         24.8800  -22.7400  -46.5700 C.ar      5 PHE5        0.0000 
     41 CZ         23.6800  -20.9900  -46.7100 C.ar      5 PHE5        0.0000 
     42 CZ         22.3500  -21.8000  -45.2700 C.ar      5 PHE5        0.0000 
     43 CZ         22.4200  -20.5200  -46.0500 C.ar      5 PHE5        0.0000 
     44 CZ         21.1500  -20.0500  -45.4000 C.ar      5 PHE5        0.0000 
     45 CA         22.0000  -18.9100  -54.9000 C.3       6 GLY6        0.0000 
     46 CA         20.7300  -18.4400  -54.2400 C.3       6 GLY6        0.0000 
     47 CA         19.4000  -19.2500  -52.8000 C.3       6 GLY6        0.0000 
     48 CA         19.4700  -17.9700  -53.5900 C.3       6 GLY6        0.0000 
     49 CA         18.2000  -17.5000  -52.9400 C.3       6 GLY6        0.0000 
     50 CA         22.7400  -19.5500  -53.0100 C.3       6 GLY6        0.0000 
     51 CA         22.8000  -18.2700  -53.8000 C.3       6 GLY6        0.0000 
     52 CA         20.2700  -17.3400  -52.4900 C.3       6 GLY6        0.0000 
     53 CA         20.3400  -16.0600  -53.2800 C.3       6 GLY6        0.0000 
     54 CA         17.4800  -21.4900  -48.0300 C.3       6 GLY6        0.0000 
     55 CA         24.8000  -19.3800  -52.5700 C.3       6 GLY6        0.0000 
     56 CA         20.9400  -19.2500  -49.8200 C.3       6 GLY6        0.0000 
     57 CA         23.0100  -19.0800  -49.3800 C.3       6 GLY6        0.0000 
     58 CA         23.0800  -17.8100  -50.1700 C.3       6 GLY6        0.0000 
     59 CA         21.6800  -19.8900  -47.9400 C.3       6 GLY6        0.0000 
     60 CA         21.7500  -18.6100  -48.7300 C.3       6 GLY6        0.0000 
     61 CA         21.8100  -17.3400  -49.5100 C.3       6 GLY6        0.0000 
     62 CA         20.4100  -19.4200  -47.2800 C.3       6 GLY6        0.0000 
     63 CA         25.0100  -20.1900  -48.1500 C.3       6 GLY6        0.0000 
     64 CA         25.0800  -18.9100  -48.9400 C.3       6 GLY6        0.0000 
     65 CA         23.7500  -19.7200  -47.5000 C.3       6 GLY6        0.0000 
     66 CA         23.8100  -18.4400  -48.2800 C.3       6 GLY6        0.0000 
     67 CA         23.8800  -17.1700  -49.0700 C.3       6 GLY6        0.0000 
     68 CA         22.4800  -19.2500  -46.8400 C.3       6 GLY6        0.0000 
     69 CA         24.5500  -19.0800  -46.4000 C.3       6 GLY6        0.0000 
     70 CA         23.2200  -19.8900  -44.9600 C.3       6 GLY6        0.0000 
     71 DU         18.0100  -21.3300  -50.5700 H         7 CUB7        0.0000 
     72 DU         18.1400  -18.7800  -52.1500 H         7 CUB7        0.0000 
     73 DU         21.4700  -19.0800  -52.3600 H         7 CUB7        0.0000 
     74 DU         20.0700  -21.1600  -50.1300 H         7 CUB7        0.0000 
     75 DU         20.2100  -18.6100  -51.7100 H         7 CUB7        0.0000 
     76 DU         18.8100  -20.6900  -49.4700 H         7 CUB7        0.0000 
     77 DU         18.8700  -19.4100  -50.2600 H         7 CUB7        0.0000 
     78 DU         18.9400  -18.1400  -51.0500 H         7 CUB7        0.0000 
     79 DU         17.5400  -20.2200  -48.8200 H         7 CUB7        0.0000 
     80 DU         22.1400  -20.9900  -49.6900 H         7 CUB7        0.0000 
     81 DU         22.2100  -19.7200  -50.4800 H         7 CUB7        0.0000 
     82 DU         22.2700  -18.4400  -51.2600 H         7 CUB7        0.0000 
     83 DU         20.8800  -20.5200  -49.0300 H         7 CUB7        0.0000 
     84 DU         19.6100  -20.0500  -48.3800 H         7 CUB7        0.0000 
     85 DU         24.2100  -20.8200  -49.2500 H         7 CUB7        0.0000 
     86 DU         24.2800  -19.5500  -50.0300 H         7 CUB7        0.0000 
     87 DU         24.3400  -18.2800  -50.8200 H         7 CUB7        0.0000 
     88 DU         22.9500  -20.3500  -48.5900 H         7 CUB7        0.0000 
@<TRIPOS>BOND
@<TRIPOS>SUBSTRUCTURE
     1 SER1        1 GROUP   
     2 ALA2       13 GROUP   
     3 ASP3       20 GROUP   
     4 LYS4       23 GROUP   
     5 PHE5       34 GROUP   
     6 GLY6       45 GROUP   
     7 CUB7       71 GROUP   
@<TRIPOS>SET

