#    Name: 6mxd_3_IMP_CAVITY_N1_6
#    Modification time : Fri May 22 19:30:06 2020

@<TRIPOS>MOLECULE
6mxd_3_IMP_CAVITY_N1_6
  104     0     7     0     0
SMALL
NO_CHARGES


@<TRIPOS>ATOM
      1 OG         53.6700   -9.0600  -59.1800 O.3       1 SER1        0.0000 
      2 OG         48.6000   -7.1800  -56.5600 O.3       1 SER1        0.0000 
      3 OG         54.4700   -8.4200  -58.0900 O.3       1 SER1        0.0000 
      4 OG         53.2000   -7.9500  -57.4300 O.3       1 SER1        0.0000 
      5 OG         50.6700   -7.0100  -56.1200 O.3       1 SER1        0.0000 
      6 OG         49.3400   -7.8200  -54.6800 O.3       1 SER1        0.0000 
      7 OG         49.4100   -6.5400  -55.4700 O.3       1 SER1        0.0000 
      8 OG         48.0800   -7.3500  -54.0300 O.3       1 SER1        0.0000 
      9 OG         48.2100   -4.8000  -55.6000 O.3       1 SER1        0.0000 
     10 OG         54.0100   -7.3100  -56.3400 O.3       1 SER1        0.0000 
     11 OG         52.6700   -8.1200  -54.8900 O.3       1 SER1        0.0000 
     12 OG         52.7400   -6.8400  -55.6800 O.3       1 SER1        0.0000 
     13 OG         51.4100   -7.6500  -54.2400 O.3       1 SER1        0.0000 
     14 OG         51.4700   -6.3800  -55.0300 O.3       1 SER1        0.0000 
     15 OG         54.0100   -1.9200  -53.3200 O.3       1 SER1        0.0000 
     16 OG         54.7500   -2.5500  -51.4300 O.3       1 SER1        0.0000 
     17 N          55.7300   -8.8900  -58.7400 N.am      2 ALA2        0.0000 
     18 N          56.5400   -8.2500  -57.6500 N.am      2 ALA2        0.0000 
     19 N          50.0800   -8.4500  -52.8000 N.am      2 ALA2        0.0000 
     20 O          50.1400   -7.1800  -53.5900 O.2       2 ALA2        0.0000 
     21 O          48.8800   -6.7100  -52.9300 O.2       2 ALA2        0.0000 
     22 N          58.6000   -8.0900  -57.2000 N.am      2 ALA2        0.0000 
     23 N          57.2700   -8.8900  -55.7600 N.am      2 ALA2        0.0000 
     24 N          57.3400   -7.6200  -56.5500 N.am      2 ALA2        0.0000 
     25 N          52.1500   -8.2900  -52.3600 N.am      2 ALA2        0.0000 
     26 N          52.2100   -7.0100  -53.1400 N.am      2 ALA2        0.0000 
     27 N          50.9500   -6.5400  -52.4900 N.am      2 ALA2        0.0000 
     28 N          58.0800   -8.2500  -54.6700 N.am      2 ALA2        0.0000 
     29 OD1        59.4100   -7.4500  -56.1100 O.co2     3 ASP3        0.0000 
     30 OD1        58.1400   -6.9800  -55.4500 O.co2     3 ASP3        0.0000 
     31 OD1        56.8800   -6.5100  -54.8000 O.co2     3 ASP3        0.0000 
     32 OD1        56.9400   -5.2400  -55.5900 O.co2     3 ASP3        0.0000 
     33 OD1        49.3500   -2.4200  -51.6600 O.co2     3 ASP3        0.0000 
     34 OD1        51.4200   -2.2500  -51.2200 O.co2     3 ASP3        0.0000 
     35 OD1        48.9500   -0.0400  -50.7000 O.co2     3 ASP3        0.0000 
     36 OD1        52.2200   -1.6200  -50.1300 O.co2     3 ASP3        0.0000 
     37 NZ         52.6100   -9.3900  -54.1100 N.4       4 LYS4        0.0000 
     38 NZ         54.7400   -7.9500  -54.4500 N.4       4 LYS4        0.0000 
     39 NZ         53.4800   -7.4800  -53.8000 N.4       4 LYS4        0.0000 
     40 NZ         48.6100   -1.7800  -53.5500 N.4       4 LYS4        0.0000 
     41 NZ         56.7500   -9.0600  -53.2200 N.4       4 LYS4        0.0000 
     42 NZ         55.4800   -8.5900  -52.5700 N.4       4 LYS4        0.0000 
     43 NZ         55.5500   -7.3200  -53.3600 N.4       4 LYS4        0.0000 
     44 NZ         54.2200   -8.1200  -51.9100 N.4       4 LYS4        0.0000 
     45 NZ         48.1500   -0.6800  -51.8000 N.4       4 LYS4        0.0000 
     46 NZ         57.8100   -3.3300  -55.2800 N.4       4 LYS4        0.0000 
     47 NZ         56.3500   -6.6800  -52.2600 N.4       4 LYS4        0.0000 
     48 NZ         56.4100   -5.4000  -53.0500 N.4       4 LYS4        0.0000 
     49 NZ         56.4800   -4.1300  -53.8400 N.4       4 LYS4        0.0000 
     50 NZ         56.5400   -2.8600  -54.6300 N.4       4 LYS4        0.0000 
     51 NZ         55.0800   -6.2100  -51.6100 N.4       4 LYS4        0.0000 
     52 NZ         55.2100   -3.6600  -53.1800 N.4       4 LYS4        0.0000 
     53 NZ         55.2800   -2.3900  -53.9700 N.4       4 LYS4        0.0000 
     54 NZ         55.9500   -4.3000  -51.3000 N.4       4 LYS4        0.0000 
     55 NZ         56.0200   -3.0200  -52.0900 N.4       4 LYS4        0.0000 
     56 NZ         56.0800   -1.7500  -52.8800 N.4       4 LYS4        0.0000 
     57 CZ         50.6800   -1.6100  -53.1000 C.ar      5 PHE5        0.0000 
     58 CZ         49.4100   -1.1400  -52.4500 C.ar      5 PHE5        0.0000 
     59 CZ         52.6800   -2.7200  -51.8800 C.ar      5 PHE5        0.0000 
     60 CZ         52.7500   -1.4500  -52.6600 C.ar      5 PHE5        0.0000 
     61 CZ         50.2200   -0.5100  -51.3500 C.ar      5 PHE5        0.0000 
     62 CZ         53.4900   -2.0800  -50.7800 C.ar      5 PHE5        0.0000 
     63 CA         54.4000   -9.7000  -57.3000 C.3       6 GLY6        0.0000 
     64 CA         49.2800   -9.0900  -53.8900 C.3       6 GLY6        0.0000 
     65 CA         56.4700   -9.5300  -56.8600 C.3       6 GLY6        0.0000 
     66 CA         55.1400  -10.3300  -55.4100 C.3       6 GLY6        0.0000 
     67 CA         55.2100   -9.0600  -56.2000 C.3       6 GLY6        0.0000 
     68 CA         53.8800   -9.8600  -54.7600 C.3       6 GLY6        0.0000 
     69 CA         53.9400   -8.5900  -55.5500 C.3       6 GLY6        0.0000 
     70 CA         51.3400   -8.9200  -53.4500 C.3       6 GLY6        0.0000 
     71 CA         48.9400   -5.4400  -53.7200 C.3       6 GLY6        0.0000 
     72 CA         57.2100  -10.1700  -54.9700 C.3       6 GLY6        0.0000 
     73 CA         55.9400   -9.7000  -54.3200 C.3       6 GLY6        0.0000 
     74 CA         49.7500   -4.8000  -52.6200 C.3       6 GLY6        0.0000 
     75 CA         49.8100   -3.5300  -53.4100 C.3       6 GLY6        0.0000 
     76 CA         54.2800   -6.8500  -52.7000 C.3       6 GLY6        0.0000 
     77 CA         53.0100   -6.3800  -52.0500 C.3       6 GLY6        0.0000 
     78 CA         53.0800   -5.1000  -52.8400 C.3       6 GLY6        0.0000 
     79 CA         51.8100   -4.6300  -52.1800 C.3       6 GLY6        0.0000 
     80 CA         50.5500   -4.1600  -51.5300 C.3       6 GLY6        0.0000 
     81 CA         55.1500   -4.9300  -52.4000 C.3       6 GLY6        0.0000 
     82 CA         53.8800   -4.4700  -51.7400 C.3       6 GLY6        0.0000 
     83 CA         52.6200   -4.0000  -51.0900 C.3       6 GLY6        0.0000 
     84 CA         51.3500   -3.5300  -50.4300 C.3       6 GLY6        0.0000 
     85 CA         54.6900   -3.8300  -50.6500 C.3       6 GLY6        0.0000 
     86 CA         53.4200   -3.3600  -49.9900 C.3       6 GLY6        0.0000 
     87 CA         52.1500   -2.8900  -49.3400 C.3       6 GLY6        0.0000 
     88 DU         55.2700   -7.7800  -56.9900 H         7 CUB7        0.0000 
     89 DU         50.2100   -5.9100  -54.3700 H         7 CUB7        0.0000 
     90 DU         56.0100   -8.4200  -55.1100 H         7 CUB7        0.0000 
     91 DU         56.0700   -7.1500  -55.9000 H         7 CUB7        0.0000 
     92 DU         54.8100   -6.6800  -55.2400 H         7 CUB7        0.0000 
     93 DU         53.5400   -6.2100  -54.5900 H         7 CUB7        0.0000 
     94 DU         52.2800   -5.7400  -53.9300 H         7 CUB7        0.0000 
     95 DU         51.0100   -5.2700  -53.2800 H         7 CUB7        0.0000 
     96 DU         51.0800   -3.9900  -54.0700 H         7 CUB7        0.0000 
     97 DU         56.8100   -7.7900  -54.0100 H         7 CUB7        0.0000 
     98 DU         55.6100   -6.0400  -54.1500 H         7 CUB7        0.0000 
     99 DU         55.6800   -4.7700  -54.9300 H         7 CUB7        0.0000 
    100 DU         54.3500   -5.5700  -53.4900 H         7 CUB7        0.0000 
    101 DU         53.1500   -3.8300  -53.6300 H         7 CUB7        0.0000 
    102 DU         51.8800   -3.3600  -52.9700 H         7 CUB7        0.0000 
    103 DU         50.6100   -2.8900  -52.3200 H         7 CUB7        0.0000 
    104 DU         53.9500   -3.1900  -52.5300 H         7 CUB7        0.0000 
@<TRIPOS>BOND
@<TRIPOS>SUBSTRUCTURE
     1 SER1        1 GROUP   
     2 ALA2       17 GROUP   
     3 ASP3       29 GROUP   
     4 LYS4       37 GROUP   
     5 PHE5       57 GROUP   
     6 GLY6       63 GROUP   
     7 CUB7       88 GROUP   
@<TRIPOS>SET

