#    Name: 6mxd_4_IMP
#    Modification time : Fri May 22 19:30:09 2020

@<TRIPOS>MOLECULE
6mxd_4_IMP
   23    25     1     0     0
SMALL
NO_CHARGES


@<TRIPOS>ATOM
      1 P          26.0990  -17.5190  -51.6700 P.3       1 IMP301      0.0000 
      2 O1P        26.3440  -17.6530  -53.1540 O.co2     1 IMP301      0.0000 
      3 O2P        26.2920  -16.0730  -51.2760 O.co2     1 IMP301      0.0000 
      4 O3P        26.9420  -18.5590  -50.9720 O.co2     1 IMP301      0.0000 
      5 O5'        24.5740  -17.8770  -51.3820 O.3       1 IMP301      0.0000 
      6 C5'        23.8830  -18.8250  -52.1890 C.3       1 IMP301      0.0000 
      7 C4'        22.6480  -19.3550  -51.5010 C.3       1 IMP301      0.0000 
      8 O4'        23.0500  -20.1840  -50.3980 O.3       1 IMP301      0.0000 
      9 C3'        21.7210  -18.2900  -50.9310 C.3       1 IMP301      0.0000 
     10 O3'        20.5920  -18.1160  -51.7870 O.3       1 IMP301      0.0000 
     11 C2'        21.2650  -18.8470  -49.5710 C.3       1 IMP301      0.0000 
     12 O2'        19.8770  -19.0990  -49.4840 O.3       1 IMP301      0.0000 
     13 C1'        22.0860  -20.1320  -49.3730 C.3       1 IMP301      0.0000 
     14 N9         22.8200  -20.1570  -48.1040 N.pl3     1 IMP301      0.0000 
     15 C8         24.1450  -19.8310  -47.9660 C.2       1 IMP301      0.0000 
     16 N7         24.4960  -19.9630  -46.6690 N.2       1 IMP301      0.0000 
     17 C5         23.4140  -20.3670  -45.9710 C.2       1 IMP301      0.0000 
     18 C6         23.2360  -20.6450  -44.6220 C.2       1 IMP301      0.0000 
     19 O6         24.1980  -20.6160  -43.8560 O.2       1 IMP301      0.0000 
     20 N1         21.9970  -21.0480  -44.1690 N.am      1 IMP301      0.0000 
     21 C2         20.9490  -21.1680  -45.0600 C.2       1 IMP301      0.0000 
     22 N3         21.1350  -20.8910  -46.4020 N.2       1 IMP301      0.0000 
     23 C4         22.3500  -20.4940  -46.8560 C.2       1 IMP301      0.0000 
@<TRIPOS>BOND
     1    1    2 ar   
     2    1    3 ar   
     3    1    4 ar   
     4    1    5 1    
     5    5    6 1    
     6    6    7 1    
     7    7    8 1    
     8    7    9 1    
     9    8   13 1    
    10    9   10 1    
    11    9   11 1    
    12   11   12 1    
    13   11   13 1    
    14   13   14 1    
    15   14   15 1    
    16   14   23 1    
    17   15   16 2    
    18   16   17 1    
    19   17   18 1    
    20   17   23 2    
    21   18   19 2    
    22   18   20 am   
    23   20   21 1    
    24   21   22 2    
    25   22   23 1    
@<TRIPOS>SUBSTRUCTURE
     1 IMP301      1 GROUP   
@<TRIPOS>SET

