#    Name: 6opu_1_017
#    Modification time : Fri May 22 19:26:03 2020

@<TRIPOS>MOLECULE
6opu_1_017
   75    78     1     0     0
SMALL
NO_CHARGES


@<TRIPOS>ATOM
      1 N1          9.3770   15.6060   -2.0570 N.pl3     1 017101      0.0000 
      2 C2          9.1930   15.2820   -0.6130 C.ar      1 017101      0.0000 
      3 C3          8.5060   16.1520    0.2060 C.ar      1 017101      0.0000 
      4 C4          8.3340   15.8590    1.5400 C.ar      1 017101      0.0000 
      5 C5          8.8510   14.6710    2.0600 C.ar      1 017101      0.0000 
      6 C6          9.5320   13.8050    1.2560 C.ar      1 017101      0.0000 
      7 C7          9.7060   14.1050   -0.0940 C.ar      1 017101      0.0000 
      8 S8          8.6240   14.2830    3.8450 S.o2      1 017101      0.0000 
      9 O9          8.5980   12.8520    4.0690 O.2       1 017101      0.0000 
     10 O10         7.2720   14.6790    4.3220 O.2       1 017101      0.0000 
     11 N11         9.8470   15.0840    4.7890 N.pl3     1 017101      0.0000 
     12 C12        11.2550   14.6590    4.6660 C.3       1 017101      0.0000 
     13 C13        11.6960   13.6700    5.7510 C.3       1 017101      0.0000 
     14 C14        13.2450   13.4660    5.6010 C.3       1 017101      0.0000 
     15 C15        10.9190   12.3390    5.6650 C.3       1 017101      0.0000 
     16 C16         9.6190   16.5790    5.0830 C.3       1 017101      0.0000 
     17 C17         9.4910   16.8310    6.6230 C.3       1 017101      0.0000 
     18 O18         9.8060   18.1470    6.8920 O.3       1 017101      0.0000 
     19 C19         8.0610   16.4780    7.0480 C.3       1 017101      0.0000 
     20 N20         7.9220   16.5400    8.4890 N.am      1 017101      0.0000 
     21 C21         8.0950   15.3860    9.3900 C.2       1 017101      0.0000 
     22 O22         8.1440   14.2670    8.9870 O.2       1 017101      0.0000 
     23 O23         8.1970   15.7100   10.7470 O.3       1 017101      0.0000 
     24 C24         7.6770   14.8360   11.7330 C.3       1 017101      0.0000 
     25 C25         8.7730   14.9200   12.9890 C.3       1 017101      0.0000 
     26 O26         8.5490   16.1550   13.4740 O.3       1 017101      0.0000 
     27 C27         6.9830   16.3500   13.3340 C.3       1 017101      0.0000 
     28 O28         6.6800   17.4460   12.8020 O.3       1 017101      0.0000 
     29 C29         5.4010   17.1590   11.8270 C.3       1 017101      0.0000 
     30 C30         5.5590   15.9360   11.3630 C.3       1 017101      0.0000 
     31 C31         6.5250   15.2440   12.2840 C.3       1 017101      0.0000 
     32 C32         7.0740   17.5050    6.4990 C.3       1 017101      0.0000 
     33 C33         5.0010   16.1450    6.7460 C.ar      1 017101      0.0000 
     34 C34         3.7270   15.9120    7.2820 C.ar      1 017101      0.0000 
     35 C35         3.1540   16.8400    8.1700 C.ar      1 017101      0.0000 
     36 C36         3.8440   17.9790    8.5210 C.ar      1 017101      0.0000 
     37 C37         5.1180   18.2140    7.9880 C.ar      1 017101      0.0000 
     38 C38         5.6870   17.2790    7.0910 C.ar      1 017101      0.0000 
     39 H11        10.0160   15.2310   -2.5080 H         1 017101      0.0000 
     40 H12         8.8450   16.1710   -2.4470 H         1 017101      0.0000 
     41 H3          8.1580   16.9400   -0.1430 H         1 017101      0.0000 
     42 H4          7.8750   16.4490    2.0920 H         1 017101      0.0000 
     43 H6          9.8780   13.0170    1.6070 H         1 017101      0.0000 
     44 H7         10.1660   13.5160   -0.6460 H         1 017101      0.0000 
     45 H121       11.3700   14.2520    3.8270 H         1 017101      0.0000 
     46 H122       11.8010   15.4210    4.7170 H         1 017101      0.0000 
     47 H13        11.5010   14.0140    6.6030 H         1 017101      0.0000 
     48 H141       13.4220   12.5790    5.3510 H         1 017101      0.0000 
     49 H142       13.5750   14.0480    4.9410 H         1 017101      0.0000 
     50 H143       13.6670   13.6500    6.4190 H         1 017101      0.0000 
     51 H151       10.9860   11.9930    4.7950 H         1 017101      0.0000 
     52 H152       11.2820   11.7240    6.2750 H         1 017101      0.0000 
     53 H153       10.0160   12.4890    5.8730 H         1 017101      0.0000 
     54 H161        8.8300   16.8600    4.6580 H         1 017101      0.0000 
     55 H162       10.3430   17.0740    4.7480 H         1 017101      0.0000 
     56 H17        10.0870   16.2950    7.1130 H         1 017101      0.0000 
     57 H18         9.4070   18.3930    7.5790 H         1 017101      0.0000 
     58 H19         7.8850   15.6150    6.7220 H         1 017101      0.0000 
     59 H20         7.7240   17.3070    8.8450 H         1 017101      0.0000 
     60 H24         7.5200   13.9830   11.3730 H         1 017101      0.0000 
     61 H251        9.6540   14.8380   12.6740 H         1 017101      0.0000 
     62 H252        8.5930   14.2660   13.6380 H         1 017101      0.0000 
     63 H27         6.5580   16.2550   14.1660 H         1 017101      0.0000 
     64 H291        5.3950   17.7740   11.1170 H         1 017101      0.0000 
     65 H292        4.6040   17.2160   12.3190 H         1 017101      0.0000 
     66 H301        4.7360   15.4840   11.3680 H         1 017101      0.0000 
     67 H302        5.9140   15.9670   10.4940 H         1 017101      0.0000 
     68 H31         6.0820   14.5110   12.6690 H         1 017101      0.0000 
     69 H321        7.3690   18.3690    6.7180 H         1 017101      0.0000 
     70 H322        7.0300   17.4270    5.5640 H         1 017101      0.0000 
     71 H33         5.3790   15.5320    6.1590 H         1 017101      0.0000 
     72 H34         3.2610   15.1430    7.0500 H         1 017101      0.0000 
     73 H35         2.3080   16.6850    8.5200 H         1 017101      0.0000 
     74 H36         3.4650   18.5890    9.1100 H         1 017101      0.0000 
     75 H37         5.5880   18.9800    8.2220 H         1 017101      0.0000 
@<TRIPOS>BOND
     1    1    2 1    
     2    2    3 ar   
     3    1   39 1    
     4    1   40 1    
     5    2    7 ar   
     6    3    4 ar   
     7    4    5 ar   
     8    3   41 1    
     9    5    6 ar   
    10    4   42 1    
    11    5    8 1    
    12    6    7 ar   
    13    8    9 2    
    14    6   43 1    
    15    7   44 1    
    16    8   10 2    
    17    8   11 1    
    18   11   12 1    
    19   11   16 1    
    20   12   13 1    
    21   13   14 1    
    22   12   45 1    
    23   12   46 1    
    24   13   15 1    
    25   21   22 2    
    26   13   47 1    
    27   14   50 1    
    28   14   48 1    
    29   14   49 1    
    30   15   51 1    
    31   15   52 1    
    32   15   53 1    
    33   16   54 1    
    34   16   55 1    
    35   16   17 1    
    36   17   56 1    
    37   18   57 1    
    38   17   18 1    
    39   17   19 1    
    40   19   58 1    
    41   19   20 1    
    42   19   32 1    
    43   20   59 1    
    44   20   21 am   
    45   21   23 1    
    46   23   24 1    
    47   26   27 1    
    48   24   60 1    
    49   31   68 1    
    50   24   25 1    
    51   24   31 1    
    52   25   61 1    
    53   25   62 1    
    54   25   26 1    
    55   28   29 1    
    56   27   63 1    
    57   27   28 1    
    58   27   31 1    
    59   29   64 1    
    60   29   65 1    
    61   30   67 1    
    62   29   30 1    
    63   30   66 1    
    64   30   31 1    
    65   32   69 1    
    66   32   70 1    
    67   32   38 1    
    68   33   71 1    
    69   33   34 ar   
    70   33   38 ar   
    71   34   72 1    
    72   34   35 ar   
    73   35   73 1    
    74   35   36 ar   
    75   36   74 1    
    76   36   37 ar   
    77   37   75 1    
    78   37   38 ar   
@<TRIPOS>SUBSTRUCTURE
     1 017101      1 GROUP   
@<TRIPOS>SET

