#    Name: 6tyt_1_ALA_LYS_GLY_LEU_PHE_MET
#    Modification time : Fri May 22 19:26:10 2020

@<TRIPOS>MOLECULE
6tyt_1_ALA_LYS_GLY_LEU_PHE_MET
   93    93     6     0     0
SMALL
NO_CHARGES


@<TRIPOS>ATOM
      1 N          21.7820   -8.4480  -17.0260 N.4       1 ALA306      0.0000 
      2 CA         21.3210   -7.3700  -17.8920 C.3       1 ALA306      0.0000 
      3 C          19.8310   -7.5100  -18.1730 C.2       1 ALA306      0.0000 
      4 O          19.3040   -8.6200  -18.2430 O.2       1 ALA306      0.0000 
      5 CB         22.1090   -7.3580  -19.1910 C.3       1 ALA306      0.0000 
      6 HA         21.4650   -6.5210  -17.4450 H         1 ALA306      0.0000 
      7 HB1        21.7850   -6.6340  -19.7500 H         1 ALA306      0.0000 
      8 HB2        23.0480   -7.2260  -18.9890 H         1 ALA306      0.0000 
      9 HB3        21.9840   -8.2070  -19.6430 H         1 ALA306      0.0000 
     10 N          19.1580   -6.3750  -18.3360 N.am      2 LYS307      0.0000 
     11 CA         17.7180   -6.3560  -18.5580 C.3       2 LYS307      0.0000 
     12 C          17.3270   -4.9600  -19.0250 C.2       2 LYS307      0.0000 
     13 O          18.1360   -4.0280  -19.0090 O.2       2 LYS307      0.0000 
     14 CB         16.9510   -6.7580  -17.2920 C.3       2 LYS307      0.0000 
     15 CG         17.4880   -6.1460  -15.9990 C.3       2 LYS307      0.0000 
     16 CD         16.9610   -6.8800  -14.7710 C.3       2 LYS307      0.0000 
     17 CE         17.8140   -6.6020  -13.5420 C.3       2 LYS307      0.0000 
     18 NZ         17.5780   -7.5980  -12.4590 N.4       2 LYS307      0.0000 
     19 H          19.5180   -5.5940  -18.3220 H         2 LYS307      0.0000 
     20 HA         17.4940   -6.9860  -19.2610 H         2 LYS307      0.0000 
     21 HB2        16.0270   -6.4780  -17.3880 H         2 LYS307      0.0000 
     22 HB3        16.9910   -7.7230  -17.1990 H         2 LYS307      0.0000 
     23 HG2        18.4560   -6.2040  -15.9950 H         2 LYS307      0.0000 
     24 HG3        17.2070   -5.2190  -15.9430 H         2 LYS307      0.0000 
     25 HD2        16.0560   -6.5840  -14.5860 H         2 LYS307      0.0000 
     26 HD3        16.9740   -7.8350  -14.9400 H         2 LYS307      0.0000 
     27 HE2        18.7510   -6.6410  -13.7900 H         2 LYS307      0.0000 
     28 HE3        17.5960   -5.7220  -13.1960 H         2 LYS307      0.0000 
     29 HZ1        18.0900   -7.4090  -11.7560 H         2 LYS307      0.0000 
     30 HZ2        16.7240   -7.5790  -12.2090 H         2 LYS307      0.0000 
     31 HZ3        17.7760   -8.4160  -12.7500 H         2 LYS307      0.0000 
     32 N          16.0760   -4.8330  -19.4570 N.am      3 GLY308      0.0000 
     33 CA         15.5740   -3.5360  -19.8840 C.3       3 GLY308      0.0000 
     34 C          16.1290   -3.1460  -21.2400 C.2       3 GLY308      0.0000 
     35 O          16.1570   -3.9490  -22.1810 O.2       3 GLY308      0.0000 
     36 H          15.5060   -5.4740  -19.5120 H         3 GLY308      0.0000 
     37 HA2        14.6060   -3.5630  -19.9410 H         3 GLY308      0.0000 
     38 HA3        15.8280   -2.8590  -19.2380 H         3 GLY308      0.0000 
     39 N          16.5690   -1.8890  -21.3530 N.am      4 LEU309      0.0000 
     40 CA         17.1040   -1.4050  -22.6210 C.3       4 LEU309      0.0000 
     41 C          18.3390   -2.1870  -23.0400 C.2       4 LEU309      0.0000 
     42 O          18.6110   -2.3250  -24.2380 O.2       4 LEU309      0.0000 
     43 CB         17.4350    0.0840  -22.5220 C.3       4 LEU309      0.0000 
     44 CG         16.3210    1.0170  -22.0450 C.3       4 LEU309      0.0000 
     45 CD1        16.7340    2.4650  -22.2600 C.3       4 LEU309      0.0000 
     46 CD2        15.0030    0.7290  -22.7460 C.3       4 LEU309      0.0000 
     47 H          16.5690   -1.3080  -20.7180 H         4 LEU309      0.0000 
     48 HA         16.4300   -1.5170  -23.3100 H         4 LEU309      0.0000 
     49 HB2        18.1770    0.1870  -21.9050 H         4 LEU309      0.0000 
     50 HB3        17.7080    0.3910  -23.4010 H         4 LEU309      0.0000 
     51 HG         16.1870    0.8850  -21.0930 H         4 LEU309      0.0000 
     52 HD11       16.0200    3.0450  -21.9540 H         4 LEU309      0.0000 
     53 HD12       17.5430    2.6400  -21.7550 H         4 LEU309      0.0000 
     54 HD13       16.8960    2.6090  -23.2050 H         4 LEU309      0.0000 
     55 HD21       14.3280    1.3410  -22.4140 H         4 LEU309      0.0000 
     56 HD22       15.1200    0.8510  -23.7010 H         4 LEU309      0.0000 
     57 HD23       14.7400   -0.1860  -22.5590 H         4 LEU309      0.0000 
     58 N          19.0960   -2.7030  -22.0770 N.am      5 PHE310      0.0000 
     59 CA         20.2780   -3.5010  -22.3610 C.3       5 PHE310      0.0000 
     60 C          19.9470   -4.9690  -22.5890 C.2       5 PHE310      0.0000 
     61 O          20.8550   -5.7630  -22.8570 O.2       5 PHE310      0.0000 
     62 CB         21.2840   -3.3650  -21.2140 C.3       5 PHE310      0.0000 
     63 CG         21.3840   -1.9690  -20.6620 C.ar      5 PHE310      0.0000 
     64 CD1        21.9800   -0.9580  -21.3970 C.ar      5 PHE310      0.0000 
     65 CD2        20.8770   -1.6680  -19.4080 C.ar      5 PHE310      0.0000 
     66 CE1        22.0690    0.3260  -20.8930 C.ar      5 PHE310      0.0000 
     67 CE2        20.9650   -0.3850  -18.8980 C.ar      5 PHE310      0.0000 
     68 CZ         21.5610    0.6120  -19.6410 C.ar      5 PHE310      0.0000 
     69 H          18.9400   -2.6020  -21.2370 H         5 PHE310      0.0000 
     70 HA         20.6980   -3.1620  -23.1670 H         5 PHE310      0.0000 
     71 HB2        21.0160   -3.9520  -20.4900 H         5 PHE310      0.0000 
     72 HB3        22.1630   -3.6200  -21.5360 H         5 PHE310      0.0000 
     73 HD1        22.3230   -1.1460  -22.2410 H         5 PHE310      0.0000 
     74 HD2        20.4740   -2.3370  -18.9030 H         5 PHE310      0.0000 
     75 HE1        22.4720    0.9970  -21.3960 H         5 PHE310      0.0000 
     76 HE2        20.6210   -0.1950  -18.0540 H         5 PHE310      0.0000 
     77 HZ         21.6210    1.4750  -19.3000 H         5 PHE310      0.0000 
     78 N          18.6740   -5.3420  -22.4960 N.am      6 MET311      0.0000 
     79 CA         18.2430   -6.7200  -22.6960 C.3       6 MET311      0.0000 
     80 C          18.6980   -7.2330  -24.0580 C.2       6 MET311      0.0000 
     81 O          19.0630   -8.3990  -24.2020 O.2       6 MET311      0.0000 
     82 CB         16.7210   -6.8200  -22.5770 C.3       6 MET311      0.0000 
     83 CG         16.1900   -8.2390  -22.4800 C.3       6 MET311      0.0000 
     84 SD         16.6010   -9.0240  -20.9110 S.3       6 MET311      0.0000 
     85 CE         15.8770  -10.6460  -21.1430 C.3       6 MET311      0.0000 
     86 HA         18.6350   -7.2750  -22.0040 H         6 MET311      0.0000 
     87 HB2        16.4400   -6.3460  -21.7780 H         6 MET311      0.0000 
     88 HB3        16.3200   -6.4090  -23.3580 H         6 MET311      0.0000 
     89 HG2        15.2240   -8.2230  -22.5630 H         6 MET311      0.0000 
     90 HG3        16.5770   -8.7710  -23.1920 H         6 MET311      0.0000 
     91 HE1        16.0340  -11.1780  -20.3480 H         6 MET311      0.0000 
     92 HE2        14.9240  -10.5470  -21.2930 H         6 MET311      0.0000 
     93 HE3        16.2910  -11.0690  -21.9120 H         6 MET311      0.0000 
@<TRIPOS>BOND
     1    1    2 1    
     2    2    3 1    
     3    2    5 1    
     4    2    6 1    
     5    3    4 2    
     6    3   10 am   
     7    5    7 1    
     8    5    8 1    
     9    5    9 1    
    10   10   11 1    
    11   11   12 1    
    12   10   19 1    
    13   11   14 1    
    14   11   20 1    
    15   12   13 2    
    16   12   32 am   
    17   14   15 1    
    18   14   21 1    
    19   14   22 1    
    20   15   16 1    
    21   15   23 1    
    22   15   24 1    
    23   16   17 1    
    24   16   25 1    
    25   16   26 1    
    26   17   18 1    
    27   17   27 1    
    28   17   28 1    
    29   32   33 1    
    30   18   29 1    
    31   18   30 1    
    32   18   31 1    
    33   33   34 1    
    34   32   36 1    
    35   33   37 1    
    36   33   38 1    
    37   34   35 2    
    38   34   39 am   
    39   39   40 1    
    40   40   41 1    
    41   39   47 1    
    42   40   43 1    
    43   40   48 1    
    44   41   42 2    
    45   41   58 am   
    46   43   44 1    
    47   43   49 1    
    48   43   50 1    
    49   44   45 1    
    50   44   46 1    
    51   44   51 1    
    52   45   52 1    
    53   45   53 1    
    54   45   54 1    
    55   46   55 1    
    56   46   56 1    
    57   46   57 1    
    58   58   59 1    
    59   59   60 1    
    60   58   69 1    
    61   59   62 1    
    62   59   70 1    
    63   60   61 2    
    64   60   78 am   
    65   62   63 1    
    66   62   71 1    
    67   62   72 1    
    68   63   64 ar   
    69   63   65 ar   
    70   64   66 ar   
    71   65   67 ar   
    72   64   73 1    
    73   66   68 ar   
    74   65   74 1    
    75   67   68 ar   
    76   66   75 1    
    77   78   79 1    
    78   67   76 1    
    79   68   77 1    
    80   79   80 1    
    81   79   82 1    
    82   79   86 1    
    83   80   81 2    
    84   82   83 1    
    85   82   87 1    
    86   82   88 1    
    87   83   84 1    
    88   83   89 1    
    89   83   90 1    
    90   84   85 1    
    91   85   91 1    
    92   85   92 1    
    93   85   93 1    
@<TRIPOS>SUBSTRUCTURE
     1 ALA306      1 RESIDUE 
     2 LYS307     10 RESIDUE 
     3 GLY308     32 RESIDUE 
     4 LEU309     39 RESIDUE 
     5 PHE310     58 RESIDUE 
     6 MET311     78 RESIDUE 
@<TRIPOS>SET

