#    Name: 6tyt_1_ALA_LYS_GLY_LEU_PHE_MET_CAVITY_N1_8
#    Modification time : Fri May 22 19:26:12 2020

@<TRIPOS>MOLECULE
6tyt_1_ALA_LYS_GLY_LEU_PHE_MET_CAVITY_N1_8
   92     0     7     0     0
SMALL
NO_CHARGES


@<TRIPOS>ATOM
      1 OG         12.9100   -6.7100  -24.0300 O.3       1 SER1        0.0000 
      2 OG         12.8200   -6.1400  -19.5700 O.3       1 SER1        0.0000 
      3 N          16.8100   -2.6700  -21.4400 N.am      2 ALA2        0.0000 
      4 N          15.3000   -2.7200  -19.9500 N.am      2 ALA2        0.0000 
      5 N          15.6600   -1.7900  -21.0700 N.am      2 ALA2        0.0000 
      6 N          16.0100   -0.8600  -22.1900 N.am      2 ALA2        0.0000 
      7 O          17.3400   -2.8300  -19.3900 O.2       2 ALA2        0.0000 
      8 N          17.7000   -1.9000  -20.5100 N.am      2 ALA2        0.0000 
      9 N          18.0500   -0.9600  -21.6300 N.am      2 ALA2        0.0000 
     10 N          16.9000   -0.0800  -21.2700 N.am      2 ALA2        0.0000 
     11 N          15.7400    0.8000  -20.9000 N.am      2 ALA2        0.0000 
     12 O          19.3900   -2.9300  -18.8300 O.2       2 ALA2        0.0000 
     13 O          19.7400   -2.0000  -19.9500 O.2       2 ALA2        0.0000 
     14 O          18.5900   -1.1200  -19.5900 O.2       2 ALA2        0.0000 
     15 N          18.9400   -0.1900  -20.7100 N.am      2 ALA2        0.0000 
     16 O          20.2700   -2.1500  -17.9000 O.2       2 ALA2        0.0000 
     17 O          20.6300   -1.2200  -19.0200 O.2       2 ALA2        0.0000 
     18 O          19.4700   -0.3400  -18.6600 O.2       2 ALA2        0.0000 
     19 OD1        18.6800   -1.6900  -24.0500 O.co2     3 ASP3        0.0000 
     20 OD1        21.8800   -2.6800  -23.8500 O.co2     3 ASP3        0.0000 
     21 OD1        22.6700   -1.3300  -18.4600 O.co2     3 ASP3        0.0000 
     22 NZ         13.2700   -5.7800  -25.1500 N.4       4 LYS4        0.0000 
     23 NZ         14.5100   -4.0700  -25.3400 N.4       4 LYS4        0.0000 
     24 CZ         15.4000   -3.3000  -24.4200 C.ar      5 PHE5        0.0000 
     25 CZ         17.7900   -2.4700  -24.9800 C.ar      5 PHE5        0.0000 
     26 CZ         16.2800   -2.5200  -23.4900 C.ar      5 PHE5        0.0000 
     27 CZ         14.0600   -4.4300  -19.7600 C.ar      5 PHE5        0.0000 
     28 CZ         14.4200   -3.5000  -20.8800 C.ar      5 PHE5        0.0000 
     29 CZ         14.7700   -2.5700  -22.0000 C.ar      5 PHE5        0.0000 
     30 CZ         15.1300   -1.6400  -23.1200 C.ar      5 PHE5        0.0000 
     31 CZ         14.3200    0.1800  -23.8800 C.ar      5 PHE5        0.0000 
     32 CZ         17.1700   -1.7400  -22.5600 C.ar      5 PHE5        0.0000 
     33 CZ         17.5200   -0.8100  -23.6800 C.ar      5 PHE5        0.0000 
     34 CZ         14.9500   -3.6500  -18.8300 C.ar      5 PHE5        0.0000 
     35 CZ         16.3700    0.0700  -23.3200 C.ar      5 PHE5        0.0000 
     36 CZ         14.8500    0.0200  -21.8300 C.ar      5 PHE5        0.0000 
     37 CZ         15.2100    0.9500  -22.9500 C.ar      5 PHE5        0.0000 
     38 CZ         15.5700    1.8900  -24.0700 C.ar      5 PHE5        0.0000 
     39 CZ         17.2500    0.8500  -22.3900 C.ar      5 PHE5        0.0000 
     40 CZ         17.6100    1.7800  -23.5100 C.ar      5 PHE5        0.0000 
     41 CZ         16.1000    1.7300  -22.0200 C.ar      5 PHE5        0.0000 
     42 CZ         16.4500    2.6600  -23.1400 C.ar      5 PHE5        0.0000 
     43 CZ         17.7800    0.7000  -20.3400 C.ar      5 PHE5        0.0000 
     44 CZ         18.1400    1.6300  -21.4600 C.ar      5 PHE5        0.0000 
     45 CZ         17.3400    3.4400  -22.2100 C.ar      5 PHE5        0.0000 
     46 CZ         19.8300    0.5900  -19.7800 C.ar      5 PHE5        0.0000 
     47 CZ         20.1800    1.5200  -20.9000 C.ar      5 PHE5        0.0000 
     48 CZ         19.3800    3.3400  -21.6500 C.ar      5 PHE5        0.0000 
     49 CZ         21.5100   -0.4400  -18.1000 C.ar      5 PHE5        0.0000 
     50 CZ         20.7100    1.3700  -18.8500 C.ar      5 PHE5        0.0000 
     51 CA         11.4000   -6.7600  -22.5400 C.3       6 GLY6        0.0000 
     52 CA         13.4400   -6.8700  -21.9800 C.3       6 GLY6        0.0000 
     53 CA         14.1600   -5.0100  -24.2200 C.3       6 GLY6        0.0000 
     54 CA         11.9300   -6.9200  -20.5000 C.3       6 GLY6        0.0000 
     55 CA         12.2900   -5.9900  -21.6200 C.3       6 GLY6        0.0000 
     56 CA         12.6400   -5.0600  -22.7400 C.3       6 GLY6        0.0000 
     57 CA         13.9800   -7.0200  -19.9300 C.3       6 GLY6        0.0000 
     58 CA         13.1700   -5.2100  -20.6900 C.3       6 GLY6        0.0000 
     59 CA         13.5300   -4.2800  -21.8100 C.3       6 GLY6        0.0000 
     60 CA         13.8800   -3.3500  -22.9300 C.3       6 GLY6        0.0000 
     61 CA         14.2400   -2.4100  -24.0500 C.3       6 GLY6        0.0000 
     62 CA         13.9700   -0.7600  -22.7600 C.3       6 GLY6        0.0000 
     63 CA         20.7200   -1.7900  -23.4900 C.3       6 GLY6        0.0000 
     64 CA         19.5700   -0.9100  -23.1200 C.3       6 GLY6        0.0000 
     65 CA         18.4100   -0.0300  -22.7500 C.3       6 GLY6        0.0000 
     66 CA         18.7700    0.9000  -23.8700 C.3       6 GLY6        0.0000 
     67 CA         21.6100   -1.0200  -22.5600 C.3       6 GLY6        0.0000 
     68 CA         20.4500   -0.1400  -22.1900 C.3       6 GLY6        0.0000 
     69 CA         19.3000    0.7500  -21.8300 C.3       6 GLY6        0.0000 
     70 CA         19.6500    1.6800  -22.9500 C.3       6 GLY6        0.0000 
     71 CA         18.4900    2.5600  -22.5800 C.3       6 GLY6        0.0000 
     72 CA         18.8500    3.4900  -23.7000 C.3       6 GLY6        0.0000 
     73 CA         23.3000   -2.0500  -20.8800 C.3       6 GLY6        0.0000 
     74 CA         21.7900   -2.1000  -19.3900 C.3       6 GLY6        0.0000 
     75 CA         22.1400   -1.1700  -20.5100 C.3       6 GLY6        0.0000 
     76 CA         22.5000   -0.2400  -21.6300 C.3       6 GLY6        0.0000 
     77 CA         21.3400    0.6400  -21.2700 C.3       6 GLY6        0.0000 
     78 CA         20.5400    2.4600  -22.0200 C.3       6 GLY6        0.0000 
     79 CA         21.8700    0.4900  -19.2200 C.3       6 GLY6        0.0000 
     80 DU         13.8000   -5.9400  -23.1000 H         7 CUB7        0.0000 
     81 DU         14.3300   -6.0900  -21.0500 H         7 CUB7        0.0000 
     82 DU         14.6900   -5.1600  -22.1800 H         7 CUB7        0.0000 
     83 DU         15.0400   -4.2300  -23.3000 H         7 CUB7        0.0000 
     84 DU         15.5700   -4.3800  -21.2500 H         7 CUB7        0.0000 
     85 DU         15.9300   -3.4500  -22.3700 H         7 CUB7        0.0000 
     86 DU         18.3300   -2.6200  -22.9300 H         7 CUB7        0.0000 
     87 DU         20.3700   -2.7300  -22.3700 H         7 CUB7        0.0000 
     88 DU         18.8600   -2.7800  -20.8800 H         7 CUB7        0.0000 
     89 DU         19.2100   -1.8400  -22.0000 H         7 CUB7        0.0000 
     90 DU         21.2500   -1.9500  -21.4400 H         7 CUB7        0.0000 
     91 DU         20.1000   -1.0700  -21.0700 H         7 CUB7        0.0000 
     92 DU         20.9800   -0.2900  -20.1500 H         7 CUB7        0.0000 
@<TRIPOS>BOND
@<TRIPOS>SUBSTRUCTURE
     1 SER1        1 GROUP   
     2 ALA2        3 GROUP   
     3 ASP3       19 GROUP   
     4 LYS4       22 GROUP   
     5 PHE5       24 GROUP   
     6 GLY6       51 GROUP   
     7 CUB7       80 GROUP   
@<TRIPOS>SET

