#    Name: 6efn_1_SAM
#    Modification time : Fri May 22 19:36:22 2020

@<TRIPOS>MOLECULE
6efn_1_SAM
   27    29     1     0     0
SMALL
NO_CHARGES


@<TRIPOS>ATOM
      1 N          26.7720   44.5590   18.6390 N.4       1 SAM501      0.0000 
      2 CA         25.8980   43.4480   18.3030 C.3       1 SAM501      0.0000 
      3 C          26.2490   42.9170   16.9260 C.2       1 SAM501      0.0000 
      4 O          26.9480   43.5670   16.1360 O.co2     1 SAM501      0.0000 
      5 OXT        25.8340   41.7990   16.6020 O.co2     1 SAM501      0.0000 
      6 CB         24.4140   43.8200   18.3780 C.3       1 SAM501      0.0000 
      7 CG         24.0320   45.1890   17.8100 C.3       1 SAM501      0.0000 
      8 SD         24.1810   45.3840   16.0150 S.3       1 SAM501      0.0000 
      9 CE         23.6520   47.1130   15.8710 C.3       1 SAM501      0.0000 
     10 C5'        22.7440   44.4270   15.4420 C.3       1 SAM501      0.0000 
     11 C4'        22.9090   43.9210   13.9970 C.3       1 SAM501      0.0000 
     12 O4'        22.8630   45.0150   13.0950 O.3       1 SAM501      0.0000 
     13 C3'        24.2070   43.1530   13.7140 C.3       1 SAM501      0.0000 
     14 O3'        23.9250   41.9350   13.0280 O.3       1 SAM501      0.0000 
     15 C2'        24.9520   44.1290   12.8120 C.3       1 SAM501      0.0000 
     16 O2'        25.9000   43.5200   11.9640 O.3       1 SAM501      0.0000 
     17 C1'        23.7860   44.7610   12.0630 C.3       1 SAM501      0.0000 
     18 N9         24.1120   46.0160   11.3820 N.pl3     1 SAM501      0.0000 
     19 C8         24.9500   46.9970   11.8320 C.2       1 SAM501      0.0000 
     20 N7         24.9710   48.0000   10.9270 N.2       1 SAM501      0.0000 
     21 C5         24.1480   47.6650    9.8980 C.ar      1 SAM501      0.0000 
     22 C6         23.7970   48.2890    8.7060 C.ar      1 SAM501      0.0000 
     23 N6         24.2770   49.4810    8.3350 N.pl3     1 SAM501      0.0000 
     24 N1         22.9090   47.6420    7.8780 N.ar      1 SAM501      0.0000 
     25 C2         22.3860   46.4120    8.1840 C.ar      1 SAM501      0.0000 
     26 N3         22.7270   45.7880    9.3600 N.ar      1 SAM501      0.0000 
     27 C4         23.6040   46.4070   10.1850 C.ar      1 SAM501      0.0000 
@<TRIPOS>BOND
     1    1    2 1    
     2    2    3 1    
     3    2    6 1    
     4    3    4 ar   
     5    3    5 ar   
     6    6    7 1    
     7    7    8 1    
     8    8    9 1    
     9    8   10 1    
    10   10   11 1    
    11   11   12 1    
    12   11   13 1    
    13   12   17 1    
    14   13   14 1    
    15   13   15 1    
    16   15   16 1    
    17   15   17 1    
    18   17   18 1    
    19   18   19 1    
    20   18   27 1    
    21   19   20 2    
    22   20   21 1    
    23   21   22 ar   
    24   21   27 ar   
    25   22   23 1    
    26   22   24 ar   
    27   24   25 ar   
    28   25   26 ar   
    29   26   27 ar   
@<TRIPOS>SUBSTRUCTURE
     1 SAM501      1 GROUP   
@<TRIPOS>SET

