#    Name: 6efn_1_SAM_CAVITY_N1_4
#    Modification time : Fri May 22 19:36:23 2020

@<TRIPOS>MOLECULE
6efn_1_SAM_CAVITY_N1_4
   96     0     6     0     0
SMALL
NO_CHARGES


@<TRIPOS>ATOM
      1 OG         22.2800   44.1600   11.2000 O.3       1 SER1        0.0000 
      2 OG         22.7900   44.6100    9.1900 O.3       1 SER1        0.0000 
      3 OG         23.7700   43.4600   12.5300 O.3       1 SER1        0.0000 
      4 OG         23.6200   44.6600   11.6400 O.3       1 SER1        0.0000 
      5 OG         23.4500   43.8000   18.1200 O.3       1 SER1        0.0000 
      6 OG         24.7500   42.3000   15.8800 O.3       1 SER1        0.0000 
      7 OG         23.3100   45.0000   17.2400 O.3       1 SER1        0.0000 
      8 OG         24.6100   43.5000   14.9900 O.3       1 SER1        0.0000 
      9 OG         23.1600   46.2000   16.3500 O.3       1 SER1        0.0000 
     10 OG         25.1100   43.9500   12.9800 O.3       1 SER1        0.0000 
     11 OG         25.6200   44.4000   10.9700 O.3       1 SER1        0.0000 
     12 OG         26.1000   42.8000   16.3300 O.3       1 SER1        0.0000 
     13 OG         25.9500   44.0000   15.4400 O.3       1 SER1        0.0000 
     14 OG         26.6000   43.2500   14.3200 O.3       1 SER1        0.0000 
     15 O          20.1400   45.6200   10.9800 O.2       2 ALA2        0.0000 
     16 N          22.6400   45.8100    8.3000 N.am      2 ALA2        0.0000 
     17 O          21.8400   47.7600    8.5400 O.2       2 ALA2        0.0000 
     18 O          22.4900   47.0100    7.4100 O.2       2 ALA2        0.0000 
     19 O          23.8400   47.5100    7.8600 O.2       2 ALA2        0.0000 
     20 N          23.0400   49.4600    8.1000 N.am      2 ALA2        0.0000 
     21 N          24.5300   48.7500    9.4300 N.am      2 ALA2        0.0000 
     22 N          25.1800   48.0000    8.3100 N.am      2 ALA2        0.0000 
     23 N          24.7900   44.3000   18.5700 N.am      2 ALA2        0.0000 
     24 N          24.6500   45.5000   17.6900 N.am      2 ALA2        0.0000 
     25 N          24.5000   46.7000   16.8000 N.am      2 ALA2        0.0000 
     26 N          24.3600   47.9000   15.9100 N.am      2 ALA2        0.0000 
     27 N          25.0100   47.1500   14.7900 N.am      2 ALA2        0.0000 
     28 N          24.8600   48.3500   13.9000 N.am      2 ALA2        0.0000 
     29 O          26.7900   44.0400   17.9000 O.2       2 ALA2        0.0000 
     30 N          25.9900   45.9900   18.1300 N.am      2 ALA2        0.0000 
     31 O          25.8500   47.1900   17.2500 O.2       2 ALA2        0.0000 
     32 N          26.5000   46.4400   16.1200 N.am      2 ALA2        0.0000 
     33 N          25.7000   48.3900   16.3600 N.am      2 ALA2        0.0000 
     34 N          26.3500   47.6400   15.2400 N.am      2 ALA2        0.0000 
     35 N          27.0000   46.8900   14.1100 N.am      2 ALA2        0.0000 
     36 O          28.1300   44.5400   18.3500 O.2       2 ALA2        0.0000 
     37 N          27.3300   46.4900   18.5800 N.am      2 ALA2        0.0000 
     38 N          27.9900   45.7400   17.4600 N.am      2 ALA2        0.0000 
     39 N          27.8400   46.9400   16.5700 N.am      2 ALA2        0.0000 
     40 N          28.4900   46.1900   15.4500 N.am      2 ALA2        0.0000 
     41 N          29.1400   45.4400   14.3300 N.am      2 ALA2        0.0000 
     42 N          29.9800   45.4800   16.7800 N.am      2 ALA2        0.0000 
     43 OD1        26.4600   44.4500   13.4300 O.co2     3 ASP3        0.0000 
     44 OD1        27.4400   43.2900   16.7700 O.co2     3 ASP3        0.0000 
     45 OD1        27.2900   44.4900   15.8900 O.co2     3 ASP3        0.0000 
     46 OD1        27.1500   45.6900   15.0000 O.co2     3 ASP3        0.0000 
     47 OD1        27.8000   44.9400   13.8800 O.co2     3 ASP3        0.0000 
     48 OD1        28.6400   44.9900   16.3400 O.co2     3 ASP3        0.0000 
     49 CZ         21.6300   44.9100   12.3200 C.ar      4 PHE5        0.0000 
     50 CZ         21.4800   46.1100   11.4300 C.ar      4 PHE5        0.0000 
     51 CZ         21.3400   47.3100   10.5500 C.ar      4 PHE5        0.0000 
     52 CZ         21.9900   46.5600    9.4200 C.ar      4 PHE5        0.0000 
     53 CZ         21.1900   48.5200    9.6600 C.ar      4 PHE5        0.0000 
     54 CZ         22.6100   43.7600   15.6700 C.ar      4 PHE5        0.0000 
     55 CZ         23.2700   43.0100   14.5400 C.ar      4 PHE5        0.0000 
     56 CZ         22.4700   44.9600   14.7800 C.ar      4 PHE5        0.0000 
     57 CZ         23.1200   44.2100   13.6600 C.ar      4 PHE5        0.0000 
     58 CZ         22.9700   45.4100   12.7700 C.ar      4 PHE5        0.0000 
     59 CZ         23.4800   45.8600   10.7600 C.ar      4 PHE5        0.0000 
     60 CZ         23.3300   47.0600    9.8700 C.ar      4 PHE5        0.0000 
     61 CZ         24.1000   43.0500   17.0000 C.ar      4 PHE5        0.0000 
     62 CZ         23.9600   44.2500   16.1100 C.ar      4 PHE5        0.0000 
     63 CZ         23.8100   45.4500   15.2300 C.ar      4 PHE5        0.0000 
     64 CZ         23.0100   47.4000   15.4600 C.ar      4 PHE5        0.0000 
     65 CZ         23.6600   46.6500   14.3400 C.ar      4 PHE5        0.0000 
     66 CZ         24.3200   45.9000   13.2200 C.ar      4 PHE5        0.0000 
     67 CZ         24.9700   45.1500   12.0900 C.ar      4 PHE5        0.0000 
     68 CZ         24.1700   47.1000   12.3300 C.ar      4 PHE5        0.0000 
     69 CZ         24.8200   46.3500   11.2100 C.ar      4 PHE5        0.0000 
     70 CZ         24.6700   47.5500   10.3200 C.ar      4 PHE5        0.0000 
     71 CZ         25.3300   46.8000    9.2000 C.ar      4 PHE5        0.0000 
     72 CZ         25.4500   43.5500   17.4500 C.ar      4 PHE5        0.0000 
     73 CZ         26.3100   45.6500   12.5400 C.ar      4 PHE5        0.0000 
     74 CZ         26.1600   46.8500   11.6500 C.ar      4 PHE5        0.0000 
     75 CZ         26.0200   48.0500   10.7700 C.ar      4 PHE5        0.0000 
     76 CZ         27.6500   46.1400   12.9900 C.ar      4 PHE5        0.0000 
     77 CA         19.3000   45.5700    8.5300 C.3       5 GLY6        0.0000 
     78 CA         19.9900   46.8200   10.1000 C.3       5 GLY6        0.0000 
     79 CA         20.6400   46.0700    8.9700 C.3       5 GLY6        0.0000 
     80 CA         19.8500   48.0200    9.2100 C.3       5 GLY6        0.0000 
     81 CA         24.1300   45.1100    9.6300 C.3       5 GLY6        0.0000 
     82 CA         23.9800   46.3100    8.7500 C.3       5 GLY6        0.0000 
     83 CA         23.1800   48.2600    8.9800 C.3       5 GLY6        0.0000 
     84 CA         25.4700   45.6000   10.0800 C.3       5 GLY6        0.0000 
     85 CA         25.5100   47.6000   12.7800 C.3       5 GLY6        0.0000 
     86 CA         28.7800   43.7900   17.2200 C.3       5 GLY6        0.0000 
     87 CA         27.1900   47.6900   17.7000 C.3       5 GLY6        0.0000 
     88 DU         19.4500   44.3700    9.4100 H         6 CUB7        0.0000 
     89 DU         20.7900   44.8700    9.8600 H         6 CUB7        0.0000 
     90 DU         22.1300   45.3600   10.3100 H         6 CUB7        0.0000 
     91 DU         24.4600   44.7000   14.1000 H         6 CUB7        0.0000 
     92 DU         25.3000   44.7500   16.5600 H         6 CUB7        0.0000 
     93 DU         25.1500   45.9500   15.6800 H         6 CUB7        0.0000 
     94 DU         25.8100   45.2000   14.5500 H         6 CUB7        0.0000 
     95 DU         25.6600   46.4000   13.6600 H         6 CUB7        0.0000 
     96 DU         26.6400   45.2400   17.0100 H         6 CUB7        0.0000 
@<TRIPOS>BOND
@<TRIPOS>SUBSTRUCTURE
     1 SER1        1 GROUP   
     2 ALA2       15 GROUP   
     3 ASP3       43 GROUP   
     4 PHE5       49 GROUP   
     5 GLY6       77 GROUP   
     6 CUB7       88 GROUP   
@<TRIPOS>SET

