#    Name: 6of2_2_AGS
#    Modification time : Fri May 22 19:36:49 2020

@<TRIPOS>MOLECULE
6of2_2_AGS
   31    33     1     0     0
SMALL
NO_CHARGES


@<TRIPOS>ATOM
      1 PG         93.3500  120.2650  109.3560 P.3       1 AGS801      0.0000 
      2 S1G        93.7580  122.0330  110.0560 S.2       1 AGS801      0.0000 
      3 O2G        94.5340  119.3420  109.4630 O.3       1 AGS801      0.0000 
      4 O3G        92.1840  119.6510  110.0800 O.3       1 AGS801      0.0000 
      5 PB         91.9240  119.1630  107.2550 P.3       1 AGS801      0.0000 
      6 O1B        92.8160  117.9850  106.9780 O.co2     1 AGS801      0.0000 
      7 O2B        90.7380  118.9960  108.1660 O.co2     1 AGS801      0.0000 
      8 O3B        92.8420  120.3440  107.8360 O.3       1 AGS801      0.0000 
      9 PA         89.9970  120.4590  105.7740 P.3       1 AGS801      0.0000 
     10 O1A        88.9800  119.4310  105.3580 O.co2     1 AGS801      0.0000 
     11 O2A        89.8130  121.2340  107.0500 O.co2     1 AGS801      0.0000 
     12 O3A        91.4230  119.7340  105.8410 O.3       1 AGS801      0.0000 
     13 O5'        90.1460  121.5320  104.5940 O.3       1 AGS801      0.0000 
     14 C5'        91.2990  122.3590  104.4930 C.3       1 AGS801      0.0000 
     15 C4'        91.0570  123.3900  103.4250 C.3       1 AGS801      0.0000 
     16 O4'        91.1100  122.7570  102.1270 O.3       1 AGS801      0.0000 
     17 C3'        89.7110  124.0950  103.5110 C.3       1 AGS801      0.0000 
     18 O3'        89.8670  125.4810  103.7390 O.3       1 AGS801      0.0000 
     19 C2'        88.9860  123.7880  102.2040 C.3       1 AGS801      0.0000 
     20 O2'        88.5040  124.9950  101.6390 O.3       1 AGS801      0.0000 
     21 C1'        90.0930  123.2610  101.2980 C.3       1 AGS801      0.0000 
     22 N9         89.6650  122.1820  100.3840 N.pl3     1 AGS801      0.0000 
     23 C8         90.3260  121.0070  100.1340 C.2       1 AGS801      0.0000 
     24 N7         89.7200  120.2270   99.2770 N.2       1 AGS801      0.0000 
     25 C5         88.5810  120.9360   98.9390 C.ar      1 AGS801      0.0000 
     26 C6         87.5220  120.6450   98.0680 C.ar      1 AGS801      0.0000 
     27 N6         87.4360  119.5230   97.3540 N.pl3     1 AGS801      0.0000 
     28 N1         86.5370  121.5540   97.9490 N.ar      1 AGS801      0.0000 
     29 C2         86.6260  122.6780   98.6640 C.ar      1 AGS801      0.0000 
     30 N3         87.5690  123.0660   99.5130 N.ar      1 AGS801      0.0000 
     31 C4         88.5290  122.1370   99.6150 C.ar      1 AGS801      0.0000 
@<TRIPOS>BOND
     1    1    2 2    
     2    1    3 1    
     3    1    4 1    
     4    1    8 1    
     5    5    6 ar   
     6    5    7 ar   
     7    5    8 1    
     8    5   12 1    
     9    9   10 ar   
    10    9   11 ar   
    11    9   12 1    
    12    9   13 1    
    13   13   14 1    
    14   14   15 1    
    15   15   16 1    
    16   15   17 1    
    17   16   21 1    
    18   17   18 1    
    19   17   19 1    
    20   19   20 1    
    21   19   21 1    
    22   21   22 1    
    23   22   23 1    
    24   22   31 1    
    25   23   24 2    
    26   24   25 1    
    27   25   26 ar   
    28   25   31 ar   
    29   26   27 1    
    30   26   28 ar   
    31   28   29 ar   
    32   29   30 ar   
    33   30   31 ar   
@<TRIPOS>SUBSTRUCTURE
     1 AGS801      1 GROUP   
@<TRIPOS>SET

