#    Name: 6of2_1_AGS
#    Modification time : Fri May 22 19:36:42 2020

@<TRIPOS>MOLECULE
6of2_1_AGS
   31    33     1     0     0
SMALL
NO_CHARGES


@<TRIPOS>ATOM
      1 PG        148.7320  121.4890  109.4080 P.3       1 AGS801      0.0000 
      2 S1G       148.3390  119.7190  110.1110 S.2       1 AGS801      0.0000 
      3 O2G       147.5400  122.4020  109.5130 O.3       1 AGS801      0.0000 
      4 O3G       149.8920  122.1150  110.1330 O.3       1 AGS801      0.0000 
      5 PB        150.1510  122.6000  107.3080 P.3       1 AGS801      0.0000 
      6 O1B       149.2490  123.7700  107.0280 O.co2     1 AGS801      0.0000 
      7 O2B       151.3350  122.7790  108.2190 O.co2     1 AGS801      0.0000 
      8 O3B       149.2420  121.4130  107.8890 O.3       1 AGS801      0.0000 
      9 PA        152.0890  121.3180  105.8300 P.3       1 AGS801      0.0000 
     10 O1A       153.0990  122.3540  105.4130 O.co2     1 AGS801      0.0000 
     11 O2A       152.2790  120.5470  107.1070 O.co2     1 AGS801      0.0000 
     12 O3A       150.6570  122.0310  105.8950 O.3       1 AGS801      0.0000 
     13 O5'       151.9510  120.2420  104.6510 O.3       1 AGS801      0.0000 
     14 C5'       150.8040  119.4050  104.5510 C.3       1 AGS801      0.0000 
     15 C4'       151.0560  118.3750  103.4850 C.3       1 AGS801      0.0000 
     16 O4'       150.9990  119.0050  102.1850 O.3       1 AGS801      0.0000 
     17 C3'       152.4070  117.6820  103.5720 C.3       1 AGS801      0.0000 
     18 O3'       152.2640  116.2950  103.8020 O.3       1 AGS801      0.0000 
     19 C2'       153.1310  117.9930  102.2660 C.3       1 AGS801      0.0000 
     20 O2'       153.6240  116.7890  101.7020 O.3       1 AGS801      0.0000 
     21 C1'       152.0210  118.5090  101.3580 C.3       1 AGS801      0.0000 
     22 N9        152.4400  119.5910  100.4430 N.pl3     1 AGS801      0.0000 
     23 C8        151.7700  120.7590  100.1910 C.2       1 AGS801      0.0000 
     24 N7        152.3700  121.5430   99.3330 N.2       1 AGS801      0.0000 
     25 C5        153.5160  120.8430   98.9970 C.ar      1 AGS801      0.0000 
     26 C6        154.5730  121.1420   98.1270 C.ar      1 AGS801      0.0000 
     27 N6        154.6510  122.2630   97.4110 N.pl3     1 AGS801      0.0000 
     28 N1        155.5660  120.2400   98.0090 N.ar      1 AGS801      0.0000 
     29 C2        155.4850  119.1170   98.7260 C.ar      1 AGS801      0.0000 
     30 N3        154.5450  118.7220   99.5750 N.ar      1 AGS801      0.0000 
     31 C4        153.5770  119.6430   99.6740 C.ar      1 AGS801      0.0000 
@<TRIPOS>BOND
     1    1    2 2    
     2    1    3 1    
     3    1    4 1    
     4    1    8 1    
     5    5    6 ar   
     6    5    7 ar   
     7    5    8 1    
     8    5   12 1    
     9    9   10 ar   
    10    9   11 ar   
    11    9   12 1    
    12    9   13 1    
    13   13   14 1    
    14   14   15 1    
    15   15   16 1    
    16   15   17 1    
    17   16   21 1    
    18   17   18 1    
    19   17   19 1    
    20   19   20 1    
    21   19   21 1    
    22   21   22 1    
    23   22   23 1    
    24   22   31 1    
    25   23   24 2    
    26   24   25 1    
    27   25   26 ar   
    28   25   31 ar   
    29   26   27 1    
    30   26   28 ar   
    31   28   29 ar   
    32   29   30 ar   
    33   30   31 ar   
@<TRIPOS>SUBSTRUCTURE
     1 AGS801      1 GROUP   
@<TRIPOS>SET

