#    Name: 6i2y_1_88Z
#    Modification time : Fri May 22 19:25:07 2020

@<TRIPOS>MOLECULE
6i2y_1_88Z
   46    51     1     0     0
SMALL
NO_CHARGES


@<TRIPOS>ATOM
      1 C1         22.7430   -8.6600   -2.6640 C.ar      1 88Z2000     0.0000 
      2 C2         22.9680   -8.7220   -4.0610 C.ar      1 88Z2000     0.0000 
      3 C3         21.9850   -9.1780   -4.8850 C.ar      1 88Z2000     0.0000 
      4 C4         20.7300   -9.5640   -4.3790 C.ar      1 88Z2000     0.0000 
      5 C5         20.5090   -9.5000   -2.9800 C.ar      1 88Z2000     0.0000 
      6 C6         21.5450   -9.0380   -2.1410 C.ar      1 88Z2000     0.0000 
      7 N7         19.7320   -9.8540   -5.2680 N.ar      1 88Z2000     0.0000 
      8 C8         18.5160  -10.0380   -4.7840 C.ar      1 88Z2000     0.0000 
      9 C9         18.1730   -9.9530   -3.4450 C.ar      1 88Z2000     0.0000 
     10 C10        19.1670   -9.6770   -2.5450 C.ar      1 88Z2000     0.0000 
     11 O11        23.8080   -8.2120   -1.9330 O.3       1 88Z2000     0.0000 
     12 C12        23.6560   -8.1540   -0.5180 C.3       1 88Z2000     0.0000 
     13 O13        24.1960   -8.2740   -4.4530 O.3       1 88Z2000     0.0000 
     14 O14        18.9290   -9.5390   -1.1750 O.3       1 88Z2000     0.0000 
     15 C15        17.6290   -9.6370   -0.6920 C.ar      1 88Z2000     0.0000 
     16 C16        16.7640   -8.5660   -0.8450 C.ar      1 88Z2000     0.0000 
     17 C17        15.4850   -8.6300   -0.3310 C.ar      1 88Z2000     0.0000 
     18 C18        15.0530   -9.7630    0.3420 C.ar      1 88Z2000     0.0000 
     19 C19        15.9200  -10.8390    0.5070 C.ar      1 88Z2000     0.0000 
     20 C20        17.1830  -10.7580   -0.0230 C.ar      1 88Z2000     0.0000 
     21 F21        18.0160  -11.8180    0.0830 F         1 88Z2000     0.0000 
     22 N22        13.7040   -9.7300    0.7720 N.am      1 88Z2000     0.0000 
     23 C23        24.4960   -8.3000   -5.8560 C.3       1 88Z2000     0.0000 
     24 C24        25.7390   -7.4800   -6.0920 C.3       1 88Z2000     0.0000 
     25 C25        26.9550   -8.0330   -5.3680 C.3       1 88Z2000     0.0000 
     26 N26        28.2040   -7.3270   -5.6830 N.4       1 88Z2000     0.0000 
     27 C27        28.3650   -6.1320   -4.8500 C.3       1 88Z2000     0.0000 
     28 C28        29.6530   -5.4310   -5.1970 C.3       1 88Z2000     0.0000 
     29 O29        30.7780   -6.2850   -5.0250 O.3       1 88Z2000     0.0000 
     30 C30        30.6320   -7.4500   -5.8290 C.3       1 88Z2000     0.0000 
     31 C31        29.3680   -8.1980   -5.4960 C.3       1 88Z2000     0.0000 
     32 C32        12.9610  -10.6670    1.4010 C.2       1 88Z2000     0.0000 
     33 C33        11.5210  -10.2410    1.5740 C.3       1 88Z2000     0.0000 
     34 C34        11.1450   -8.9610    0.8720 C.2       1 88Z2000     0.0000 
     35 N35         9.8210   -8.6900    0.7970 N.am      1 88Z2000     0.0000 
     36 O36        13.3680  -11.7520    1.7920 O.2       1 88Z2000     0.0000 
     37 O37        12.0250   -8.2390    0.4250 O.2       1 88Z2000     0.0000 
     38 C38         9.2060   -7.5160    0.2940 C.ar      1 88Z2000     0.0000 
     39 C39         9.7750   -6.7880   -0.7440 C.ar      1 88Z2000     0.0000 
     40 C40         9.1850   -5.6180   -1.1830 C.ar      1 88Z2000     0.0000 
     41 C41         8.0320   -5.2050   -0.5770 C.ar      1 88Z2000     0.0000 
     42 C42         7.4330   -5.9000    0.4370 C.ar      1 88Z2000     0.0000 
     43 C43         8.0280   -7.0680    0.8740 C.ar      1 88Z2000     0.0000 
     44 F44         7.4620   -4.0420   -0.9920 F         1 88Z2000     0.0000 
     45 C45        10.8840  -10.4290    2.9520 C.3       1 88Z2000     0.0000 
     46 C46        10.4600  -11.3110    1.8410 C.3       1 88Z2000     0.0000 
@<TRIPOS>BOND
     1    1    2 ar   
     2    1    6 ar   
     3    1   11 1    
     4    2    3 ar   
     5    2   13 1    
     6    3    4 ar   
     7    4    5 ar   
     8    4    7 ar   
     9    5    6 ar   
    10    5   10 ar   
    11    7    8 ar   
    12    8    9 ar   
    13    9   10 ar   
    14   10   14 1    
    15   11   12 1    
    16   13   23 1    
    17   14   15 1    
    18   15   16 ar   
    19   15   20 ar   
    20   16   17 ar   
    21   17   18 ar   
    22   18   19 ar   
    23   18   22 1    
    24   19   20 ar   
    25   20   21 1    
    26   22   32 am   
    27   23   24 1    
    28   24   25 1    
    29   25   26 1    
    30   26   27 1    
    31   26   31 1    
    32   27   28 1    
    33   28   29 1    
    34   29   30 1    
    35   30   31 1    
    36   32   33 1    
    37   32   36 2    
    38   33   34 1    
    39   33   45 1    
    40   33   46 1    
    41   34   35 am   
    42   34   37 2    
    43   35   38 1    
    44   38   39 ar   
    45   38   43 ar   
    46   39   40 ar   
    47   40   41 ar   
    48   41   42 ar   
    49   41   44 1    
    50   42   43 ar   
    51   45   46 1    
@<TRIPOS>SUBSTRUCTURE
     1 88Z2000     1 GROUP   
@<TRIPOS>SET

