#    Name: 6i2y_2_88Z
#    Modification time : Fri May 22 19:25:12 2020

@<TRIPOS>MOLECULE
6i2y_2_88Z
   46    51     1     0     0
SMALL
NO_CHARGES


@<TRIPOS>ATOM
      1 C1        -22.4580   -6.7450   37.7980 C.ar      1 88Z2000     0.0000 
      2 C2        -22.7020   -6.8120   39.1880 C.ar      1 88Z2000     0.0000 
      3 C3        -21.7600   -7.3270   40.0260 C.ar      1 88Z2000     0.0000 
      4 C4        -20.5180   -7.7770   39.5250 C.ar      1 88Z2000     0.0000 
      5 C5        -20.2820   -7.7240   38.1310 C.ar      1 88Z2000     0.0000 
      6 C6        -21.2790   -7.1940   37.2850 C.ar      1 88Z2000     0.0000 
      7 N7        -19.5400   -8.0950   40.4290 N.ar      1 88Z2000     0.0000 
      8 C8        -18.3230   -8.3110   39.9580 C.ar      1 88Z2000     0.0000 
      9 C9        -17.9640   -8.2370   38.6230 C.ar      1 88Z2000     0.0000 
     10 C10       -18.9410   -7.9450   37.7120 C.ar      1 88Z2000     0.0000 
     11 O11       -23.4780   -6.2140   37.0600 O.3       1 88Z2000     0.0000 
     12 C12       -23.2960   -6.1280   35.6500 C.3       1 88Z2000     0.0000 
     13 O13       -23.9170   -6.3120   39.5710 O.3       1 88Z2000     0.0000 
     14 O14       -18.6890   -7.8600   36.3420 O.3       1 88Z2000     0.0000 
     15 C15       -17.3860   -8.0050   35.8840 C.ar      1 88Z2000     0.0000 
     16 C16       -16.5260   -6.9220   35.9450 C.ar      1 88Z2000     0.0000 
     17 C17       -15.2480   -7.0240   35.4340 C.ar      1 88Z2000     0.0000 
     18 C18       -14.8120   -8.2070   34.8570 C.ar      1 88Z2000     0.0000 
     19 C19       -15.6670   -9.3040   34.8050 C.ar      1 88Z2000     0.0000 
     20 C20       -16.9320   -9.1810   35.3200 C.ar      1 88Z2000     0.0000 
     21 F21       -17.7700  -10.2430   35.2830 F         1 88Z2000     0.0000 
     22 N22       -13.4940   -8.1620   34.3410 N.am      1 88Z2000     0.0000 
     23 C23       -24.2390   -6.3440   40.9670 C.3       1 88Z2000     0.0000 
     24 C24       -25.5480   -5.6230   41.1680 C.3       1 88Z2000     0.0000 
     25 C25       -26.6830   -6.2310   40.3620 C.3       1 88Z2000     0.0000 
     26 N26       -27.9990   -5.6400   40.6410 N.4       1 88Z2000     0.0000 
     27 C27       -27.9350   -4.1750   40.6580 C.3       1 88Z2000     0.0000 
     28 C28       -29.2980   -3.6010   40.9470 C.3       1 88Z2000     0.0000 
     29 O29       -30.2580   -4.0230   39.9860 O.3       1 88Z2000     0.0000 
     30 C30       -30.3290   -5.4450   39.9610 C.3       1 88Z2000     0.0000 
     31 C31       -28.9910   -6.0610   39.6470 C.3       1 88Z2000     0.0000 
     32 C32       -12.6930   -9.1490   33.8860 C.2       1 88Z2000     0.0000 
     33 C33       -11.3250   -8.6350   33.5190 C.3       1 88Z2000     0.0000 
     34 C34       -10.9980   -7.2740   34.0750 C.2       1 88Z2000     0.0000 
     35 N35        -9.6890   -6.9690   34.2100 N.am      1 88Z2000     0.0000 
     36 O36       -13.0000  -10.3280   33.7810 O.2       1 88Z2000     0.0000 
     37 O37       -11.9070   -6.5130   34.3800 O.2       1 88Z2000     0.0000 
     38 C38        -9.1560   -5.7500   34.6940 C.ar      1 88Z2000     0.0000 
     39 C39        -9.6330   -5.1930   35.8730 C.ar      1 88Z2000     0.0000 
     40 C40        -9.1240   -3.9940   36.3370 C.ar      1 88Z2000     0.0000 
     41 C41        -8.1460   -3.3790   35.6080 C.ar      1 88Z2000     0.0000 
     42 C42        -7.6480   -3.8940   34.4430 C.ar      1 88Z2000     0.0000 
     43 C43        -8.1590   -5.0930   33.9840 C.ar      1 88Z2000     0.0000 
     44 F44        -7.6430   -2.2000   36.0620 F         1 88Z2000     0.0000 
     45 C45       -10.8260   -8.9030   32.0970 C.3       1 88Z2000     0.0000 
     46 C46       -10.2040   -9.6340   33.2250 C.3       1 88Z2000     0.0000 
@<TRIPOS>BOND
     1    1    2 ar   
     2    1    6 ar   
     3    1   11 1    
     4    2    3 ar   
     5    2   13 1    
     6    3    4 ar   
     7    4    5 ar   
     8    4    7 ar   
     9    5    6 ar   
    10    5   10 ar   
    11    7    8 ar   
    12    8    9 ar   
    13    9   10 ar   
    14   10   14 1    
    15   11   12 1    
    16   13   23 1    
    17   14   15 1    
    18   15   16 ar   
    19   15   20 ar   
    20   16   17 ar   
    21   17   18 ar   
    22   18   19 ar   
    23   18   22 1    
    24   19   20 ar   
    25   20   21 1    
    26   22   32 am   
    27   23   24 1    
    28   24   25 1    
    29   25   26 1    
    30   26   27 1    
    31   26   31 1    
    32   27   28 1    
    33   28   29 1    
    34   29   30 1    
    35   30   31 1    
    36   32   33 1    
    37   32   36 2    
    38   33   34 1    
    39   33   45 1    
    40   33   46 1    
    41   34   35 am   
    42   34   37 2    
    43   35   38 1    
    44   38   39 ar   
    45   38   43 ar   
    46   39   40 ar   
    47   40   41 ar   
    48   41   42 ar   
    49   41   44 1    
    50   42   43 ar   
    51   45   46 1    
@<TRIPOS>SUBSTRUCTURE
     1 88Z2000     1 GROUP   
@<TRIPOS>SET

