#    Name: 6o0g_6_DNA_CAVITY_N1_6
#    Modification time : Fri May 22 19:32:30 2020

@<TRIPOS>MOLECULE
6o0g_6_DNA_CAVITY_N1_6
    2     0     2     0     0
SMALL
NO_CHARGES


@<TRIPOS>ATOM
      1 N           0.8600   -1.6700  -31.3400 N.am      1 ALA2        0.0000 
      2 OD1         1.1100   -3.0100  -30.7100 O.co2     2 ASP3        0.0000 
@<TRIPOS>BOND
@<TRIPOS>SUBSTRUCTURE
     1 ALA2        1 GROUP   
     2 ASP3        2 GROUP   
@<TRIPOS>SET

