#    Name: 6o0g_2_DNA
#    Modification time : Fri May 22 19:31:09 2020

@<TRIPOS>MOLECULE
6o0g_2_DNA
   15    16     1     0     0
SMALL
NO_CHARGES


@<TRIPOS>ATOM
      1 O1A        10.2230   16.2320  -34.2710 O.co2     1 DNA601      0.0000 
      2 O1B        11.6360   14.6100  -33.9110 O.co2     1 DNA601      0.0000 
      3 O1C        11.7800   13.9410  -28.9330 O.3       1 DNA601      0.0000 
      4 O1D         9.0880   17.5490  -32.3020 O.3       1 DNA601      0.0000 
      5 C1E         9.2730   16.8710  -27.2460 C.ar      1 DNA601      0.0000 
      6 C1F         8.6020   17.7680  -28.0740 C.ar      1 DNA601      0.0000 
      7 C1G        10.1150   15.8900  -27.7660 C.ar      1 DNA601      0.0000 
      8 C1H         8.7310   17.7380  -29.4560 C.ar      1 DNA601      0.0000 
      9 C1I        11.2970   14.7410  -31.1550 C.ar      1 DNA601      0.0000 
     10 C1J        10.8570   15.4920  -33.4980 C.2       1 DNA601      0.0000 
     11 C1K        11.1430   14.8050  -29.7660 C.ar      1 DNA601      0.0000 
     12 C1L        10.6520   15.6280  -32.0230 C.ar      1 DNA601      0.0000 
     13 C1M         9.7440   16.6790  -31.4890 C.ar      1 DNA601      0.0000 
     14 C1N        10.2710   15.8250  -29.1450 C.ar      1 DNA601      0.0000 
     15 C1O         9.5540   16.7810  -30.0210 C.ar      1 DNA601      0.0000 
@<TRIPOS>BOND
     1    1   10 ar   
     2    2   10 ar   
     3    3   11 1    
     4    4   13 1    
     5    5    6 ar   
     6    5    7 ar   
     7    6    8 ar   
     8    7   14 ar   
     9    8   15 ar   
    10    9   11 ar   
    11    9   12 ar   
    12   10   12 1    
    13   11   14 ar   
    14   12   13 ar   
    15   13   15 ar   
    16   14   15 ar   
@<TRIPOS>SUBSTRUCTURE
     1 DNA601      1 GROUP   
@<TRIPOS>SET

