#    Name: 6o0g_1_DNA
#    Modification time : Fri May 22 19:30:45 2020

@<TRIPOS>MOLECULE
6o0g_1_DNA
   15    16     1     0     0
SMALL
NO_CHARGES


@<TRIPOS>ATOM
      1 O1A        -3.3290    5.5870   12.6730 O.co2     1 DNA601      0.0000 
      2 O1B        -2.1080    7.1640   13.6080 O.co2     1 DNA601      0.0000 
      3 O1C        -3.3730    6.6770    7.7600 O.3       1 DNA601      0.0000 
      4 O1D        -1.1530    9.0640   12.3010 O.3       1 DNA601      0.0000 
      5 C1E        -1.1960   10.2610    7.3120 C.ar      1 DNA601      0.0000 
      6 C1F        -0.6390   10.8690    8.4350 C.ar      1 DNA601      0.0000 
      7 C1G        -1.9210    9.0790    7.4150 C.ar      1 DNA601      0.0000 
      8 C1H        -0.7670   10.3420    9.7150 C.ar      1 DNA601      0.0000 
      9 C1I        -3.0060    6.6770   10.1280 C.ar      1 DNA601      0.0000 
     10 C1J        -2.6460    6.6250   12.6140 C.2       1 DNA601      0.0000 
     11 C1K        -2.8380    7.2530    8.8650 C.ar      1 DNA601      0.0000 
     12 C1L        -2.4620    7.2570   11.2730 C.ar      1 DNA601      0.0000 
     13 C1M        -1.6820    8.5150   11.1820 C.ar      1 DNA601      0.0000 
     14 C1N        -2.0760    8.5120    8.6760 C.ar      1 DNA601      0.0000 
     15 C1O        -1.4820    9.1650    9.8650 C.ar      1 DNA601      0.0000 
@<TRIPOS>BOND
     1    1   10 ar   
     2    2   10 ar   
     3    3   11 1    
     4    4   13 1    
     5    5    6 ar   
     6    5    7 ar   
     7    6    8 ar   
     8    7   14 ar   
     9    8   15 ar   
    10    9   11 ar   
    11    9   12 ar   
    12   10   12 1    
    13   11   14 ar   
    14   12   13 ar   
    15   13   15 ar   
    16   14   15 ar   
@<TRIPOS>SUBSTRUCTURE
     1 DNA601      1 GROUP   
@<TRIPOS>SET

