#    Name: 6o0g_5_TOG_CAVITY_N1_4
#    Modification time : Fri May 22 19:32:06 2020

@<TRIPOS>MOLECULE
6o0g_5_TOG_CAVITY_N1_4
   70     0     7     0     0
SMALL
NO_CHARGES


@<TRIPOS>ATOM
      1 OG        -21.8200  -11.9700  -15.7400 O.3       1 SER1        0.0000 
      2 OG        -20.8300  -12.2900  -16.8200 O.3       1 SER1        0.0000 
      3 OG        -20.0800  -11.2700  -18.5200 O.3       1 SER1        0.0000 
      4 O         -14.7700  -13.3100  -21.3700 O.2       2 ALA2        0.0000 
      5 N         -17.0000  -11.3300  -19.8400 N.am      2 ALA2        0.0000 
      6 O         -16.0100  -11.6500  -20.9200 O.2       2 ALA2        0.0000 
      7 N         -18.2400   -9.6600  -19.4000 N.am      2 ALA2        0.0000 
      8 N         -17.2500   -9.9900  -20.4700 N.am      2 ALA2        0.0000 
      9 O         -16.4000  -13.0900  -16.6800 O.2       2 ALA2        0.0000 
     10 O         -15.4100  -13.4100  -17.7500 O.2       2 ALA2        0.0000 
     11 N         -16.6500  -11.7500  -17.3100 N.am      2 ALA2        0.0000 
     12 N         -15.6600  -12.0700  -18.3800 N.am      2 ALA2        0.0000 
     13 N         -14.6600  -12.4000  -19.4600 N.am      2 ALA2        0.0000 
     14 O         -13.6700  -12.7200  -20.5400 O.2       2 ALA2        0.0000 
     15 N         -16.9000  -10.4100  -17.9300 N.am      2 ALA2        0.0000 
     16 O         -14.3100  -12.8200  -16.9200 O.2       2 ALA2        0.0000 
     17 O         -13.3200  -13.1400  -18.0000 O.2       2 ALA2        0.0000 
     18 N         -18.5300  -10.1900  -13.2400 N.am      2 ALA2        0.0000 
     19 N         -17.5400  -10.5100  -14.3200 N.am      2 ALA2        0.0000 
     20 N         -15.5500  -11.1600  -16.4700 N.am      2 ALA2        0.0000 
     21 N         -16.7900   -9.4900  -16.0200 N.am      2 ALA2        0.0000 
     22 N         -17.0400   -8.1600  -16.6500 N.am      2 ALA2        0.0000 
     23 N         -16.4400   -9.9200  -13.4800 N.am      2 ALA2        0.0000 
     24 O         -16.9300   -7.2400  -14.7400 O.2       2 ALA2        0.0000 
     25 OD1       -16.8600  -13.5800  -21.1300 O.co2     3 ASP3        0.0000 
     26 OD1       -15.8700  -13.9000  -22.2000 O.co2     3 ASP3        0.0000 
     27 OD1       -18.1000  -11.9200  -20.6800 O.co2     3 ASP3        0.0000 
     28 OD1       -18.3400  -10.5800  -21.3100 O.co2     3 ASP3        0.0000 
     29 NZ        -17.6800   -8.2600  -13.0400 N.4       4 LYS4        0.0000 
     30 CZ        -17.5000  -13.6800  -17.5100 C.ar      5 PHE5        0.0000 
     31 CZ        -20.7200  -11.3800  -14.9100 C.ar      5 PHE5        0.0000 
     32 CZ        -19.7300  -11.7000  -15.9800 C.ar      5 PHE5        0.0000 
     33 CZ        -18.7400  -12.0200  -17.0600 C.ar      5 PHE5        0.0000 
     34 CZ        -18.3900  -12.4400  -14.5200 C.ar      5 PHE5        0.0000 
     35 CZ        -17.3900  -12.7700  -15.6000 C.ar      5 PHE5        0.0000 
     36 CZ        -18.6300  -11.1000  -15.1500 C.ar      5 PHE5        0.0000 
     37 CA        -17.9600  -14.1800  -21.9600 C.3       6 GLY6        0.0000 
     38 CA        -17.3600  -15.9400  -18.7900 C.3       6 GLY6        0.0000 
     39 CA        -18.6000  -14.2800  -18.3400 C.3       6 GLY6        0.0000 
     40 CA        -17.6000  -14.6000  -19.4200 C.3       6 GLY6        0.0000 
     41 CA        -19.8400  -12.6100  -17.8900 C.3       6 GLY6        0.0000 
     42 CA        -18.8400  -12.9400  -18.9700 C.3       6 GLY6        0.0000 
     43 CA        -17.8500  -13.2600  -20.0500 C.3       6 GLY6        0.0000 
     44 CA        -19.0900  -11.6000  -19.6000 C.3       6 GLY6        0.0000 
     45 CA        -16.2600  -15.3400  -17.9600 C.3       6 GLY6        0.0000 
     46 CA        -15.2700  -15.6700  -19.0400 C.3       6 GLY6        0.0000 
     47 CA        -20.9700  -10.0400  -15.5300 C.3       6 GLY6        0.0000 
     48 CA        -19.9800  -10.3600  -16.6100 C.3       6 GLY6        0.0000 
     49 CA        -18.9800  -10.6800  -17.6900 C.3       6 GLY6        0.0000 
     50 CA        -19.2300   -9.3400  -18.3200 C.3       6 GLY6        0.0000 
     51 CA        -14.4200  -13.7300  -18.8300 C.3       6 GLY6        0.0000 
     52 CA        -19.6300  -10.7800  -14.0700 C.3       6 GLY6        0.0000 
     53 CA        -18.8800   -9.7700  -15.7800 C.3       6 GLY6        0.0000 
     54 CA        -17.8900  -10.0900  -16.8600 C.3       6 GLY6        0.0000 
     55 CA        -18.1300   -8.7500  -17.4800 C.3       6 GLY6        0.0000 
     56 CA        -16.3000  -12.1700  -14.7700 C.3       6 GLY6        0.0000 
     57 CA        -16.5400  -10.8300  -15.3900 C.3       6 GLY6        0.0000 
     58 CA        -17.7800   -9.1700  -14.9500 C.3       6 GLY6        0.0000 
     59 CA        -18.0300   -7.8300  -15.5700 C.3       6 GLY6        0.0000 
     60 CA        -16.6900   -8.5800  -14.1100 C.3       6 GLY6        0.0000 
     61 CA        -15.6900   -8.9000  -15.1900 C.3       6 GLY6        0.0000 
     62 CA        -15.9400   -7.5600  -15.8200 C.3       6 GLY6        0.0000 
     63 DU        -16.6100  -14.9200  -20.5000 H         7 CUB7        0.0000 
     64 DU        -16.5100  -14.0100  -18.5900 H         7 CUB7        0.0000 
     65 DU        -15.5100  -14.3300  -19.6600 H         7 CUB7        0.0000 
     66 DU        -17.7500  -12.3400  -18.1400 H         7 CUB7        0.0000 
     67 DU        -16.7500  -12.6700  -19.2200 H         7 CUB7        0.0000 
     68 DU        -15.7600  -12.9900  -20.2900 H         7 CUB7        0.0000 
     69 DU        -17.9900  -11.0000  -18.7700 H         7 CUB7        0.0000 
     70 DU        -17.6400  -11.4300  -16.2300 H         7 CUB7        0.0000 
@<TRIPOS>BOND
@<TRIPOS>SUBSTRUCTURE
     1 SER1        1 GROUP   
     2 ALA2        4 GROUP   
     3 ASP3       25 GROUP   
     4 LYS4       29 GROUP   
     5 PHE5       30 GROUP   
     6 GLY6       37 GROUP   
     7 CUB7       63 GROUP   
@<TRIPOS>SET

