#    Name: 6o0g_4_DNA_CAVITY_N1_6
#    Modification time : Fri May 22 19:31:50 2020

@<TRIPOS>MOLECULE
6o0g_4_DNA_CAVITY_N1_6
    3     0     1     0     0
SMALL
NO_CHARGES


@<TRIPOS>ATOM
      1 CA          8.4100   -8.1400   -1.5700 C.3       1 GLY6        0.0000 
      2 CA          8.8700   -7.6500    2.8800 C.3       1 GLY6        0.0000 
      3 CA         10.2200   -3.3600    0.7500 C.3       1 GLY6        0.0000 
@<TRIPOS>BOND
@<TRIPOS>SUBSTRUCTURE
     1 GLY6        1 GROUP   
@<TRIPOS>SET

