#    Name: 6o0g_1_DNA_CAVITY_N1_4
#    Modification time : Fri May 22 19:30:46 2020

@<TRIPOS>MOLECULE
6o0g_1_DNA_CAVITY_N1_4
   52     0     4     0     0
SMALL
NO_CHARGES


@<TRIPOS>ATOM
      1 N          -4.0200    6.6100    9.7100 N.am      1 ALA2        0.0000 
      2 N          -3.0300    6.2900    8.6300 N.am      1 ALA2        0.0000 
      3 N          -3.2800    7.6300    8.0000 N.am      1 ALA2        0.0000 
      4 N          -0.5900   11.1700    7.3300 N.am      1 ALA2        0.0000 
      5 N           0.4100   10.8500    6.2500 N.am      1 ALA2        0.0000 
      6 O           1.4000   10.5300    5.1800 O.2       1 ALA2        0.0000 
      7 N          -0.7300    8.3900   12.2100 N.am      1 ALA2        0.0000 
      8 O           0.0100    9.4100   10.5000 O.2       1 ALA2        0.0000 
      9 O          -1.2300   11.0700   10.9500 O.2       1 ALA2        0.0000 
     10 N          -0.2300   10.7500    9.8700 N.am      1 ALA2        0.0000 
     11 N           0.7600   10.4300    8.7900 N.am      1 ALA2        0.0000 
     12 N           1.7500   10.1000    7.7200 N.am      1 ALA2        0.0000 
     13 N          -0.4800   12.0900    9.2400 N.am      1 ALA2        0.0000 
     14 N           0.5100   11.7700    8.1700 N.am      1 ALA2        0.0000 
     15 N           1.5000   11.4400    7.0900 N.am      1 ALA2        0.0000 
     16 OD1        -2.2900    7.3100    6.9200 O.co2     2 ASP3        0.0000 
     17 OD1        -3.5300    8.9700    7.3700 O.co2     2 ASP3        0.0000 
     18 OD1        -0.5500    8.0000    4.1400 O.co2     2 ASP3        0.0000 
     19 OD1        -3.6700    6.1900   12.2500 O.co2     2 ASP3        0.0000 
     20 OD1        -2.4300    9.5600    8.2100 O.co2     2 ASP3        0.0000 
     21 OD1         0.5500    8.6000    4.9700 O.co2     2 ASP3        0.0000 
     22 OD1        -2.6800   10.9000    7.5800 O.co2     2 ASP3        0.0000 
     23 OD1        -2.5700    6.7800   13.0800 O.co2     2 ASP3        0.0000 
     24 OD1        -1.5800    6.4600   12.0000 O.co2     2 ASP3        0.0000 
     25 OD1         1.6500    9.1900    5.8100 O.co2     2 ASP3        0.0000 
     26 OD1        -1.5800   11.5000    8.4100 O.co2     2 ASP3        0.0000 
     27 OD1         2.7400    9.7800    6.6400 O.co2     2 ASP3        0.0000 
     28 CZ         -2.5300    8.6500    6.2900 C.ar      3 PHE5        0.0000 
     29 CZ         -1.5400    8.3200    5.2200 C.ar      3 PHE5        0.0000 
     30 CZ         -0.8000    9.3400    3.5100 C.ar      3 PHE5        0.0000 
     31 CA         -2.6800    5.8700   11.1700 C.3       4 GLY6        0.0000 
     32 CA         -1.6900    5.5400   10.0900 C.3       4 GLY6        0.0000 
     33 CA         -3.9200    7.5300   11.6200 C.3       4 GLY6        0.0000 
     34 CA         -2.9300    7.2100   10.5400 C.3       4 GLY6        0.0000 
     35 CA         -1.9300    6.8800    9.4600 C.3       4 GLY6        0.0000 
     36 CA         -2.1800    8.2200    8.8300 C.3       4 GLY6        0.0000 
     37 CA         -1.1900    7.9000    7.7600 C.3       4 GLY6        0.0000 
     38 CA         -1.4400    9.2400    7.1300 C.3       4 GLY6        0.0000 
     39 CA         -0.4400    8.9200    6.0500 C.3       4 GLY6        0.0000 
     40 CA         -1.6800   10.5800    6.5000 C.3       4 GLY6        0.0000 
     41 CA         -0.6900   10.2600    5.4200 C.3       4 GLY6        0.0000 
     42 CA          0.3000    9.9300    4.3400 C.3       4 GLY6        0.0000 
     43 CA         -2.8200    8.1200   12.4500 C.3       4 GLY6        0.0000 
     44 CA         -1.8300    7.8000   11.3700 C.3       4 GLY6        0.0000 
     45 CA         -2.0800    9.1400   10.7400 C.3       4 GLY6        0.0000 
     46 CA         -1.0800    8.8200    9.6700 C.3       4 GLY6        0.0000 
     47 CA         -2.3200   10.4800   10.1200 C.3       4 GLY6        0.0000 
     48 CA         -1.3300   10.1600    9.0400 C.3       4 GLY6        0.0000 
     49 CA         -0.3400    9.8300    7.9600 C.3       4 GLY6        0.0000 
     50 CA          0.6500    9.5100    6.8800 C.3       4 GLY6        0.0000 
     51 CA         -0.9800    9.7300   11.5800 C.3       4 GLY6        0.0000 
     52 CA          2.5000   11.1200    6.0100 C.3       4 GLY6        0.0000 
@<TRIPOS>BOND
@<TRIPOS>SUBSTRUCTURE
     1 ALA2        1 GROUP   
     2 ASP3       16 GROUP   
     3 PHE5       28 GROUP   
     4 GLY6       31 GROUP   
@<TRIPOS>SET

