#    Name: 6o0g_4_DNA_CAVITY_N1_8
#    Modification time : Fri May 22 19:31:50 2020

@<TRIPOS>MOLECULE
6o0g_4_DNA_CAVITY_N1_8
   47     0     6     0     0
SMALL
NO_CHARGES


@<TRIPOS>ATOM
      1 N           8.9700   -6.7300    4.7900 N.am      1 ALA2        0.0000 
      2 O           9.8200   -4.8000    5.0000 O.2       1 ALA2        0.0000 
      3 O          10.0800   -1.1100    2.0300 O.2       1 ALA2        0.0000 
      4 OD1         8.0200   -9.5800    2.6800 O.co2     2 ASP3        0.0000 
      5 OD1         7.7700   -8.2400    2.0500 O.co2     2 ASP3        0.0000 
      6 OD1         9.9700   -2.0200    0.1200 O.co2     2 ASP3        0.0000 
      7 OD1        11.0700   -1.4300    0.9600 O.co2     2 ASP3        0.0000 
      8 NZ          8.9100   -5.7900   -3.9000 N.4       3 LYS4        0.0000 
      9 NZ          8.7700   -3.5300   -2.6200 N.4       3 LYS4        0.0000 
     10 CZ          7.0300   -9.2600    3.7600 C.ar      4 PHE5        0.0000 
     11 CZ          8.1200   -8.6700    4.5900 C.ar      4 PHE5        0.0000 
     12 CA          6.5700   -9.7500   -0.6900 C.3       5 GLY6        0.0000 
     13 CA          6.3200   -8.4100   -1.3200 C.3       5 GLY6        0.0000 
     14 CA          7.3200   -8.7400   -2.4000 C.3       5 GLY6        0.0000 
     15 CA          7.0700   -7.4000   -3.0300 C.3       5 GLY6        0.0000 
     16 CA          8.0600   -7.7200   -4.1100 C.3       5 GLY6        0.0000 
     17 CA          6.6700   -8.8400    1.2200 C.3       5 GLY6        0.0000 
     18 CA          7.6700   -9.1600    0.1400 C.3       5 GLY6        0.0000 
     19 CA          6.4300   -7.5000    0.5900 C.3       5 GLY6        0.0000 
     20 CA          8.4100   -8.1400   -1.5700 C.3       5 GLY6        0.0000 
     21 CA          7.1700   -6.4800   -1.1200 C.3       5 GLY6        0.0000 
     22 CA          8.1700   -6.8000   -2.2000 C.3       5 GLY6        0.0000 
     23 CA          9.1600   -7.1300   -3.2700 C.3       5 GLY6        0.0000 
     24 CA          6.9300   -5.1400   -1.7500 C.3       5 GLY6        0.0000 
     25 CA          8.8700   -7.6500    2.8800 C.3       5 GLY6        0.0000 
     26 CA          8.6200   -6.3100    2.2500 C.3       5 GLY6        0.0000 
     27 CA          8.3800   -4.9700    1.6300 C.3       5 GLY6        0.0000 
     28 CA          8.7300   -5.3900    4.1600 C.3       5 GLY6        0.0000 
     29 CA          8.4800   -4.0600    3.5400 C.3       5 GLY6        0.0000 
     30 CA          9.4700   -4.3800    2.4600 C.3       5 GLY6        0.0000 
     31 CA          9.2300   -3.0400    1.8300 C.3       5 GLY6        0.0000 
     32 CA         10.2200   -3.3600    0.7500 C.3       5 GLY6        0.0000 
     33 CA          9.5800   -3.4600    4.3700 C.3       5 GLY6        0.0000 
     34 CA         10.3200   -2.4500    2.6600 C.3       5 GLY6        0.0000 
     35 DU          7.4200   -7.8200   -0.4900 H         6 CUB7        0.0000 
     36 DU          7.9200   -5.4600   -2.8200 H         6 CUB7        0.0000 
     37 DU          6.7800   -7.9200    3.1300 H         6 CUB7        0.0000 
     38 DU          6.5300   -6.5800    2.5000 H         6 CUB7        0.0000 
     39 DU          7.5200   -6.9000    1.4200 H         6 CUB7        0.0000 
     40 DU          7.2800   -5.5600    0.7900 H         6 CUB7        0.0000 
     41 DU          8.2700   -5.8900   -0.2800 H         6 CUB7        0.0000 
     42 DU          8.0200   -4.5500   -0.9100 H         6 CUB7        0.0000 
     43 DU          7.8800   -7.3300    3.9600 H         6 CUB7        0.0000 
     44 DU          7.6300   -5.9900    3.3300 H         6 CUB7        0.0000 
     45 DU          7.3800   -4.6500    2.7000 H         6 CUB7        0.0000 
     46 DU          8.1300   -3.6300    1.0000 H         6 CUB7        0.0000 
     47 DU          8.8700   -2.6200   -0.7100 H         6 CUB7        0.0000 
@<TRIPOS>BOND
@<TRIPOS>SUBSTRUCTURE
     1 ALA2        1 GROUP   
     2 ASP3        4 GROUP   
     3 LYS4        8 GROUP   
     4 PHE5       10 GROUP   
     5 GLY6       12 GROUP   
     6 CUB7       35 GROUP   
@<TRIPOS>SET

