#    Name: 6o0g_6_DNA_CAVITY_N1_8
#    Modification time : Fri May 22 19:32:30 2020

@<TRIPOS>MOLECULE
6o0g_6_DNA_CAVITY_N1_8
   34     0     5     0     0
SMALL
NO_CHARGES


@<TRIPOS>ATOM
      1 N           0.8600   -1.6700  -31.3400 N.am      1 ALA2        0.0000 
      2 N           1.8500   -1.9900  -32.4200 N.am      1 ALA2        0.0000 
      3 N           1.9600   -1.0800  -30.5100 N.am      1 ALA2        0.0000 
      4 N           2.9500   -1.4000  -31.5900 N.am      1 ALA2        0.0000 
      5 N           1.7100    0.2600  -31.1400 N.am      1 ALA2        0.0000 
      6 O          -1.4100    3.4900  -26.6200 O.2       1 ALA2        0.0000 
      7 O          -0.4200    3.1600  -27.7000 O.2       1 ALA2        0.0000 
      8 OD1         1.1100   -3.0100  -30.7100 O.co2     2 ASP3        0.0000 
      9 OD1         2.4500   -3.7500  -29.2500 O.co2     2 ASP3        0.0000 
     10 OD1        -0.9100    0.8100  -25.3700 O.co2     2 ASP3        0.0000 
     11 OD1        -1.1600    2.1500  -25.9900 O.co2     2 ASP3        0.0000 
     12 CZ          3.2000   -2.7400  -30.9600 C.ar      3 PHE5        0.0000 
     13 CA          3.4400   -4.0800  -30.3300 C.3       4 GLY6        0.0000 
     14 CA          0.9700   -0.7500  -29.4300 C.3       4 GLY6        0.0000 
     15 CA          0.7200    0.5900  -30.0600 C.3       4 GLY6        0.0000 
     16 CA         -0.5200    2.2500  -29.6100 C.3       4 GLY6        0.0000 
     17 CA          0.4700    1.9300  -30.6900 C.3       4 GLY6        0.0000 
     18 CA          0.0800    0.4900  -26.4400 C.3       4 GLY6        0.0000 
     19 CA          1.0700    0.1600  -27.5200 C.3       4 GLY6        0.0000 
     20 CA          2.0600   -0.1600  -28.6000 C.3       4 GLY6        0.0000 
     21 CA         -0.1700    1.8200  -27.0700 C.3       4 GLY6        0.0000 
     22 CA          0.8200    1.5000  -28.1500 C.3       4 GLY6        0.0000 
     23 CA          3.4100   -0.9100  -27.1400 C.3       4 GLY6        0.0000 
     24 DU          2.2100   -2.4200  -29.8800 H         5 CUB7        0.0000 
     25 DU          3.5500   -3.1600  -28.4200 H         5 CUB7        0.0000 
     26 DU          1.3200   -1.1800  -26.8900 H         5 CUB7        0.0000 
     27 DU          2.3100   -1.5000  -27.9700 H         5 CUB7        0.0000 
     28 DU          3.3000   -1.8200  -29.0500 H         5 CUB7        0.0000 
     29 DU          3.0600   -0.4800  -29.6800 H         5 CUB7        0.0000 
     30 DU          1.6700   -1.6000  -24.3500 H         5 CUB7        0.0000 
     31 DU          2.4200   -0.5800  -26.0600 H         5 CUB7        0.0000 
     32 DU          0.1800    1.4000  -24.5300 H         5 CUB7        0.0000 
     33 DU          1.1800    1.0800  -25.6100 H         5 CUB7        0.0000 
     34 DU          2.1700    0.7600  -26.6900 H         5 CUB7        0.0000 
@<TRIPOS>BOND
@<TRIPOS>SUBSTRUCTURE
     1 ALA2        1 GROUP   
     2 ASP3        8 GROUP   
     3 PHE5       12 GROUP   
     4 GLY6       13 GROUP   
     5 CUB7       24 GROUP   
@<TRIPOS>SET

