#    Name: 6o0g_4_DNA
#    Modification time : Fri May 22 19:31:49 2020

@<TRIPOS>MOLECULE
6o0g_4_DNA
   15    16     1     0     0
SMALL
NO_CHARGES


@<TRIPOS>ATOM
      1 O1A        18.5870   -5.5110    5.5910 O.co2     1 DNA603      0.0000 
      2 O1B        17.5920   -7.3210    6.3190 O.co2     1 DNA603      0.0000 
      3 O1C        16.7050   -4.7250    0.9540 O.3       1 DNA603      0.0000 
      4 O1D        16.1100   -8.7540    4.8060 O.3       1 DNA603      0.0000 
      5 C1E        14.1600   -7.9850    0.0900 C.ar      1 DNA603      0.0000 
      6 C1F        14.0060   -9.0040    1.0430 C.ar      1 DNA603      0.0000 
      7 C1G        14.9960   -6.9040    0.3420 C.ar      1 DNA603      0.0000 
      8 C1H        14.6620   -8.9750    2.2740 C.ar      1 DNA603      0.0000 
      9 C1I        17.2430   -5.6270    3.1230 C.ar      1 DNA603      0.0000 
     10 C1J        17.8280   -6.4890    5.4110 C.2       1 DNA603      0.0000 
     11 C1K        16.5700   -5.7010    1.8930 C.ar      1 DNA603      0.0000 
     12 C1L        17.1150   -6.6170    4.0960 C.ar      1 DNA603      0.0000 
     13 C1M        16.2340   -7.7860    3.8530 C.ar      1 DNA603      0.0000 
     14 C1N        15.6680   -6.8380    1.5600 C.ar      1 DNA603      0.0000 
     15 C1O        15.4950   -7.9050    2.5630 C.ar      1 DNA603      0.0000 
@<TRIPOS>BOND
     1    1   10 ar   
     2    2   10 ar   
     3    3   11 1    
     4    4   13 1    
     5    5    6 ar   
     6    5    7 ar   
     7    6    8 ar   
     8    7   14 ar   
     9    8   15 ar   
    10    9   11 ar   
    11    9   12 ar   
    12   10   12 1    
    13   11   14 ar   
    14   12   13 ar   
    15   13   15 ar   
    16   14   15 ar   
@<TRIPOS>SUBSTRUCTURE
     1 DNA603      1 GROUP   
@<TRIPOS>SET

