#    Name: 6o0g_3_TOG
#    Modification time : Fri May 22 19:31:25 2020

@<TRIPOS>MOLECULE
6o0g_3_TOG
   33    34     1     0     0
SMALL
NO_CHARGES


@<TRIPOS>ATOM
      1 O21        37.9830   -9.9030  -11.6420           1 TOG601      0.0000 
      2 P2         37.1720   -9.9080  -10.3780           1 TOG601      0.0000 
      3 O22        38.0140   -9.7420   -9.1450           1 TOG601      0.0000 
      4 O23        36.1240  -10.9910  -10.2920           1 TOG601      0.0000 
      5 O11        36.3330   -8.5300  -10.3690           1 TOG601      0.0000 
      6 P1         36.2680   -7.4140  -11.5270           1 TOG601      0.0000 
      7 O12        35.8280   -6.1460  -10.8530           1 TOG601      0.0000 
      8 O13        37.5240   -7.3650  -12.3480           1 TOG601      0.0000 
      9 O5G        35.1010   -7.9770  -12.4770           1 TOG601      0.0000 
     10 C5B        33.7260   -7.9150  -12.1020           1 TOG601      0.0000 
     11 C5A        32.9930   -8.9200  -12.9730           1 TOG601      0.0000 
     12 C5         31.5080   -8.8950  -12.7280           1 TOG601      0.0000 
     13 S1         31.0350   -9.4550  -11.2240           1 TOG601      0.0000 
     14 C2         29.3710   -9.1710  -11.6520           1 TOG601      0.0000 
     15 C4         30.4290   -8.5060  -13.5780           1 TOG601      0.0000 
     16 C4A        30.6350   -7.9850  -14.9740           1 TOG601      0.0000 
     17 N3         29.2220   -8.6790  -12.9130           1 TOG601      0.0000 
     18 C35        27.9110   -8.3540  -13.4880           1 TOG601      0.0000 
     19 C5'        27.6450   -6.8730  -13.3570           1 TOG601      0.0000 
     20 C6'        27.5750   -6.0820  -14.4900           1 TOG601      0.0000 
     21 N1'        27.3350   -4.7630  -14.3460           1 TOG601      0.0000 
     22 C4'        27.4540   -6.2090  -12.0380           1 TOG601      0.0000 
     23 N4'        27.5000   -6.9170  -10.8890           1 TOG601      0.0000 
     24 N3'        27.2180   -4.8710  -11.9890           1 TOG601      0.0000 
     25 C2'        27.1660   -4.1650  -13.1410           1 TOG601      0.0000 
     26 C2A        26.9150   -2.6890  -13.0850           1 TOG601      0.0000 
     27 O4         27.3630  -10.6170   -6.2060           1 TOG601      0.0000 
     28 C51        28.2220  -10.1940   -7.0160           1 TOG601      0.0000 
     29 O3         29.0800   -9.3440   -6.6930           1 TOG601      0.0000 
     30 C41        28.2390  -10.7370   -8.4350           1 TOG601      0.0000 
     31 C3         28.0590   -9.6050   -9.4430           1 TOG601      0.0000 
     32 C21        28.3540  -10.0020  -10.8810           1 TOG601      0.0000 
     33 O5         28.3990  -11.2960  -11.1850           1 TOG601      0.0000 
@<TRIPOS>BOND
     1    1    2 du   
     2    2    3 du   
     3    2    4 du   
     4    2    5 du   
     5    5    6 du   
     6    6    7 du   
     7    6    8 du   
     8    6    9 du   
     9    9   10 du   
    10   10   11 du   
    11   11   12 du   
    12   12   13 du   
    13   12   15 du   
    14   13   14 du   
    15   14   17 du   
    16   14   32 du   
    17   15   16 du   
    18   15   17 du   
    19   17   18 du   
    20   18   19 du   
    21   19   20 du   
    22   19   22 du   
    23   20   21 du   
    24   21   25 du   
    25   22   23 du   
    26   22   24 du   
    27   24   25 du   
    28   25   26 du   
    29   27   28 du   
    30   28   29 du   
    31   28   30 du   
    32   30   31 du   
    33   31   32 du   
    34   32   33 du   
@<TRIPOS>SUBSTRUCTURE
     1 TOG601      1 GROUP   
@<TRIPOS>SET

