#    Name: 6o0g_2_DNA_CAVITY_N1_4
#    Modification time : Fri May 22 19:31:10 2020

@<TRIPOS>MOLECULE
6o0g_2_DNA_CAVITY_N1_4
   48     0     6     0     0
SMALL
NO_CHARGES


@<TRIPOS>ATOM
      1 N           5.5400   16.6900  -26.2700 N.am      1 ALA2        0.0000 
      2 N           6.5300   16.3700  -27.3500 N.am      1 ALA2        0.0000 
      3 N           6.2800   17.7100  -27.9800 N.am      1 ALA2        0.0000 
      4 N           7.2700   17.3900  -29.0500 N.am      1 ALA2        0.0000 
      5 O           9.0100   18.0800  -31.8400 O.2       1 ALA2        0.0000 
      6 O           6.8800   15.9500  -24.8100 O.2       1 ALA2        0.0000 
      7 N           7.6300   16.9600  -26.5100 N.am      1 ALA2        0.0000 
      8 N           8.3700   17.9800  -28.2200 N.am      1 ALA2        0.0000 
      9 OD1         5.1800   17.1200  -28.8100 O.co2     2 ASP3        0.0000 
     10 OD1        12.4800   14.4300  -33.8100 O.co2     2 ASP3        0.0000 
     11 OD1         9.1100   13.9600  -26.3300 O.co2     2 ASP3        0.0000 
     12 OD1        10.8500   14.6600  -29.1200 O.co2     2 ASP3        0.0000 
     13 OD1        10.7100   16.9100  -27.8400 O.co2     2 ASP3        0.0000 
     14 OD1         9.4700   18.5700  -27.3900 O.co2     2 ASP3        0.0000 
     15 OD1        10.5700   19.1700  -26.5500 O.co2     2 ASP3        0.0000 
     16 OD1        10.3200   20.5100  -27.1800 O.co2     2 ASP3        0.0000 
     17 NZ          9.3300   20.8300  -26.1000 N.4       3 LYS4        0.0000 
     18 CZ          8.1200   14.2800  -25.2600 C.ar      4 PHE5        0.0000 
     19 CZ          9.2200   14.8800  -24.4200 C.ar      4 PHE5        0.0000 
     20 CZ          9.9600   15.8900  -26.1300 C.ar      4 PHE5        0.0000 
     21 CZ         10.9600   15.5700  -27.2100 C.ar      4 PHE5        0.0000 
     22 CA          5.4300   15.7800  -28.1800 C.3       5 GLY6        0.0000 
     23 CA          6.7800   15.0300  -26.7200 C.3       5 GLY6        0.0000 
     24 CA          7.5200   16.0500  -28.4200 C.3       5 GLY6        0.0000 
     25 CA          8.5100   15.7200  -29.5000 C.3       5 GLY6        0.0000 
     26 CA          9.5100   15.4000  -30.5800 C.3       5 GLY6        0.0000 
     27 CA         10.5000   15.0800  -31.6600 C.3       5 GLY6        0.0000 
     28 CA         11.4900   14.7600  -32.7300 C.3       5 GLY6        0.0000 
     29 CA          8.2700   17.0600  -30.1300 C.3       5 GLY6        0.0000 
     30 CA          9.2600   16.7400  -31.2100 C.3       5 GLY6        0.0000 
     31 CA         10.2500   16.4200  -32.2900 C.3       5 GLY6        0.0000 
     32 CA          7.8700   15.6200  -25.8900 C.3       5 GLY6        0.0000 
     33 CA          8.8700   15.3000  -26.9600 C.3       5 GLY6        0.0000 
     34 CA          9.8600   14.9800  -28.0400 C.3       5 GLY6        0.0000 
     35 CA          9.6100   16.3200  -28.6700 C.3       5 GLY6        0.0000 
     36 CA         10.6000   16.0000  -29.7500 C.3       5 GLY6        0.0000 
     37 CA         11.6000   15.6700  -30.8200 C.3       5 GLY6        0.0000 
     38 CA          9.3600   17.6600  -29.3000 C.3       5 GLY6        0.0000 
     39 CA         10.3600   17.3400  -30.3700 C.3       5 GLY6        0.0000 
     40 CA         11.3500   17.0100  -31.4500 C.3       5 GLY6        0.0000 
     41 CA          8.1200   19.3200  -28.8500 C.3       5 GLY6        0.0000 
     42 CA          9.1200   19.0000  -29.9300 C.3       5 GLY6        0.0000 
     43 CA         10.1100   18.6700  -31.0000 C.3       5 GLY6        0.0000 
     44 CA          8.9700   16.2200  -25.0500 C.3       5 GLY6        0.0000 
     45 CA          9.7200   17.2300  -26.7600 C.3       5 GLY6        0.0000 
     46 CA          9.2200   19.9100  -28.0200 C.3       5 GLY6        0.0000 
     47 CA         10.2100   19.5900  -29.0900 C.3       5 GLY6        0.0000 
     48 DU          8.6200   16.6400  -27.5900 H         6 CUB7        0.0000 
@<TRIPOS>BOND
@<TRIPOS>SUBSTRUCTURE
     1 ALA2        1 GROUP   
     2 ASP3        9 GROUP   
     3 LYS4       17 GROUP   
     4 PHE5       18 GROUP   
     5 GLY6       22 GROUP   
     6 CUB7       48 GROUP   
@<TRIPOS>SET

