#    Name: 6o0g_5_TOG
#    Modification time : Fri May 22 19:32:04 2020

@<TRIPOS>MOLECULE
6o0g_5_TOG
   33    34     1     0     0
SMALL
NO_CHARGES


@<TRIPOS>ATOM
      1 O21       -26.6060  -13.2150  -17.1540           1 TOG601      0.0000 
      2 P2        -26.1290  -12.5530  -18.4240           1 TOG601      0.0000 
      3 O22       -27.2030  -12.3040  -19.4530           1 TOG601      0.0000 
      4 O23       -24.9210  -13.2460  -19.0010           1 TOG601      0.0000 
      5 O11       -25.6650  -11.0490  -18.0180           1 TOG601      0.0000 
      6 P1        -25.6180  -10.4500  -16.5140           1 TOG601      0.0000 
      7 O12       -25.3480   -8.9740  -16.6250           1 TOG601      0.0000 
      8 O13       -26.8240  -10.8900  -15.7350           1 TOG601      0.0000 
      9 O5G       -24.3630  -11.1900  -15.8170           1 TOG601      0.0000 
     10 C5B       -23.0080  -10.8040  -16.0730           1 TOG601      0.0000 
     11 C5A       -22.0500  -11.8800  -15.5730           1 TOG601      0.0000 
     12 C5        -20.5940  -11.5750  -15.8450           1 TOG601      0.0000 
     13 S1        -20.0830  -11.5750  -17.4920           1 TOG601      0.0000 
     14 C2        -18.4710  -11.1950  -16.9400           1 TOG601      0.0000 
     15 C4        -19.5160  -11.3040  -14.9160           1 TOG601      0.0000 
     16 C4A       -19.7080  -11.2550  -13.4240           1 TOG601      0.0000 
     17 N3        -18.3390  -11.0960  -15.5840           1 TOG601      0.0000 
     18 C35       -17.0780  -10.7960  -14.9090           1 TOG601      0.0000 
     19 C5'       -17.0010   -9.3440  -14.5060           1 TOG601      0.0000 
     20 C6'       -16.9850   -9.0020  -13.1720           1 TOG601      0.0000 
     21 N1'       -16.9080   -7.7080  -12.8380           1 TOG601      0.0000 
     22 C4'       -16.9380   -8.2480  -15.5060           1 TOG601      0.0000 
     23 N4'       -16.9530   -8.5200  -16.8310           1 TOG601      0.0000 
     24 N3'       -16.8700   -6.9660  -15.0760           1 TOG601      0.0000 
     25 C2'       -16.8520   -6.7090  -13.7510           1 TOG601      0.0000 
     26 C2A       -16.7790   -5.2820  -13.2880           1 TOG601      0.0000 
     27 O4        -16.3300  -10.3520  -22.6710           1 TOG601      0.0000 
     28 C51       -17.1380  -10.3310  -21.7230           1 TOG601      0.0000 
     29 O3        -18.2340   -9.7410  -21.8140           1 TOG601      0.0000 
     30 C41       -16.7750  -11.0650  -20.4450           1 TOG601      0.0000 
     31 C3        -17.4930  -10.4730  -19.2310           1 TOG601      0.0000 
     32 C21       -17.3600  -11.3470  -17.9880           1 TOG601      0.0000 
     33 O5        -17.0730  -12.6270  -18.2360           1 TOG601      0.0000 
@<TRIPOS>BOND
     1    1    2 du   
     2    2    3 du   
     3    2    4 du   
     4    2    5 du   
     5    5    6 du   
     6    6    7 du   
     7    6    8 du   
     8    6    9 du   
     9    9   10 du   
    10   10   11 du   
    11   11   12 du   
    12   12   13 du   
    13   12   15 du   
    14   13   14 du   
    15   14   17 du   
    16   14   32 du   
    17   15   16 du   
    18   15   17 du   
    19   17   18 du   
    20   18   19 du   
    21   19   20 du   
    22   19   22 du   
    23   20   21 du   
    24   21   25 du   
    25   22   23 du   
    26   22   24 du   
    27   24   25 du   
    28   25   26 du   
    29   27   28 du   
    30   28   29 du   
    31   28   30 du   
    32   30   31 du   
    33   31   32 du   
    34   32   33 du   
@<TRIPOS>SUBSTRUCTURE
     1 TOG601      1 GROUP   
@<TRIPOS>SET

