#    Name: 6o0g_6_DNA
#    Modification time : Fri May 22 19:32:29 2020

@<TRIPOS>MOLECULE
6o0g_6_DNA
   15    16     1     0     0
SMALL
NO_CHARGES


@<TRIPOS>ATOM
      1 O1A        -7.4030   -2.2220  -33.0180 O.co2     1 DNA603      0.0000 
      2 O1B        -8.5160   -0.7400  -31.8420 O.co2     1 DNA603      0.0000 
      3 O1C        -6.9000   -1.4350  -27.0620 O.3       1 DNA603      0.0000 
      4 O1D        -5.6620   -3.6540  -32.0590 O.3       1 DNA603      0.0000 
      5 C1E        -3.7970   -4.3520  -27.3220 C.ar      1 DNA603      0.0000 
      6 C1F        -3.4730   -4.9120  -28.5670 C.ar      1 DNA603      0.0000 
      7 C1G        -4.8120   -3.3960  -27.1910 C.ar      1 DNA603      0.0000 
      8 C1H        -4.1490   -4.5480  -29.7340 C.ar      1 DNA603      0.0000 
      9 C1I        -7.2800   -1.5950  -29.4310 C.ar      1 DNA603      0.0000 
     10 C1J        -7.7040   -1.6870  -31.9250 C.2       1 DNA603      0.0000 
     11 C1K        -6.5920   -1.9820  -28.2740 C.ar      1 DNA603      0.0000 
     12 C1L        -6.9930   -2.1370  -30.6850 C.ar      1 DNA603      0.0000 
     13 C1M        -5.9250   -3.1440  -30.8340 C.ar      1 DNA603      0.0000 
     14 C1N        -5.5070   -3.0020  -28.3310 C.ar      1 DNA603      0.0000 
     15 C1O        -5.1630   -3.5990  -29.6450 C.ar      1 DNA603      0.0000 
@<TRIPOS>BOND
     1    1   10 ar   
     2    2   10 ar   
     3    3   11 1    
     4    4   13 1    
     5    5    6 ar   
     6    5    7 ar   
     7    6    8 ar   
     8    7   14 ar   
     9    8   15 ar   
    10    9   11 ar   
    11    9   12 ar   
    12   10   12 1    
    13   11   14 ar   
    14   12   13 ar   
    15   13   15 ar   
    16   14   15 ar   
@<TRIPOS>SUBSTRUCTURE
     1 DNA603      1 GROUP   
@<TRIPOS>SET

