#    Name: 6juq_1_2TM
#    Modification time : Fri May 22 19:33:16 2020

@<TRIPOS>MOLECULE
6juq_1_2TM
   29    30     1     0     0
SMALL
NO_CHARGES


@<TRIPOS>ATOM
      1 O5'        32.1350   24.7910  -45.2700           1 2TM401      0.0000 
      2 C5'        30.7240   25.0450  -45.3050           1 2TM401      0.0000 
      3 C4'        30.0610   24.7400  -43.9730           1 2TM401      0.0000 
      4 O4'        30.9040   24.0030  -43.1130           1 2TM401      0.0000 
      5 C3'        29.7530   25.9840  -43.1740           1 2TM401      0.0000 
      6 O3'        28.4470   26.3940  -43.5250           1 2TM401      0.0000 
      7 C2'        29.8840   25.5970  -41.7220           1 2TM401      0.0000 
      8 O2'        28.6160   25.2460  -41.2050           1 2TM401      0.0000 
      9 C1'        30.7430   24.3740  -41.7550           1 2TM401      0.0000 
     10 C5         34.3550   25.2610  -41.6440           1 2TM401      0.0000 
     11 C6         33.0930   24.9590  -42.1190           1 2TM401      0.0000 
     12 N1         32.0670   24.7200  -41.2540           1 2TM401      0.0000 
     13 C2         32.3030   24.7730  -39.8670           1 2TM401      0.0000 
     14 N3         33.5310   25.1260  -39.4070           1 2TM401      0.0000 
     15 C4         34.5660   25.3620  -40.2580           1 2TM401      0.0000 
     16 O3G        34.6770   29.1770  -49.2030           1 2TM401      0.0000 
     17 PG         33.2580   28.6280  -49.0990           1 2TM401      0.0000 
     18 O1G        32.9250   27.1500  -49.3580           1 2TM401      0.0000 
     19 O2G        32.3550   29.3680  -50.0530           1 2TM401      0.0000 
     20 O3B        32.7890   28.9130  -47.5820           1 2TM401      0.0000 
     21 PB         31.6950   27.9270  -46.8530           1 2TM401      0.0000 
     22 O1B        31.0430   26.9800  -47.9420           1 2TM401      0.0000 
     23 O2B        30.7310   28.6820  -45.9560           1 2TM401      0.0000 
     24 PA         33.1300   25.5770  -46.2490           1 2TM401      0.0000 
     25 O1A        32.8220   25.1970  -47.8290           1 2TM401      0.0000 
     26 O2A        34.5540   25.3690  -45.8070           1 2TM401      0.0000 
     27 N4         35.7690   25.6890  -39.7560           1 2TM401      0.0000 
     28 O2         31.4470   24.4530  -39.0620           1 2TM401      0.0000 
     29 C1         32.6640   27.0930  -45.8340           1 2TM401      0.0000 
@<TRIPOS>BOND
     1    1    2 du   
     2    1   24 du   
     3    2    3 du   
     4    3    4 du   
     5    3    5 du   
     6    4    9 du   
     7    5    6 du   
     8    5    7 du   
     9    7    8 du   
    10    7    9 du   
    11    9   12 du   
    12   10   11 du   
    13   10   15 du   
    14   11   12 du   
    15   12   13 du   
    16   13   14 du   
    17   13   28 du   
    18   14   15 du   
    19   15   27 du   
    20   16   17 du   
    21   17   18 du   
    22   17   19 du   
    23   17   20 du   
    24   20   21 du   
    25   21   22 du   
    26   21   23 du   
    27   21   29 du   
    28   24   25 du   
    29   24   26 du   
    30   24   29 du   
@<TRIPOS>SUBSTRUCTURE
     1 2TM401      1 GROUP   
@<TRIPOS>SET

