#    Name: 6juq_1_2TM_CAVITY_N1_4
#    Modification time : Fri May 22 19:33:18 2020

@<TRIPOS>MOLECULE
6juq_1_2TM_CAVITY_N1_4
   99     0     7     0     0
SMALL
NO_CHARGES


@<TRIPOS>ATOM
      1 OG         36.3200   31.6500  -51.5900 O.3       1 SER1        0.0000 
      2 OG         29.2900   20.6700  -44.4900 O.3       1 SER1        0.0000 
      3 OG         34.8000   27.2700  -44.9700 O.3       1 SER1        0.0000 
      4 OG         35.2300   29.2500  -45.6100 O.3       1 SER1        0.0000 
      5 OG         28.7400   25.5100  -40.4000 O.3       1 SER1        0.0000 
      6 N          30.8900   23.3200  -45.7700 N.am      2 ALA2        0.0000 
      7 O          30.5800   26.6000  -46.3900 O.2       2 ALA2        0.0000 
      8 O          28.0500   26.8600  -43.7400 O.2       2 ALA2        0.0000 
      9 O          28.7900   25.5600  -43.7500 O.2       2 ALA2        0.0000 
     10 N          30.2800   22.9500  -43.7700 N.am      2 ALA2        0.0000 
     11 N          29.2200   27.5400  -44.3800 N.am      2 ALA2        0.0000 
     12 N          29.9600   26.2400  -44.3900 N.am      2 ALA2        0.0000 
     13 N          31.4500   23.6300  -44.4100 N.am      2 ALA2        0.0000 
     14 N          31.1400   26.9100  -45.0300 N.am      2 ALA2        0.0000 
     15 N          31.5700   28.8900  -45.6700 N.am      2 ALA2        0.0000 
     16 N          29.3500   25.8700  -42.3900 N.am      2 ALA2        0.0000 
     17 N          30.5300   26.5500  -43.0400 N.am      2 ALA2        0.0000 
     18 N          31.2700   25.2400  -43.0500 N.am      2 ALA2        0.0000 
     19 N          31.7000   27.2200  -43.6800 N.am      2 ALA2        0.0000 
     20 N          32.4500   25.9200  -43.6900 N.am      2 ALA2        0.0000 
     21 N          32.1300   29.2000  -44.3100 N.am      2 ALA2        0.0000 
     22 N          32.8800   27.9000  -44.3200 N.am      2 ALA2        0.0000 
     23 N          29.9100   26.1800  -41.0400 N.am      2 ALA2        0.0000 
     24 N          33.4400   28.2100  -42.9700 N.am      2 ALA2        0.0000 
     25 OD1        33.5400   28.3200  -49.6700 O.co2     3 ASP3        0.0000 
     26 OD1        34.2800   27.0200  -49.6800 O.co2     3 ASP3        0.0000 
     27 OD1        31.3200   25.3000  -46.4000 O.co2     3 ASP3        0.0000 
     28 OD1        32.0700   24.0000  -46.4100 O.co2     3 ASP3        0.0000 
     29 OD1        31.7500   27.2800  -47.0300 O.co2     3 ASP3        0.0000 
     30 OD1        32.5000   25.9700  -47.0400 O.co2     3 ASP3        0.0000 
     31 OD1        32.1800   29.2600  -47.6600 O.co2     3 ASP3        0.0000 
     32 OD1        32.9300   27.9500  -47.6700 O.co2     3 ASP3        0.0000 
     33 OD1        33.6700   26.6500  -47.6800 O.co2     3 ASP3        0.0000 
     34 OD1        34.4200   25.3500  -47.6900 O.co2     3 ASP3        0.0000 
     35 OD1        34.1000   28.6300  -48.3200 O.co2     3 ASP3        0.0000 
     36 OD1        34.8500   27.3300  -48.3300 O.co2     3 ASP3        0.0000 
     37 OD1        35.2800   29.3100  -48.9600 O.co2     3 ASP3        0.0000 
     38 OD1        35.7100   31.2800  -49.5900 O.co2     3 ASP3        0.0000 
     39 OD1        36.4500   29.9800  -49.6000 O.co2     3 ASP3        0.0000 
     40 OD1        36.8800   31.9600  -50.2300 O.co2     3 ASP3        0.0000 
     41 OD1        32.7400   29.5700  -46.3100 O.co2     3 ASP3        0.0000 
     42 OD1        33.4900   28.2600  -46.3200 O.co2     3 ASP3        0.0000 
     43 OD1        34.6600   28.9400  -46.9600 O.co2     3 ASP3        0.0000 
     44 OD1        35.8400   29.6200  -47.6000 O.co2     3 ASP3        0.0000 
     45 OD1        32.5600   31.1800  -44.9400 O.co2     3 ASP3        0.0000 
     46 OD1        33.3100   29.8800  -44.9500 O.co2     3 ASP3        0.0000 
     47 OD1        34.4800   30.5500  -45.6000 O.co2     3 ASP3        0.0000 
     48 NZ         35.0300   25.7100  -49.6900 N.4       4 LYS4        0.0000 
     49 NZ         29.7200   22.6400  -45.1200 N.4       4 LYS4        0.0000 
     50 NZ         30.1500   24.6200  -45.7600 N.4       4 LYS4        0.0000 
     51 NZ         36.0200   28.0000  -48.9700 N.4       4 LYS4        0.0000 
     52 NZ         36.7700   26.7000  -48.9800 N.4       4 LYS4        0.0000 
     53 NZ         37.2000   28.6800  -49.6100 N.4       4 LYS4        0.0000 
     54 CZ         28.5400   21.9700  -44.4800 C.ar      5 PHE5        0.0000 
     55 CZ         28.9700   23.9500  -45.1100 C.ar      5 PHE5        0.0000 
     56 CZ         26.4400   24.2100  -42.4600 C.ar      5 PHE5        0.0000 
     57 CZ         28.3600   23.5800  -43.1200 C.ar      5 PHE5        0.0000 
     58 CZ         25.0800   25.1400  -40.4600 C.ar      5 PHE5        0.0000 
     59 CA         34.7100   28.9900  -50.3100 C.3       6 GLY6        0.0000 
     60 CA         35.4600   27.6900  -50.3200 C.3       6 GLY6        0.0000 
     61 CA         35.1500   30.9700  -50.9500 C.3       6 GLY6        0.0000 
     62 CA         35.8900   29.6700  -50.9600 C.3       6 GLY6        0.0000 
     63 CA         37.0600   30.3500  -51.6000 C.3       6 GLY6        0.0000 
     64 CA         29.4000   25.9200  -45.7500 C.3       6 GLY6        0.0000 
     65 CA         31.0100   28.5800  -47.0200 C.3       6 GLY6        0.0000 
     66 CA         25.2700   23.5300  -41.8200 C.3       6 GLY6        0.0000 
     67 CA         25.7000   25.5100  -42.4600 C.3       6 GLY6        0.0000 
     68 CA         27.9300   21.6000  -42.4800 C.3       6 GLY6        0.0000 
     69 CA         27.6100   24.8800  -43.1100 C.3       6 GLY6        0.0000 
     70 CA         32.6300   24.3100  -45.0500 C.3       6 GLY6        0.0000 
     71 CA         33.8000   24.9800  -45.7000 C.3       6 GLY6        0.0000 
     72 CA         26.2600   25.8200  -41.1000 C.3       6 GLY6        0.0000 
     73 CA         28.1800   25.1900  -41.7500 C.3       6 GLY6        0.0000 
     74 CA         28.6100   27.1700  -42.3800 C.3       6 GLY6        0.0000 
     75 CA         34.0500   28.5800  -44.9600 C.3       6 GLY6        0.0000 
     76 CA         26.0800   27.4300  -39.7300 C.3       6 GLY6        0.0000 
     77 CA         26.8200   26.1300  -39.7400 C.3       6 GLY6        0.0000 
     78 CA         27.9900   26.8100  -40.3900 C.3       6 GLY6        0.0000 
     79 CA         34.1800   26.9100  -42.9700 C.3       6 GLY6        0.0000 
     80 CA         27.3800   26.4400  -38.3900 C.3       6 GLY6        0.0000 
     81 DU         35.5900   26.0200  -48.3400 H         7 CUB7        0.0000 
     82 DU         27.1800   22.9000  -42.4700 H         7 CUB7        0.0000 
     83 DU         29.1000   22.2800  -43.1300 H         7 CUB7        0.0000 
     84 DU         29.5300   24.2600  -43.7600 H         7 CUB7        0.0000 
     85 DU         30.7100   24.9300  -44.4000 H         7 CUB7        0.0000 
     86 DU         31.8800   25.6100  -45.0400 H         7 CUB7        0.0000 
     87 DU         32.3100   27.5900  -45.6800 H         7 CUB7        0.0000 
     88 DU         33.0600   26.2900  -45.6900 H         7 CUB7        0.0000 
     89 DU         34.2300   26.9600  -46.3300 H         7 CUB7        0.0000 
     90 DU         35.4100   27.6400  -46.9700 H         7 CUB7        0.0000 
     91 DU         36.5800   28.3100  -47.6100 H         7 CUB7        0.0000 
     92 DU         25.8300   23.8400  -40.4700 H         7 CUB7        0.0000 
     93 DU         26.5700   22.5400  -40.4800 H         7 CUB7        0.0000 
     94 DU         27.0000   24.5200  -41.1100 H         7 CUB7        0.0000 
     95 DU         30.1000   24.5700  -42.4000 H         7 CUB7        0.0000 
     96 DU         33.6200   26.6000  -44.3300 H         7 CUB7        0.0000 
     97 DU         25.6400   25.4600  -39.1000 H         7 CUB7        0.0000 
     98 DU         26.3900   24.1500  -39.1100 H         7 CUB7        0.0000 
     99 DU         27.5600   24.8300  -39.7500 H         7 CUB7        0.0000 
@<TRIPOS>BOND
@<TRIPOS>SUBSTRUCTURE
     1 SER1        1 GROUP   
     2 ALA2        6 GROUP   
     3 ASP3       25 GROUP   
     4 LYS4       48 GROUP   
     5 PHE5       54 GROUP   
     6 GLY6       59 GROUP   
     7 CUB7       81 GROUP   
@<TRIPOS>SET

