#    Name: 6juq_2_2TM_CAVITY_N1_6
#    Modification time : Fri May 22 19:33:22 2020

@<TRIPOS>MOLECULE
6juq_2_2TM_CAVITY_N1_6
   77     0     7     0     0
SMALL
NO_CHARGES


@<TRIPOS>ATOM
      1 OG         10.8700   23.5700    8.9500 O.3       1 SER1        0.0000 
      2 OG         12.1800   22.5800   10.3000 O.3       1 SER1        0.0000 
      3 OG         12.9200   21.2700   10.2900 O.3       1 SER1        0.0000 
      4 OG         15.5300   19.2900   12.9800 O.3       1 SER1        0.0000 
      5 OG         16.7100   19.9700   12.3400 O.3       1 SER1        0.0000 
      6 OG         16.0900   19.6000   14.3400 O.3       1 SER1        0.0000 
      7 OG         16.8400   18.3000   14.3300 O.3       1 SER1        0.0000 
      8 O           9.0800   22.5300   11.5900 O.2       2 ALA2        0.0000 
      9 N          11.3100   18.6200   11.5700 N.am      2 ALA2        0.0000 
     10 O          10.3900   21.5400   12.9400 O.2       2 ALA2        0.0000 
     11 N          12.6200   17.6300   12.9100 N.am      2 ALA2        0.0000 
     12 N          14.1100   15.0200   12.8900 N.am      2 ALA2        0.0000 
     13 N          13.8000   18.3100   12.2700 N.am      2 ALA2        0.0000 
     14 N          14.5400   17.0000   12.2600 N.am      2 ALA2        0.0000 
     15 N          14.2300   20.2800   11.6400 N.am      2 ALA2        0.0000 
     16 N          13.9300   16.6400   14.2600 N.am      2 ALA2        0.0000 
     17 N          16.2800   17.9900   12.9700 N.am      2 ALA2        0.0000 
     18 O          13.0000   19.5500   15.6300 O.2       2 ALA2        0.0000 
     19 O          13.4300   21.5300   15.0000 O.2       2 ALA2        0.0000 
     20 OD1         6.0400   22.5300    9.5300 O.co2     3 ASP3        0.0000 
     21 OD1         7.2100   23.2100    8.8900 O.co2     3 ASP3        0.0000 
     22 OD1         8.3900   23.8800    8.2500 O.co2     3 ASP3        0.0000 
     23 OD1         7.7800   23.5200   10.2500 O.co2     3 ASP3        0.0000 
     24 OD1         8.5200   22.2200   10.2400 O.co2     3 ASP3        0.0000 
     25 OD1         9.2600   20.9100   10.2300 O.co2     3 ASP3        0.0000 
     26 OD1        10.0100   19.6100   10.2200 O.co2     3 ASP3        0.0000 
     27 OD1         9.6900   22.8900    9.6000 O.co2     3 ASP3        0.0000 
     28 OD1         9.8300   21.2200   11.5800 O.co2     3 ASP3        0.0000 
     29 OD1        10.5700   19.9200   11.5700 O.co2     3 ASP3        0.0000 
     30 OD1        10.2600   23.2000   10.9500 O.co2     3 ASP3        0.0000 
     31 OD1        11.4300   23.8800   10.3100 O.co2     3 ASP3        0.0000 
     32 NZ         11.1300   20.2300   12.9300 N.4       4 LYS4        0.0000 
     33 NZ         11.8800   18.9300   12.9200 N.4       4 LYS4        0.0000 
     34 CZ         12.0100   17.2600   14.9100 C.ar      5 PHE5        0.0000 
     35 CZ         13.1800   17.9400   14.2700 C.ar      5 PHE5        0.0000 
     36 CZ         13.7400   18.2500   15.6200 C.ar      5 PHE5        0.0000 
     37 CZ         14.3100   18.5600   16.9800 C.ar      5 PHE5        0.0000 
     38 CZ         16.2300   17.9400   16.3300 C.ar      5 PHE5        0.0000 
     39 CZ         16.9700   16.6300   16.3200 C.ar      5 PHE5        0.0000 
     40 CZ         17.5300   16.9500   17.6700 C.ar      5 PHE5        0.0000 
     41 CZ         17.9600   18.9200   17.0400 C.ar      5 PHE5        0.0000 
     42 CA          5.9100   24.2000    7.5500 C.3       6 GLY6        0.0000 
     43 CA          6.6500   22.9000    7.5400 C.3       6 GLY6        0.0000 
     44 CA         12.4900   19.3000   10.9200 C.3       6 GLY6        0.0000 
     45 CA         10.8200   23.5100   12.3100 C.3       6 GLY6        0.0000 
     46 CA         11.5600   22.2100   12.3000 C.3       6 GLY6        0.0000 
     47 CA         12.3100   20.9100   12.2900 C.3       6 GLY6        0.0000 
     48 CA         13.4800   21.5900   11.6500 C.3       6 GLY6        0.0000 
     49 CA         14.9700   18.9800   11.6300 C.3       6 GLY6        0.0000 
     50 CA         12.7500   15.9600   14.9000 C.3       6 GLY6        0.0000 
     51 CA         11.6900   20.5400   14.2900 C.3       6 GLY6        0.0000 
     52 CA         12.4400   19.2400   14.2800 C.3       6 GLY6        0.0000 
     53 CA         14.6700   15.3400   14.2500 C.3       6 GLY6        0.0000 
     54 CA         12.1200   22.5200   13.6500 C.3       6 GLY6        0.0000 
     55 CA         12.8700   21.2200   13.6400 C.3       6 GLY6        0.0000 
     56 CA         15.8500   16.0100   13.6100 C.3       6 GLY6        0.0000 
     57 CA         14.7900   20.6000   12.9900 C.3       6 GLY6        0.0000 
     58 CA         14.4900   16.9500   15.6100 C.3       6 GLY6        0.0000 
     59 CA         15.2300   15.6500   15.6000 C.3       6 GLY6        0.0000 
     60 CA         14.1800   20.2300   14.9900 C.3       6 GLY6        0.0000 
     61 CA         14.9200   18.9300   14.9800 C.3       6 GLY6        0.0000 
     62 CA         16.4100   16.3200   14.9600 C.3       6 GLY6        0.0000 
     63 CA         15.3500   20.9100   14.3500 C.3       6 GLY6        0.0000 
     64 CA         15.0500   17.2600   16.9700 C.3       6 GLY6        0.0000 
     65 CA         15.8000   15.9600   16.9600 C.3       6 GLY6        0.0000 
     66 CA         15.4800   19.2400   16.3400 C.3       6 GLY6        0.0000 
     67 CA         16.6600   19.9200   15.6900 C.3       6 GLY6        0.0000 
     68 DU         10.4400   21.5900    9.5900 H         7 CUB7        0.0000 
     69 DU         11.0000   21.9000   10.9400 H         7 CUB7        0.0000 
     70 DU         11.7500   20.6000   10.9300 H         7 CUB7        0.0000 
     71 DU         13.0500   19.6100   12.2800 H         7 CUB7        0.0000 
     72 DU         13.6100   19.9200   13.6300 H         7 CUB7        0.0000 
     73 DU         14.3600   18.6200   13.6200 H         7 CUB7        0.0000 
     74 DU         15.1000   17.3100   13.6100 H         7 CUB7        0.0000 
     75 DU         15.6600   17.6300   14.9700 H         7 CUB7        0.0000 
     76 DU         17.4000   18.6100   15.6800 H         7 CUB7        0.0000 
     77 DU         18.1400   17.3100   15.6700 H         7 CUB7        0.0000 
@<TRIPOS>BOND
@<TRIPOS>SUBSTRUCTURE
     1 SER1        1 GROUP   
     2 ALA2        8 GROUP   
     3 ASP3       20 GROUP   
     4 LYS4       32 GROUP   
     5 PHE5       34 GROUP   
     6 GLY6       42 GROUP   
     7 CUB7       68 GROUP   
@<TRIPOS>SET

