#    Name: 6juq_2_2TM
#    Modification time : Fri May 22 19:33:21 2020

@<TRIPOS>MOLECULE
6juq_2_2TM
   29    30     1     0     0
SMALL
NO_CHARGES


@<TRIPOS>ATOM
      1 O5'        11.4280   18.7650   11.3730           1 2TM401      0.0000 
      2 C5'        11.6310   19.0960   12.7560           1 2TM401      0.0000 
      3 C4'        13.1130   19.0200   13.0610           1 2TM401      0.0000 
      4 O4'        13.8730   18.4810   11.9810           1 2TM401      0.0000 
      5 C3'        13.7690   20.3500   13.3530           1 2TM401      0.0000 
      6 O3'        13.4910   20.7180   14.7180           1 2TM401      0.0000 
      7 C2'        15.2510   20.0490   13.0570           1 2TM401      0.0000 
      8 O2'        15.9760   19.5920   14.1600           1 2TM401      0.0000 
      9 C1'        15.2190   18.8980   12.0800           1 2TM401      0.0000 
     10 C5         15.0170   19.6710    8.4170           1 2TM401      0.0000 
     11 C6         14.6740   19.3910    9.7330           1 2TM401      0.0000 
     12 N1         15.6120   19.2590   10.7170           1 2TM401      0.0000 
     13 C2         16.9610   19.1610   10.3800           1 2TM401      0.0000 
     14 N3         17.3600   19.3270    9.0760           1 2TM401      0.0000 
     15 C4         16.3960   19.6280    8.0760           1 2TM401      0.0000 
     16 O3G         7.1100   23.4790    9.5650           1 2TM401      0.0000 
     17 PG          7.5150   22.8160   10.8700           1 2TM401      0.0000 
     18 O1G         7.2080   21.2980   10.7280           1 2TM401      0.0000 
     19 O2G         6.8470   23.3940   12.0800           1 2TM401      0.0000 
     20 O3B         9.1110   22.9620   11.1240           1 2TM401      0.0000 
     21 PB         10.0180   21.9290   11.9580           1 2TM401      0.0000 
     22 O1B         9.2780   20.9330   12.8280           1 2TM401      0.0000 
     23 O2B        11.0430   22.6160   12.7910           1 2TM401      0.0000 
     24 PA         10.5280   19.6060   10.3420           1 2TM401      0.0000 
     25 O1A         9.0750   19.3080   10.6200           1 2TM401      0.0000 
     26 O2A        10.9460   19.2900    8.9250           1 2TM401      0.0000 
     27 N4         16.7460   19.8670    6.7540           1 2TM401      0.0000 
     28 O2         17.7310   18.9020   11.2880           1 2TM401      0.0000 
     29 C1         10.7550   21.1850   10.7320           1 2TM401      0.0000 
@<TRIPOS>BOND
     1    1    2 du   
     2    1   24 du   
     3    2    3 du   
     4    3    4 du   
     5    3    5 du   
     6    4    9 du   
     7    5    6 du   
     8    5    7 du   
     9    7    8 du   
    10    7    9 du   
    11    9   12 du   
    12   10   11 du   
    13   10   15 du   
    14   11   12 du   
    15   12   13 du   
    16   13   14 du   
    17   13   28 du   
    18   14   15 du   
    19   15   27 du   
    20   16   17 du   
    21   17   18 du   
    22   17   19 du   
    23   17   20 du   
    24   20   21 du   
    25   21   22 du   
    26   21   23 du   
    27   21   29 du   
    28   24   25 du   
    29   24   26 du   
    30   24   29 du   
@<TRIPOS>SUBSTRUCTURE
     1 2TM401      1 GROUP   
@<TRIPOS>SET

