#    Name: 6kzo_1_Y01
#    Modification time : Fri May 22 19:30:43 2020

@<TRIPOS>MOLECULE
6kzo_1_Y01
   35    38     1     0     0
SMALL
NO_CHARGES


@<TRIPOS>ATOM
      1 CAA       191.0460  178.9020  181.8940 C.3       1 Y012321     0.0000 
      2 CBA       189.8230  179.7860  182.1890 C.3       1 Y012321     0.0000 
      3 CAB       190.2940  181.2010  182.5300 C.3       1 Y012321     0.0000 
      4 CAN       189.0450  179.2010  183.3910 C.3       1 Y012321     0.0000 
      5 CAJ       190.0350  178.4800  184.3610 C.3       1 Y012321     0.0000 
      6 CAO       191.1490  179.4840  184.7830 C.3       1 Y012321     0.0000 
      7 CBB       191.8860  178.9620  186.0940 C.3       1 Y012321     0.0000 
      8 CAC       190.9720  177.9580  186.8370 C.3       1 Y012321     0.0000 
      9 CBE       193.1050  178.3230  185.7210 C.3       1 Y012321     0.0000 
     10 CAP       193.8690  179.2000  184.6870 C.3       1 Y012321     0.0000 
     11 CAQ       195.5370  178.8700  184.9810 C.3       1 Y012321     0.0000 
     12 CBG       195.5640  178.0920  186.4300 C.3       1 Y012321     0.0000 
     13 CBI       194.1190  178.2150  187.0130 C.3       1 Y012321     0.0000 
     14 CAE       194.0840  179.5870  187.6720 C.3       1 Y012321     0.0000 
     15 CAU       193.9130  177.3010  188.0700 C.3       1 Y012321     0.0000 
     16 CAS       195.0010  177.5850  189.2820 C.3       1 Y012321     0.0000 
     17 CBF       196.4330  177.5700  188.7620 C.3       1 Y012321     0.0000 
     18 CBD       196.6120  178.4050  187.4970 C.3       1 Y012321     0.0000 
     19 CAK       198.1020  178.2160  186.8650 C.3       1 Y012321     0.0000 
     20 CAI       199.1990  178.4960  187.8820 C.2       1 Y012321     0.0000 
     21 CAZ       198.8980  178.0900  189.4950 C.2       1 Y012321     0.0000 
     22 CAV       199.8060  178.7060  190.5780 C.3       1 Y012321     0.0000 
     23 CBH       197.4900  178.1000  189.9410 C.3       1 Y012321     0.0000 
     24 CAD       197.1220  179.5510  190.2650 C.3       1 Y012321     0.0000 
     25 CAT       197.3330  177.2880  191.2380 C.3       1 Y012321     0.0000 
     26 CAR       198.1660  177.9250  192.3590 C.3       1 Y012321     0.0000 
     27 CBC       199.6010  178.1450  191.9840 C.3       1 Y012321     0.0000 
     28 OAW       200.1730  179.1190  192.8760 O.3       1 Y012321     0.0000 
     29 CAY       200.5880  178.5990  194.1240 C.2       1 Y012321     0.0000 
     30 OAG       199.9620  177.7290  194.6270 O.2       1 Y012321     0.0000 
     31 CAM       201.8430  179.1650  194.8220 C.3       1 Y012321     0.0000 
     32 CAL       201.9350  178.6000  196.2500 C.3       1 Y012321     0.0000 
     33 CAX       201.0910  179.4720  197.1920 C.2       1 Y012321     0.0000 
     34 OAH       200.3250  180.3480  196.7150 O.co2     1 Y012321     0.0000 
     35 OAF       201.1600  179.3060  198.4360 O.co2     1 Y012321     0.0000 
@<TRIPOS>BOND
     1    1    2 1    
     2    2    3 1    
     3    2    4 1    
     4    4    5 1    
     5    5    6 1    
     6    6    7 1    
     7    7    8 1    
     8    7    9 1    
     9    9   10 1    
    10    9   13 1    
    11   10   11 1    
    12   11   12 1    
    13   12   13 1    
    14   12   18 1    
    15   13   14 1    
    16   13   15 1    
    17   15   16 1    
    18   16   17 1    
    19   17   18 1    
    20   17   23 1    
    21   18   19 1    
    22   19   20 1    
    23   20   21 2    
    24   21   22 1    
    25   21   23 1    
    26   22   27 1    
    27   23   24 1    
    28   23   25 1    
    29   25   26 1    
    30   26   27 1    
    31   27   28 1    
    32   28   29 1    
    33   29   30 2    
    34   29   31 1    
    35   31   32 1    
    36   32   33 1    
    37   33   34 ar   
    38   33   35 ar   
@<TRIPOS>SUBSTRUCTURE
     1 Y012321     1 GROUP   
@<TRIPOS>SET

