#    Name: 6crg_1_5OD
#    Modification time : Fri May 22 19:25:55 2020

@<TRIPOS>MOLECULE
6crg_1_5OD
   23    25     1     0     0
SMALL
NO_CHARGES


@<TRIPOS>ATOM
      1 C1         61.6210   40.1280   59.4370           1 5OD601      0.0000 
      2 C3         63.0140   41.2860   57.9680           1 5OD601      0.0000 
      3 C11        66.5620   42.7010   56.8380           1 5OD601      0.0000 
      4 C12        67.8250   42.3900   57.6880           1 5OD601      0.0000 
      5 C13        67.6810   41.2160   58.6910           1 5OD601      0.0000 
      6 C14        66.6320   40.1320   58.3540           1 5OD601      0.0000 
      7 C15        59.8880   40.2440   61.3100           1 5OD601      0.0000 
      8 C16        58.5370   40.1470   61.7590           1 5OD601      0.0000 
      9 C17        57.5200   39.7880   60.8440           1 5OD601      0.0000 
     10 C18        57.8490   39.5400   59.4880           1 5OD601      0.0000 
     11 C19        59.1940   39.6460   59.0500           1 5OD601      0.0000 
     12 C23        69.0420   42.1750   56.7750           1 5OD601      0.0000 
     13 N2         61.7780   41.1010   58.5000           1 5OD601      0.0000 
     14 C4         64.1440   40.4990   58.3470           1 5OD601      0.0000 
     15 N5         63.9820   39.5170   59.2840           1 5OD601      0.0000 
     16 C6         62.7510   39.3340   59.8220           1 5OD601      0.0000 
     17 N7         62.6820   38.3170   60.7650           1 5OD601      0.0000 
     18 C8         60.2360   39.9970   59.9500           1 5OD601      0.0000 
     19 N9         65.4230   40.7100   57.7580           1 5OD601      0.0000 
     20 C10        65.6120   41.5170   56.5430           1 5OD601      0.0000 
     21 CL1        61.1230   40.6870   62.4260           1 5OD601      0.0000 
     22 CL2        58.0910   40.4700   63.4040           1 5OD601      0.0000 
     23 N22        68.1650   43.5630   58.4650           1 5OD601      0.0000 
@<TRIPOS>BOND
     1    1   13 du   
     2    1   16 du   
     3    1   18 du   
     4    2   13 du   
     5    2   14 du   
     6    3    4 du   
     7    3   20 du   
     8    4    5 du   
     9    4   12 du   
    10    4   23 du   
    11    5    6 du   
    12    6   19 du   
    13    7    8 du   
    14    7   18 du   
    15    7   21 du   
    16    8    9 du   
    17    8   22 du   
    18    9   10 du   
    19   10   11 du   
    20   11   18 du   
    21   14   15 du   
    22   14   19 du   
    23   15   16 du   
    24   16   17 du   
    25   19   20 du   
@<TRIPOS>SUBSTRUCTURE
     1 5OD601      1 GROUP   
@<TRIPOS>SET

