#    Name: 6crg_2_5OD
#    Modification time : Fri May 22 19:26:04 2020

@<TRIPOS>MOLECULE
6crg_2_5OD
   23    25     1     0     0
SMALL
NO_CHARGES


@<TRIPOS>ATOM
      1 C1         61.2070  -24.2220   83.0280           1 5OD601      0.0000 
      2 C3         60.1340  -25.5250   81.4160           1 5OD601      0.0000 
      3 C11        56.7790  -26.9460   79.6430           1 5OD601      0.0000 
      4 C12        55.3820  -26.4430   80.1010           1 5OD601      0.0000 
      5 C13        55.4450  -25.2770   81.1180           1 5OD601      0.0000 
      6 C14        56.5720  -24.2480   80.8950           1 5OD601      0.0000 
      7 C15        62.3800  -24.3460   85.2530           1 5OD601      0.0000 
      8 C16        63.5720  -24.2600   86.0210           1 5OD601      0.0000 
      9 C17        64.8000  -23.9100   85.4130           1 5OD601      0.0000 
     10 C18        64.8450  -23.6470   84.0260           1 5OD601      0.0000 
     11 C19        63.6560  -23.7340   83.2620           1 5OD601      0.0000 
     12 C23        54.5030  -26.0870   78.8920           1 5OD601      0.0000 
     13 N2         61.2280  -25.2990   82.1910           1 5OD601      0.0000 
     14 C4         58.9720  -24.6930   81.4690           1 5OD601      0.0000 
     15 N5         58.9520  -23.6330   82.3420           1 5OD601      0.0000 
     16 C6         60.0400  -23.4090   83.1200           1 5OD601      0.0000 
     17 N7         59.9540  -22.3270   83.9810           1 5OD601      0.0000 
     18 C8         62.4120  -24.0740   83.8600           1 5OD601      0.0000 
     19 N9         57.8430  -24.9340   80.6300           1 5OD601      0.0000 
     20 C10        57.8760  -25.8680   79.4900           1 5OD601      0.0000 
     21 CL1        60.8810  -24.7630   86.0230           1 5OD601      0.0000 
     22 CL2        63.5460  -24.5960   87.7130           1 5OD601      0.0000 
     23 N22        54.6480  -27.5140   80.7390           1 5OD601      0.0000 
@<TRIPOS>BOND
     1    1   13 du   
     2    1   16 du   
     3    1   18 du   
     4    2   13 du   
     5    2   14 du   
     6    3    4 du   
     7    3   20 du   
     8    4    5 du   
     9    4   12 du   
    10    4   23 du   
    11    5    6 du   
    12    6   19 du   
    13    7    8 du   
    14    7   18 du   
    15    7   21 du   
    16    8    9 du   
    17    8   22 du   
    18    9   10 du   
    19   10   11 du   
    20   11   18 du   
    21   14   15 du   
    22   14   19 du   
    23   15   16 du   
    24   16   17 du   
    25   19   20 du   
@<TRIPOS>SUBSTRUCTURE
     1 5OD601      1 GROUP   
@<TRIPOS>SET

