#    Name: 5wnl_1_STU
#    Modification time : Fri May 22 19:16:12 2020

@<TRIPOS>MOLECULE
5wnl_1_STU
   35    42     1     0     0
SMALL
NO_CHARGES


@<TRIPOS>ATOM
      1 O4        -13.5130   -3.2920  -17.5150 O.3       1 STU401      0.0000 
      2 C25       -12.1790   -3.2050  -18.0470 C.3       1 STU401      0.0000 
      3 C24       -11.4460   -1.8950  -17.7540 C.3       1 STU401      0.0000 
      4 C23       -12.3380   -0.9670  -16.9370 C.3       1 STU401      0.0000 
      5 C22       -13.6760   -0.8310  -17.6490 C.3       1 STU401      0.0000 
      6 C21       -14.4170   -2.1840  -17.5930 C.3       1 STU401      0.0000 
      7 C26       -15.2500   -2.2920  -16.3100 C.3       1 STU401      0.0000 
      8 N2        -15.2230   -2.3140  -18.8510 N.pl3     1 STU401      0.0000 
      9 C18       -14.6820   -2.8280  -20.0000 C.ar      1 STU401      0.0000 
     10 C19       -13.3370   -3.4080  -20.2990 C.ar      1 STU401      0.0000 
     11 C6        -13.0360   -3.9080  -21.6410 C.ar      1 STU401      0.0000 
     12 C7        -14.1040   -3.8190  -22.6590 C.ar      1 STU401      0.0000 
     13 C10       -15.4220   -3.2520  -22.4130 C.ar      1 STU401      0.0000 
     14 C11       -15.7070   -2.7450  -21.0480 C.ar      1 STU401      0.0000 
     15 C12       -16.8680   -2.1290  -20.4300 C.ar      1 STU401      0.0000 
     16 C17       -16.5220   -1.8410  -19.0050 C.ar      1 STU401      0.0000 
     17 C16       -17.5310   -1.2400  -18.2460 C.ar      1 STU401      0.0000 
     18 C15       -18.7730   -0.9450  -18.8350 C.ar      1 STU401      0.0000 
     19 C14       -19.0580   -1.2340  -20.1820 C.ar      1 STU401      0.0000 
     20 C13       -18.0960   -1.8320  -20.9940 C.ar      1 STU401      0.0000 
     21 C9        -16.2370   -3.2880  -23.6010 C.3       1 STU401      0.0000 
     22 N1        -15.3380   -3.9040  -24.6140 N.am      1 STU401      0.0000 
     23 C8        -14.1350   -4.2070  -24.0810 C.2       1 STU401      0.0000 
     24 O5        -13.1660   -4.7480  -24.7300 O.2       1 STU401      0.0000 
     25 C5        -11.6740   -4.3890  -21.5820 C.ar      1 STU401      0.0000 
     26 C20       -11.2270   -4.1480  -20.1880 C.ar      1 STU401      0.0000 
     27 C1         -9.9260   -4.5340  -19.8720 C.ar      1 STU401      0.0000 
     28 C2         -9.1120   -5.1250  -20.8500 C.ar      1 STU401      0.0000 
     29 C3         -9.5700   -5.3390  -22.1640 C.ar      1 STU401      0.0000 
     30 C4        -10.8630   -4.9760  -22.5420 C.ar      1 STU401      0.0000 
     31 N3        -12.2560   -3.5470  -19.4840 N.pl3     1 STU401      0.0000 
     32 O6        -13.4050   -0.4210  -19.0020 O.3       1 STU401      0.0000 
     33 C27       -14.3000    0.5220  -19.6090 C.3       1 STU401      0.0000 
     34 N4        -11.7110    0.3180  -16.7300 N.4       1 STU401      0.0000 
     35 C28       -10.4920    0.4340  -15.9530 C.3       1 STU401      0.0000 
@<TRIPOS>BOND
     1    1    2 1    
     2    1    6 1    
     3    2    3 1    
     4    2   31 1    
     5    3    4 1    
     6    4    5 1    
     7    4   34 1    
     8    5    6 1    
     9    5   32 1    
    10    6    7 1    
    11    6    8 1    
    12    8    9 1    
    13    8   16 1    
    14    9   10 ar   
    15    9   14 ar   
    16   10   11 ar   
    17   10   31 1    
    18   11   12 ar   
    19   11   25 1    
    20   12   13 ar   
    21   12   23 1    
    22   13   14 ar   
    23   13   21 1    
    24   14   15 1    
    25   15   16 ar   
    26   15   20 ar   
    27   16   17 ar   
    28   17   18 ar   
    29   18   19 ar   
    30   19   20 ar   
    31   21   22 1    
    32   22   23 am   
    33   23   24 2    
    34   25   26 ar   
    35   25   30 ar   
    36   26   27 ar   
    37   26   31 1    
    38   27   28 ar   
    39   28   29 ar   
    40   29   30 ar   
    41   32   33 1    
    42   34   35 1    
@<TRIPOS>SUBSTRUCTURE
     1 STU401      1 GROUP   
@<TRIPOS>SET

