#    Name: 6l1q_2_ADP
#    Modification time : Fri May 22 19:31:56 2020

@<TRIPOS>MOLECULE
6l1q_2_ADP
   27    29     1     0     1
SMALL
NO_CHARGES


@<TRIPOS>ATOM
      1 PB         18.9550   71.4060    1.0290 P.3       1 ADP301      0.0000 
      2 O1B        20.0890   71.3430    0.0320 O.co2     1 ADP301      0.0000 
      3 O2B        19.3220   71.9670    2.3870 O.co2     1 ADP301      0.0000 
      4 O3B        17.6850   71.9640    0.4490 O.co2     1 ADP301      0.0000 
      5 PA         18.9670   69.1310    2.6970 P.3       1 ADP301      0.0000 
      6 O1A        20.4050   69.4360    3.0280 O.co2     1 ADP301      0.0000 
      7 O2A        17.8770   69.4570    3.6910 O.co2     1 ADP301      0.0000 
      8 O3A        18.5680   69.8680    1.3240 O.3       1 ADP301      0.0000 
      9 O5'        18.8430   67.5580    2.3520 O.3       1 ADP301      0.0000 
     10 C5'        18.1960   67.0860    1.1740 C.3       1 ADP301      0.0000 
     11 C4'        18.1840   65.5590    1.1760 C.3       1 ADP301      0.0000 
     12 O4'        19.0600   65.0980    0.1510 O.3       1 ADP301      0.0000 
     13 C3'        18.6790   64.9750    2.4890 C.3       1 ADP301      0.0000 
     14 O3'        17.8950   63.8240    2.8310 O.3       1 ADP301      0.0000 
     15 C2'        20.0910   64.5240    2.2050 C.3       1 ADP301      0.0000 
     16 O2'        20.3290   63.2660    2.8350 O.3       1 ADP301      0.0000 
     17 C1'        20.1470   64.3550    0.6980 C.3       1 ADP301      0.0000 
     18 N9         21.4120   64.8850    0.1320 N.pl3     1 ADP301      0.0000 
     19 C8         21.5010   65.7530   -0.8930 C.2       1 ADP301      0.0000 
     20 N7         22.7940   66.0290   -1.1930 N.2       1 ADP301      0.0000 
     21 C5         23.5600   65.3170   -0.3450 C.ar      1 ADP301      0.0000 
     22 C6         25.0110   65.1450   -0.1070 C.ar      1 ADP301      0.0000 
     23 N6         25.9230   65.8050   -0.8560 N.pl3     1 ADP301      0.0000 
     24 N1         25.3950   64.3070    0.8790 N.ar      1 ADP301      0.0000 
     25 C2         24.5000   63.6420    1.6330 C.ar      1 ADP301      0.0000 
     26 N3         23.1680   63.7540    1.4770 N.ar      1 ADP301      0.0000 
     27 C4         22.6450   64.5590    0.5220 C.ar      1 ADP301      0.0000 
@<TRIPOS>BOND
     1    1    2 ar   
     2    1    3 ar   
     3    1    4 ar   
     4    1    8 1    
     5    5    6 ar   
     6    5    7 ar   
     7    5    8 1    
     8    5    9 1    
     9    9   10 1    
    10   10   11 1    
    11   11   12 1    
    12   11   13 1    
    13   12   17 1    
    14   13   14 1    
    15   13   15 1    
    16   15   16 1    
    17   15   17 1    
    18   17   18 1    
    19   18   19 1    
    20   18   27 1    
    21   19   20 2    
    22   20   21 1    
    23   21   22 ar   
    24   21   27 ar   
    25   22   23 1    
    26   22   24 ar   
    27   24   25 ar   
    28   25   26 ar   
    29   26   27 ar   
@<TRIPOS>SUBSTRUCTURE
     1 ADP301      1 GROUP   
@<TRIPOS>SET
ATOM$ORANGE STATIC     ATOMS   COLORGROUP SYSTEM 
20 10 10 11 11 13 13 15 15 17 17 19 19 21 21 22 22 25 \
25 27 27 

