#    Name: 6uxi_1_PLG_CAVITY_N1_8
#    Modification time : Fri May 22 19:25:38 2020

@<TRIPOS>MOLECULE
6uxi_1_PLG_CAVITY_N1_8
   42     0     6     0     0
SMALL
NO_CHARGES


@<TRIPOS>ATOM
      1 N          -8.9600   -2.2200   27.0100 N.am      1 ALA2        0.0000 
      2 N          -8.1400   -1.6100   25.9000 N.am      1 ALA2        0.0000 
      3 O          -4.7300   -5.7500   30.1900 O.2       1 ALA2        0.0000 
      4 O          -5.8400   -4.7800   29.9200 O.2       1 ALA2        0.0000 
      5 O          -5.0300   -4.1700   28.8100 O.2       1 ALA2        0.0000 
      6 N          -6.9500   -3.8100   29.6400 N.am      1 ALA2        0.0000 
      7 N          -6.1400   -3.2000   28.5400 N.am      1 ALA2        0.0000 
      8 N          -8.0500   -2.8300   29.3600 N.am      1 ALA2        0.0000 
      9 N          -7.2400   -2.2200   28.2600 N.am      1 ALA2        0.0000 
     10 N          -8.3500   -1.2500   27.9800 N.am      1 ALA2        0.0000 
     11 N          -7.5400   -0.6400   26.8800 N.am      1 ALA2        0.0000 
     12 N          -3.3100   -4.1800   30.0600 N.am      1 ALA2        0.0000 
     13 N          -2.5000   -3.5700   28.9600 N.am      1 ALA2        0.0000 
     14 N          -4.4200   -3.2000   29.7900 N.am      1 ALA2        0.0000 
     15 N          -3.6100   -2.5900   28.6800 N.am      1 ALA2        0.0000 
     16 N          -5.5300   -2.2300   29.5100 N.am      1 ALA2        0.0000 
     17 N          -4.7200   -1.6200   28.4100 N.am      1 ALA2        0.0000 
     18 N          -5.8300   -0.6500   28.1300 N.am      1 ALA2        0.0000 
     19 N          -7.7500   -0.2800   28.9600 N.am      1 ALA2        0.0000 
     20 N          -6.9400    0.3300   27.8500 N.am      1 ALA2        0.0000 
     21 OD1        -7.5500   -4.7700   28.6600 O.co2     2 ASP3        0.0000 
     22 NZ         -6.4400   -5.7400   28.9400 N.4       3 LYS4        0.0000 
     23 NZ         -5.6300   -5.1300   27.8400 N.4       3 LYS4        0.0000 
     24 CZ         -4.5200   -6.1100   28.1100 C.ar      4 PHE5        0.0000 
     25 CZ         -4.8200   -4.5200   26.7300 C.ar      4 PHE5        0.0000 
     26 CZ         -3.9200   -5.1400   29.0900 C.ar      4 PHE5        0.0000 
     27 CZ         -3.1100   -4.5300   27.9800 C.ar      4 PHE5        0.0000 
     28 CZ         -4.2200   -3.5600   27.7100 C.ar      4 PHE5        0.0000 
     29 CZ         -3.4100   -2.9500   26.6000 C.ar      4 PHE5        0.0000 
     30 CA         -5.7200   -3.9100   24.3700 C.3       5 GLY6        0.0000 
     31 CA         -8.6600   -3.8000   28.3900 C.3       5 GLY6        0.0000 
     32 CA         -6.2300   -1.9700   25.0700 C.3       5 GLY6        0.0000 
     33 CA         -5.6200   -1.0000   26.0500 C.3       5 GLY6        0.0000 
     34 CA         -9.1600   -1.8600   29.0900 C.3       5 GLY6        0.0000 
     35 DU         -6.7400   -4.1600   27.5600 H         6 CUB7        0.0000 
     36 DU         -5.9300   -3.5500   26.4500 H         6 CUB7        0.0000 
     37 DU         -5.1200   -2.9400   25.3500 H         6 CUB7        0.0000 
     38 DU         -7.8500   -3.1900   27.2800 H         6 CUB7        0.0000 
     39 DU         -7.0400   -2.5800   26.1800 H         6 CUB7        0.0000 
     40 DU         -5.3200   -2.5900   27.4300 H         6 CUB7        0.0000 
     41 DU         -4.5100   -1.9800   26.3200 H         6 CUB7        0.0000 
     42 DU         -6.4300   -1.6100   27.1500 H         6 CUB7        0.0000 
@<TRIPOS>BOND
@<TRIPOS>SUBSTRUCTURE
     1 ALA2        1 GROUP   
     2 ASP3       21 GROUP   
     3 LYS4       22 GROUP   
     4 PHE5       24 GROUP   
     5 GLY6       30 GROUP   
     6 CUB7       35 GROUP   
@<TRIPOS>SET

