#    Name: 6uxi_1_PLG_CAVITY_N1_6
#    Modification time : Fri May 22 19:25:38 2020

@<TRIPOS>MOLECULE
6uxi_1_PLG_CAVITY_N1_6
   19     0     6     0     0
SMALL
NO_CHARGES


@<TRIPOS>ATOM
      1 N          -8.9600   -2.2200   27.0100 N.am      1 ALA2        0.0000 
      2 O          -4.7300   -5.7500   30.1900 O.2       1 ALA2        0.0000 
      3 O          -5.8400   -4.7800   29.9200 O.2       1 ALA2        0.0000 
      4 O          -5.0300   -4.1700   28.8100 O.2       1 ALA2        0.0000 
      5 N          -6.9500   -3.8100   29.6400 N.am      1 ALA2        0.0000 
      6 N          -6.1400   -3.2000   28.5400 N.am      1 ALA2        0.0000 
      7 N          -8.0500   -2.8300   29.3600 N.am      1 ALA2        0.0000 
      8 N          -7.2400   -2.2200   28.2600 N.am      1 ALA2        0.0000 
      9 N          -8.3500   -1.2500   27.9800 N.am      1 ALA2        0.0000 
     10 OD1        -7.5500   -4.7700   28.6600 O.co2     2 ASP3        0.0000 
     11 NZ         -6.4400   -5.7400   28.9400 N.4       3 LYS4        0.0000 
     12 NZ         -5.6300   -5.1300   27.8400 N.4       3 LYS4        0.0000 
     13 CZ         -4.5200   -6.1100   28.1100 C.ar      4 PHE5        0.0000 
     14 CZ         -3.9200   -5.1400   29.0900 C.ar      4 PHE5        0.0000 
     15 CA         -8.6600   -3.8000   28.3900 C.3       5 GLY6        0.0000 
     16 CA         -9.1600   -1.8600   29.0900 C.3       5 GLY6        0.0000 
     17 DU         -6.7400   -4.1600   27.5600 H         6 CUB7        0.0000 
     18 DU         -7.8500   -3.1900   27.2800 H         6 CUB7        0.0000 
     19 DU         -7.0400   -2.5800   26.1800 H         6 CUB7        0.0000 
@<TRIPOS>BOND
@<TRIPOS>SUBSTRUCTURE
     1 ALA2        1 GROUP   
     2 ASP3       10 GROUP   
     3 LYS4       11 GROUP   
     4 PHE5       13 GROUP   
     5 GLY6       15 GROUP   
     6 CUB7       17 GROUP   
@<TRIPOS>SET

