#    Name: 6uxi_2_PLG_CAVITY_N1_8
#    Modification time : Fri May 22 19:25:46 2020

@<TRIPOS>MOLECULE
6uxi_2_PLG_CAVITY_N1_8
   43     0     6     0     0
SMALL
NO_CHARGES


@<TRIPOS>ATOM
      1 N         -24.1700  -29.2500    0.9300 N.am      1 ALA2        0.0000 
      2 N         -22.4600  -29.2600    2.1800 N.am      1 ALA2        0.0000 
      3 N         -20.8400  -28.0400   -0.0300 N.am      1 ALA2        0.0000 
      4 N         -25.1900  -29.5100    4.1200 N.am      1 ALA2        0.0000 
      5 N         -24.3800  -28.9000    3.0100 N.am      1 ALA2        0.0000 
      6 N         -23.5700  -28.2900    1.9100 N.am      1 ALA2        0.0000 
      7 N         -22.7600  -27.6800    0.8000 N.am      1 ALA2        0.0000 
      8 N         -21.9500  -27.0700   -0.3000 N.am      1 ALA2        0.0000 
      9 N         -26.3000  -28.5300    3.8400 N.am      1 ALA2        0.0000 
     10 N         -25.4900  -27.9200    2.7400 N.am      1 ALA2        0.0000 
     11 N         -19.9400  -28.6600    2.3300 N.am      1 ALA2        0.0000 
     12 O         -22.6700  -28.9000    4.2600 O.2       1 ALA2        0.0000 
     13 N         -21.8600  -28.2900    3.1600 N.am      1 ALA2        0.0000 
     14 N         -21.0400  -27.6900    2.0500 N.am      1 ALA2        0.0000 
     15 N         -20.2300  -27.0800    0.9500 N.am      1 ALA2        0.0000 
     16 N         -19.6300  -26.1100    1.9300 N.am      1 ALA2        0.0000 
     17 OD1       -21.5600  -29.8800    4.5400 O.co2     2 ASP3        0.0000 
     18 OD1       -20.7500  -29.2700    3.4400 O.co2     2 ASP3        0.0000 
     19 OD1       -20.9500  -28.9100    5.5200 O.co2     2 ASP3        0.0000 
     20 OD1       -20.1400  -28.3000    4.4100 O.co2     2 ASP3        0.0000 
     21 NZ        -21.7600  -29.5200    6.6200 N.4       3 LYS4        0.0000 
     22 NZ        -22.0600  -27.9400    5.2400 N.4       3 LYS4        0.0000 
     23 NZ        -23.1700  -26.9700    4.9600 N.4       3 LYS4        0.0000 
     24 CZ        -23.4800  -29.5100    5.3700 C.ar      4 PHE5        0.0000 
     25 CZ        -24.5800  -28.5400    5.0900 C.ar      4 PHE5        0.0000 
     26 CZ        -24.8800  -26.9600    3.7100 C.ar      4 PHE5        0.0000 
     27 CZ        -24.0700  -26.3500    2.6100 C.ar      4 PHE5        0.0000 
     28 CZ        -22.8700  -28.5500    6.3500 C.ar      4 PHE5        0.0000 
     29 CZ        -23.9800  -27.5800    6.0700 C.ar      4 PHE5        0.0000 
     30 CZ        -23.4700  -25.3800    3.5800 C.ar      4 PHE5        0.0000 
     31 CA        -21.3400  -26.1000    0.6700 C.3       5 GLY6        0.0000 
     32 CA        -20.5300  -25.4900   -0.4300 C.3       5 GLY6        0.0000 
     33 CA        -25.6900  -27.5700    4.8200 C.3       5 GLY6        0.0000 
     34 CA        -19.3300  -27.6900    3.3100 C.3       5 GLY6        0.0000 
     35 CA        -21.8500  -24.1600    1.3700 C.3       5 GLY6        0.0000 
     36 DU        -23.7700  -27.9300    3.9900 H         6 CUB7        0.0000 
     37 DU        -22.9600  -27.3200    2.8800 H         6 CUB7        0.0000 
     38 DU        -22.1500  -26.7100    1.7800 H         6 CUB7        0.0000 
     39 DU        -23.2600  -25.7400    1.5000 H         6 CUB7        0.0000 
     40 DU        -20.4400  -26.7200    3.0300 H         6 CUB7        0.0000 
     41 DU        -22.3600  -26.3600    3.8600 H         6 CUB7        0.0000 
     42 DU        -21.5500  -25.7500    2.7500 H         6 CUB7        0.0000 
     43 DU        -22.6600  -24.7700    2.4800 H         6 CUB7        0.0000 
@<TRIPOS>BOND
@<TRIPOS>SUBSTRUCTURE
     1 ALA2        1 GROUP   
     2 ASP3       17 GROUP   
     3 LYS4       21 GROUP   
     4 PHE5       24 GROUP   
     5 GLY6       31 GROUP   
     6 CUB7       36 GROUP   
@<TRIPOS>SET

