#    Name: 6uxi_1_PLG_CAVITY_N1_4
#    Modification time : Fri May 22 19:25:38 2020

@<TRIPOS>MOLECULE
6uxi_1_PLG_CAVITY_N1_4
    3     0     3     0     0
SMALL
NO_CHARGES


@<TRIPOS>ATOM
      1 OD1        -7.5500   -4.7700   28.6600 O.co2     1 ASP3        0.0000 
      2 NZ         -6.4400   -5.7400   28.9400 N.4       2 LYS4        0.0000 
      3 CA         -8.6600   -3.8000   28.3900 C.3       3 GLY6        0.0000 
@<TRIPOS>BOND
@<TRIPOS>SUBSTRUCTURE
     1 ASP3        1 GROUP   
     2 LYS4        2 GROUP   
     3 GLY6        3 GROUP   
@<TRIPOS>SET

