#    Name: 6uxi_2_PLG_CAVITY_N1_6
#    Modification time : Fri May 22 19:25:46 2020

@<TRIPOS>MOLECULE
6uxi_2_PLG_CAVITY_N1_6
   23     0     6     0     0
SMALL
NO_CHARGES


@<TRIPOS>ATOM
      1 N         -22.4600  -29.2600    2.1800 N.am      1 ALA2        0.0000 
      2 N         -19.9400  -28.6600    2.3300 N.am      1 ALA2        0.0000 
      3 O         -22.6700  -28.9000    4.2600 O.2       1 ALA2        0.0000 
      4 N         -21.8600  -28.2900    3.1600 N.am      1 ALA2        0.0000 
      5 N         -21.0400  -27.6900    2.0500 N.am      1 ALA2        0.0000 
      6 N         -20.2300  -27.0800    0.9500 N.am      1 ALA2        0.0000 
      7 N         -19.6300  -26.1100    1.9300 N.am      1 ALA2        0.0000 
      8 OD1       -21.5600  -29.8800    4.5400 O.co2     2 ASP3        0.0000 
      9 OD1       -20.7500  -29.2700    3.4400 O.co2     2 ASP3        0.0000 
     10 OD1       -20.9500  -28.9100    5.5200 O.co2     2 ASP3        0.0000 
     11 OD1       -20.1400  -28.3000    4.4100 O.co2     2 ASP3        0.0000 
     12 NZ        -21.7600  -29.5200    6.6200 N.4       3 LYS4        0.0000 
     13 NZ        -22.0600  -27.9400    5.2400 N.4       3 LYS4        0.0000 
     14 NZ        -23.1700  -26.9700    4.9600 N.4       3 LYS4        0.0000 
     15 CZ        -23.4800  -29.5100    5.3700 C.ar      4 PHE5        0.0000 
     16 CZ        -24.5800  -28.5400    5.0900 C.ar      4 PHE5        0.0000 
     17 CZ        -22.8700  -28.5500    6.3500 C.ar      4 PHE5        0.0000 
     18 CZ        -23.9800  -27.5800    6.0700 C.ar      4 PHE5        0.0000 
     19 CA        -19.3300  -27.6900    3.3100 C.3       5 GLY6        0.0000 
     20 DU        -23.7700  -27.9300    3.9900 H         6 CUB7        0.0000 
     21 DU        -20.4400  -26.7200    3.0300 H         6 CUB7        0.0000 
     22 DU        -22.3600  -26.3600    3.8600 H         6 CUB7        0.0000 
     23 DU        -21.5500  -25.7500    2.7500 H         6 CUB7        0.0000 
@<TRIPOS>BOND
@<TRIPOS>SUBSTRUCTURE
     1 ALA2        1 GROUP   
     2 ASP3        8 GROUP   
     3 LYS4       12 GROUP   
     4 PHE5       15 GROUP   
     5 GLY6       19 GROUP   
     6 CUB7       20 GROUP   
@<TRIPOS>SET

