#    Name: 6uxi_1_PLG_CAVITY_N1_12
#    Modification time : Fri May 22 19:25:38 2020

@<TRIPOS>MOLECULE
6uxi_1_PLG_CAVITY_N1_12
   81     0     6     0     0
SMALL
NO_CHARGES


@<TRIPOS>ATOM
      1 N          -8.9600   -2.2200   27.0100 N.am      1 ALA2        0.0000 
      2 N          -8.1400   -1.6100   25.9000 N.am      1 ALA2        0.0000 
      3 O          -4.7300   -5.7500   30.1900 O.2       1 ALA2        0.0000 
      4 O          -5.8400   -4.7800   29.9200 O.2       1 ALA2        0.0000 
      5 O          -5.0300   -4.1700   28.8100 O.2       1 ALA2        0.0000 
      6 N          -6.9500   -3.8100   29.6400 N.am      1 ALA2        0.0000 
      7 N          -6.1400   -3.2000   28.5400 N.am      1 ALA2        0.0000 
      8 N          -8.0500   -2.8300   29.3600 N.am      1 ALA2        0.0000 
      9 N          -7.2400   -2.2200   28.2600 N.am      1 ALA2        0.0000 
     10 N          -8.3500   -1.2500   27.9800 N.am      1 ALA2        0.0000 
     11 N          -7.5400   -0.6400   26.8800 N.am      1 ALA2        0.0000 
     12 N          -1.4000   -4.5400   29.2300 N.am      1 ALA2        0.0000 
     13 N          -0.5900   -3.9300   28.1300 N.am      1 ALA2        0.0000 
     14 N          -3.3100   -4.1800   30.0600 N.am      1 ALA2        0.0000 
     15 N          -2.5000   -3.5700   28.9600 N.am      1 ALA2        0.0000 
     16 N          -4.4200   -3.2000   29.7900 N.am      1 ALA2        0.0000 
     17 N          -3.6100   -2.5900   28.6800 N.am      1 ALA2        0.0000 
     18 N          -5.5300   -2.2300   29.5100 N.am      1 ALA2        0.0000 
     19 N          -4.7200   -1.6200   28.4100 N.am      1 ALA2        0.0000 
     20 N          -5.8300   -0.6500   28.1300 N.am      1 ALA2        0.0000 
     21 N          -7.7500   -0.2800   28.9600 N.am      1 ALA2        0.0000 
     22 N          -6.9400    0.3300   27.8500 N.am      1 ALA2        0.0000 
     23 N          -6.1200    0.9300   26.7500 N.am      1 ALA2        0.0000 
     24 N          -1.0900   -1.9900   28.8300 N.am      1 ALA2        0.0000 
     25 N          -2.2000   -1.0200   28.5500 N.am      1 ALA2        0.0000 
     26 O          -3.3000   -0.0500   28.2800 O.2       1 ALA2        0.0000 
     27 O          -5.2200    0.3200   29.1100 O.2       1 ALA2        0.0000 
     28 OD1        -7.5500   -4.7700   28.6600 O.co2     2 ASP3        0.0000 
     29 NZ         -6.4400   -5.7400   28.9400 N.4       3 LYS4        0.0000 
     30 NZ         -5.6300   -5.1300   27.8400 N.4       3 LYS4        0.0000 
     31 CZ         -4.5200   -6.1100   28.1100 C.ar      4 PHE5        0.0000 
     32 CZ         -4.8200   -4.5200   26.7300 C.ar      4 PHE5        0.0000 
     33 CZ         -2.3900   -2.7000   23.4100 C.ar      4 PHE5        0.0000 
     34 CZ         -3.9200   -5.1400   29.0900 C.ar      4 PHE5        0.0000 
     35 CZ         -3.1100   -4.5300   27.9800 C.ar      4 PHE5        0.0000 
     36 CZ         -2.3000   -3.9200   26.8800 C.ar      4 PHE5        0.0000 
     37 CZ         -1.4900   -3.3100   25.7700 C.ar      4 PHE5        0.0000 
     38 CZ         -0.6800   -2.7000   24.6700 C.ar      4 PHE5        0.0000 
     39 CZ         -4.2200   -3.5600   27.7100 C.ar      4 PHE5        0.0000 
     40 CZ         -3.4100   -2.9500   26.6000 C.ar      4 PHE5        0.0000 
     41 CZ         -2.6000   -2.3400   25.5000 C.ar      4 PHE5        0.0000 
     42 CZ         -1.7800   -1.7300   24.3900 C.ar      4 PHE5        0.0000 
     43 CZ         -1.6900   -2.9600   27.8500 C.ar      4 PHE5        0.0000 
     44 CA         -5.7200   -3.9100   24.3700 C.3       5 GLY6        0.0000 
     45 CA         -4.9100   -3.3000   23.2700 C.3       5 GLY6        0.0000 
     46 CA         -4.3100   -2.3300   24.2400 C.3       5 GLY6        0.0000 
     47 CA         -3.5000   -1.7200   23.1400 C.3       5 GLY6        0.0000 
     48 CA         -8.6600   -3.8000   28.3900 C.3       5 GLY6        0.0000 
     49 CA         -6.2300   -1.9700   25.0700 C.3       5 GLY6        0.0000 
     50 CA         -5.6200   -1.0000   26.0500 C.3       5 GLY6        0.0000 
     51 CA         -4.8100   -0.3900   24.9400 C.3       5 GLY6        0.0000 
     52 CA         -9.1600   -1.8600   29.0900 C.3       5 GLY6        0.0000 
     53 CA         -6.7300   -0.0300   25.7700 C.3       5 GLY6        0.0000 
     54 CA         -5.3100    1.5400   25.6400 C.3       5 GLY6        0.0000 
     55 CA          0.8300   -2.3500   28.0000 C.3       5 GLY6        0.0000 
     56 CA         -0.2800   -1.3800   27.7200 C.3       5 GLY6        0.0000 
     57 CA         -2.4900    0.5600   27.1700 C.3       5 GLY6        0.0000 
     58 CA         -4.4100    0.9300   28.0000 C.3       5 GLY6        0.0000 
     59 CA         -3.6000    1.5400   26.9000 C.3       5 GLY6        0.0000 
     60 CA         -5.5200    1.9000   27.7200 C.3       5 GLY6        0.0000 
     61 CA         -4.7100    2.5100   26.6200 C.3       5 GLY6        0.0000 
     62 DU         -6.7400   -4.1600   27.5600 H         6 CUB7        0.0000 
     63 DU         -5.9300   -3.5500   26.4500 H         6 CUB7        0.0000 
     64 DU         -5.1200   -2.9400   25.3500 H         6 CUB7        0.0000 
     65 DU         -7.8500   -3.1900   27.2800 H         6 CUB7        0.0000 
     66 DU         -7.0400   -2.5800   26.1800 H         6 CUB7        0.0000 
     67 DU         -5.3200   -2.5900   27.4300 H         6 CUB7        0.0000 
     68 DU         -4.5100   -1.9800   26.3200 H         6 CUB7        0.0000 
     69 DU         -3.7000   -1.3700   25.2200 H         6 CUB7        0.0000 
     70 DU         -2.8900   -0.7600   24.1100 H         6 CUB7        0.0000 
     71 DU         -6.4300   -1.6100   27.1500 H         6 CUB7        0.0000 
     72 DU          0.2200   -3.3200   27.0200 H         6 CUB7        0.0000 
     73 DU         -0.8800   -2.3500   26.7500 H         6 CUB7        0.0000 
     74 DU         -2.8000   -1.9800   27.5800 H         6 CUB7        0.0000 
     75 DU         -1.9900   -1.3700   26.4700 H         6 CUB7        0.0000 
     76 DU         -3.9100   -1.0100   27.3000 H         6 CUB7        0.0000 
     77 DU         -2.2900    0.2100   25.0900 H         6 CUB7        0.0000 
     78 DU         -5.0200   -0.0400   27.0200 H         6 CUB7        0.0000 
     79 DU         -4.2100    0.5700   25.9200 H         6 CUB7        0.0000 
     80 DU         -3.4000    1.1800   24.8100 H         6 CUB7        0.0000 
     81 DU         -1.3900   -0.4100   27.4500 H         6 CUB7        0.0000 
@<TRIPOS>BOND
@<TRIPOS>SUBSTRUCTURE
     1 ALA2        1 GROUP   
     2 ASP3       28 GROUP   
     3 LYS4       29 GROUP   
     4 PHE5       31 GROUP   
     5 GLY6       44 GROUP   
     6 CUB7       62 GROUP   
@<TRIPOS>SET

