#    Name: 6uxi_2_PLG_CAVITY_N1_12
#    Modification time : Fri May 22 19:25:46 2020

@<TRIPOS>MOLECULE
6uxi_2_PLG_CAVITY_N1_12
   80     0     7     0     0
SMALL
NO_CHARGES


@<TRIPOS>ATOM
      1 OG        -24.4600  -23.5400   -2.2400 O.3       1 SER1        0.0000 
      2 N         -24.1700  -29.2500    0.9300 N.am      2 ALA2        0.0000 
      3 N         -23.3600  -28.6400   -0.1700 N.am      2 ALA2        0.0000 
      4 O         -22.5500  -28.0300   -1.2800 O.2       2 ALA2        0.0000 
      5 N         -26.9000  -29.5000    2.8700 N.am      2 ALA2        0.0000 
      6 N         -26.0900  -28.8900    1.7600 N.am      2 ALA2        0.0000 
      7 N         -25.2800  -28.2800    0.6600 N.am      2 ALA2        0.0000 
      8 O         -24.4700  -27.6700   -0.4500 O.2       2 ALA2        0.0000 
      9 N         -22.4600  -29.2600    2.1800 N.am      2 ALA2        0.0000 
     10 N         -20.8400  -28.0400   -0.0300 N.am      2 ALA2        0.0000 
     11 N         -25.1900  -29.5100    4.1200 N.am      2 ALA2        0.0000 
     12 N         -24.3800  -28.9000    3.0100 N.am      2 ALA2        0.0000 
     13 N         -23.5700  -28.2900    1.9100 N.am      2 ALA2        0.0000 
     14 N         -22.7600  -27.6800    0.8000 N.am      2 ALA2        0.0000 
     15 N         -21.9500  -27.0700   -0.3000 N.am      2 ALA2        0.0000 
     16 N         -21.1400  -26.4600   -1.4100 N.am      2 ALA2        0.0000 
     17 N         -26.3000  -28.5300    3.8400 N.am      2 ALA2        0.0000 
     18 N         -25.4900  -27.9200    2.7400 N.am      2 ALA2        0.0000 
     19 N         -27.4000  -27.5600    3.5700 N.am      2 ALA2        0.0000 
     20 N         -19.9400  -28.6600    2.3300 N.am      2 ALA2        0.0000 
     21 O         -22.6700  -28.9000    4.2600 O.2       2 ALA2        0.0000 
     22 N         -21.8600  -28.2900    3.1600 N.am      2 ALA2        0.0000 
     23 N         -21.0400  -27.6900    2.0500 N.am      2 ALA2        0.0000 
     24 N         -20.2300  -27.0800    0.9500 N.am      2 ALA2        0.0000 
     25 N         -19.6300  -26.1100    1.9300 N.am      2 ALA2        0.0000 
     26 OD1       -21.5600  -29.8800    4.5400 O.co2     3 ASP3        0.0000 
     27 OD1       -20.7500  -29.2700    3.4400 O.co2     3 ASP3        0.0000 
     28 OD1       -20.9500  -28.9100    5.5200 O.co2     3 ASP3        0.0000 
     29 OD1       -20.1400  -28.3000    4.4100 O.co2     3 ASP3        0.0000 
     30 NZ        -21.7600  -29.5200    6.6200 N.4       4 LYS4        0.0000 
     31 NZ        -22.0600  -27.9400    5.2400 N.4       4 LYS4        0.0000 
     32 NZ        -23.1700  -26.9700    4.9600 N.4       4 LYS4        0.0000 
     33 CZ        -26.5900  -26.9500    2.4600 C.ar      5 PHE5        0.0000 
     34 CZ        -23.4800  -29.5100    5.3700 C.ar      5 PHE5        0.0000 
     35 CZ        -24.5800  -28.5400    5.0900 C.ar      5 PHE5        0.0000 
     36 CZ        -24.8800  -26.9600    3.7100 C.ar      5 PHE5        0.0000 
     37 CZ        -24.0700  -26.3500    2.6100 C.ar      5 PHE5        0.0000 
     38 CZ        -25.1800  -25.3800    2.3300 C.ar      5 PHE5        0.0000 
     39 CZ        -26.2900  -24.4000    2.0600 C.ar      5 PHE5        0.0000 
     40 CZ        -22.8700  -28.5500    6.3500 C.ar      5 PHE5        0.0000 
     41 CZ        -23.9800  -27.5800    6.0700 C.ar      5 PHE5        0.0000 
     42 CZ        -23.4700  -25.3800    3.5800 C.ar      5 PHE5        0.0000 
     43 CZ        -24.5700  -24.4100    3.3100 C.ar      5 PHE5        0.0000 
     44 CZ        -23.7600  -23.8000    2.2000 C.ar      5 PHE5        0.0000 
     45 CZ        -24.8700  -22.8300    1.9300 C.ar      5 PHE5        0.0000 
     46 CA        -23.6600  -27.0600   -1.5500 C.3       6 GLY6        0.0000 
     47 CA        -22.8500  -26.4500   -2.6600 C.3       6 GLY6        0.0000 
     48 CA        -28.0100  -28.5300    2.5900 C.3       6 GLY6        0.0000 
     49 CA        -27.2000  -27.9200    1.4800 C.3       6 GLY6        0.0000 
     50 CA        -23.9600  -25.4800   -2.9400 C.3       6 GLY6        0.0000 
     51 CA        -28.3100  -26.9400    1.2100 C.3       6 GLY6        0.0000 
     52 CA        -22.2400  -25.4900   -1.6800 C.3       6 GLY6        0.0000 
     53 CA        -24.1600  -25.1200   -0.8500 C.3       6 GLY6        0.0000 
     54 CA        -23.3500  -24.5100   -1.9600 C.3       6 GLY6        0.0000 
     55 CA        -21.3400  -26.1000    0.6700 C.3       6 GLY6        0.0000 
     56 CA        -20.5300  -25.4900   -0.4300 C.3       6 GLY6        0.0000 
     57 CA        -25.6900  -27.5700    4.8200 C.3       6 GLY6        0.0000 
     58 CA        -22.4500  -25.1300    0.4000 C.3       6 GLY6        0.0000 
     59 CA        -23.5600  -24.1600    0.1200 C.3       6 GLY6        0.0000 
     60 CA        -24.6700  -23.1800   -0.1500 C.3       6 GLY6        0.0000 
     61 CA        -19.3300  -27.6900    3.3100 C.3       6 GLY6        0.0000 
     62 CA        -21.8500  -24.1600    1.3700 C.3       6 GLY6        0.0000 
     63 DU        -26.3900  -27.3100    0.3800 H         7 CUB7        0.0000 
     64 DU        -25.5800  -26.7000   -0.7300 H         7 CUB7        0.0000 
     65 DU        -25.8700  -25.1100   -2.1100 H         7 CUB7        0.0000 
     66 DU        -24.6800  -27.3100    1.6300 H         7 CUB7        0.0000 
     67 DU        -23.8600  -26.7000    0.5300 H         7 CUB7        0.0000 
     68 DU        -23.0500  -26.1000   -0.5800 H         7 CUB7        0.0000 
     69 DU        -25.7800  -26.3400    1.3600 H         7 CUB7        0.0000 
     70 DU        -24.9700  -25.7300    0.2500 H         7 CUB7        0.0000 
     71 DU        -23.7700  -27.9300    3.9900 H         7 CUB7        0.0000 
     72 DU        -22.9600  -27.3200    2.8800 H         7 CUB7        0.0000 
     73 DU        -22.1500  -26.7100    1.7800 H         7 CUB7        0.0000 
     74 DU        -23.2600  -25.7400    1.5000 H         7 CUB7        0.0000 
     75 DU        -24.3700  -24.7700    1.2300 H         7 CUB7        0.0000 
     76 DU        -25.4800  -23.7900    0.9500 H         7 CUB7        0.0000 
     77 DU        -20.4400  -26.7200    3.0300 H         7 CUB7        0.0000 
     78 DU        -22.3600  -26.3600    3.8600 H         7 CUB7        0.0000 
     79 DU        -21.5500  -25.7500    2.7500 H         7 CUB7        0.0000 
     80 DU        -22.6600  -24.7700    2.4800 H         7 CUB7        0.0000 
@<TRIPOS>BOND
@<TRIPOS>SUBSTRUCTURE
     1 SER1        1 GROUP   
     2 ALA2        2 GROUP   
     3 ASP3       26 GROUP   
     4 LYS4       30 GROUP   
     5 PHE5       33 GROUP   
     6 GLY6       46 GROUP   
     7 CUB7       63 GROUP   
@<TRIPOS>SET

