#    Name: 6uxi_1_PLG
#    Modification time : Fri May 22 19:25:37 2020

@<TRIPOS>MOLECULE
6uxi_1_PLG
   20    20     1     0     0
SMALL
NO_CHARGES


@<TRIPOS>ATOM
      1 N1        -15.5990   -6.2490   24.9530 N.ar      1 PLG701      0.0000 
      2 C2        -15.0030   -5.7830   26.0730 C.ar      1 PLG701      0.0000 
      3 C2A       -15.5750   -4.5610   26.7920 C.3       1 PLG701      0.0000 
      4 C3        -13.8730   -6.4130   26.5690 C.ar      1 PLG701      0.0000 
      5 O3        -13.2610   -5.9260   27.7300 O.3       1 PLG701      0.0000 
      6 C4        -13.3670   -7.4990   25.9350 C.ar      1 PLG701      0.0000 
      7 C4A       -12.1190   -8.1900   26.4830 C.3       1 PLG701      0.0000 
      8 C5        -13.9690   -7.9650   24.8100 C.ar      1 PLG701      0.0000 
      9 C6        -15.0950   -7.3290   24.3150 C.ar      1 PLG701      0.0000 
     10 C5A       -13.4090   -9.1780   24.0700 C.3       1 PLG701      0.0000 
     11 OP4       -13.7220  -10.3740   24.7200 O.3       1 PLG701      0.0000 
     12 P         -12.9400  -11.7260   24.1940 P.3       1 PLG701      0.0000 
     13 OP1       -11.5390  -11.7340   24.7520 O.co2     1 PLG701      0.0000 
     14 OP2       -12.8800  -11.7040   22.6840 O.co2     1 PLG701      0.0000 
     15 OP3       -13.6780  -12.9630   24.6510 O.co2     1 PLG701      0.0000 
     16 C          -9.8390   -7.2290   29.2620 C.2       1 PLG701      0.0000 
     17 O         -10.3710   -6.1260   29.5600 O.co2     1 PLG701      0.0000 
     18 OXT        -8.8950   -7.6820   29.9610 O.co2     1 PLG701      0.0000 
     19 CA        -10.3450   -8.0180   28.0540 C.3       1 PLG701      0.0000 
     20 N         -11.5220   -7.3580   27.5140 N.4       1 PLG701      0.0000 
@<TRIPOS>BOND
     1    1    2 ar   
     2    1    9 ar   
     3    2    3 1    
     4    2    4 ar   
     5    4    5 1    
     6    4    6 ar   
     7    6    7 1    
     8    6    8 ar   
     9    7   20 1    
    10    8    9 ar   
    11    8   10 1    
    12   10   11 1    
    13   11   12 1    
    14   12   13 ar   
    15   12   14 ar   
    16   12   15 ar   
    17   16   17 ar   
    18   16   18 ar   
    19   16   19 1    
    20   19   20 1    
@<TRIPOS>SUBSTRUCTURE
     1 PLG701      1 GROUP   
@<TRIPOS>SET

