#    Name: 6uxi_2_PLG
#    Modification time : Fri May 22 19:25:45 2020

@<TRIPOS>MOLECULE
6uxi_2_PLG
   20    20     1     0     0
SMALL
NO_CHARGES


@<TRIPOS>ATOM
      1 N1        -12.7360  -24.9330    6.1920 N.ar      1 PLG801      0.0000 
      2 C2        -13.3580  -26.0270    5.7020 C.ar      1 PLG801      0.0000 
      3 C2A       -12.7820  -26.7590    4.4900 C.3       1 PLG801      0.0000 
      4 C3        -14.5190  -26.4840    6.3010 C.ar      1 PLG801      0.0000 
      5 O3        -15.1580  -27.6200    5.7890 O.3       1 PLG801      0.0000 
      6 C4        -15.0280  -25.8390    7.3780 C.ar      1 PLG801      0.0000 
      7 C4A       -16.3120  -26.3510    8.0310 C.3       1 PLG801      0.0000 
      8 C5        -14.4000  -24.7390    7.8670 C.ar      1 PLG801      0.0000 
      9 C6        -13.2400  -24.2820    7.2620 C.ar      1 PLG801      0.0000 
     10 C5A       -14.9660  -23.9890    9.0730 C.3       1 PLG801      0.0000 
     11 OP4       -14.7060  -24.6630   10.2690 O.3       1 PLG801      0.0000 
     12 P         -15.5130  -24.1390   11.6080 P.3       1 PLG801      0.0000 
     13 OP1       -16.9270  -24.6630   11.5710 O.co2     1 PLG801      0.0000 
     14 OP2       -15.5350  -22.6270   11.6030 O.co2     1 PLG801      0.0000 
     15 OP3       -14.8220  -24.6250   12.8610 O.co2     1 PLG801      0.0000 
     16 C         -18.6280  -29.0640    6.9580 C.2       1 PLG801      0.0000 
     17 O         -18.0590  -29.3640    5.8720 O.co2     1 PLG801      0.0000 
     18 OXT       -19.6060  -29.7430    7.3660 O.co2     1 PLG801      0.0000 
     19 CA        -18.1240  -27.8770    7.7790 C.3       1 PLG801      0.0000 
     20 N         -16.9120  -27.3580    7.1710 N.4       1 PLG801      0.0000 
@<TRIPOS>BOND
     1    1    2 ar   
     2    1    9 ar   
     3    2    3 1    
     4    2    4 ar   
     5    4    5 1    
     6    4    6 ar   
     7    6    7 1    
     8    6    8 ar   
     9    7   20 1    
    10    8    9 ar   
    11    8   10 1    
    12   10   11 1    
    13   11   12 1    
    14   12   13 ar   
    15   12   14 ar   
    16   12   15 ar   
    17   16   17 ar   
    18   16   18 ar   
    19   16   19 1    
    20   19   20 1    
@<TRIPOS>SUBSTRUCTURE
     1 PLG801      1 GROUP   
@<TRIPOS>SET

