#    Name: 6hx8_1_GTP
#    Modification time : Fri May 22 19:24:08 2020

@<TRIPOS>MOLECULE
6hx8_1_GTP
   32    34     1     0     1
SMALL
NO_CHARGES


@<TRIPOS>ATOM
      1 PG         27.3880   74.8330   46.1860 P.3       1 GTP501      0.0000 
      2 O1G        28.5990   74.9140   45.2920 O.co2     1 GTP501      0.0000 
      3 O2G        26.2170   75.5020   45.5100 O.co2     1 GTP501      0.0000 
      4 O3G        27.0860   73.3840   46.4950 O.co2     1 GTP501      0.0000 
      5 O3B        27.7210   75.6000   47.5690 O.3       1 GTP501      0.0000 
      6 PB         26.7850   76.7490   48.2100 P.3       1 GTP501      0.0000 
      7 O1B        26.4390   77.8040   47.1860 O.co2     1 GTP501      0.0000 
      8 O2B        27.5430   77.3540   49.3650 O.co2     1 GTP501      0.0000 
      9 O3A        25.4240   76.0130   48.6830 O.3       1 GTP501      0.0000 
     10 PA         24.2880   76.6860   49.6230 P.3       1 GTP501      0.0000 
     11 O1A        23.0440   76.9850   48.8370 O.co2     1 GTP501      0.0000 
     12 O2A        24.7710   77.9390   50.3160 O.co2     1 GTP501      0.0000 
     13 O5'        23.9860   75.4960   50.6630 O.3       1 GTP501      0.0000 
     14 C5'        22.7010   74.9400   50.8220 C.3       1 GTP501      0.0000 
     15 C4'        22.1790   75.2040   52.2320 C.3       1 GTP501      0.0000 
     16 O4'        22.1220   76.5940   52.4650 O.3       1 GTP501      0.0000 
     17 C3'        20.7710   74.6770   52.4130 C.3       1 GTP501      0.0000 
     18 O3'        20.7260   74.0710   53.6850 O.3       1 GTP501      0.0000 
     19 C2'        19.8870   75.9110   52.3520 C.3       1 GTP501      0.0000 
     20 O2'        18.7640   75.8050   53.1940 O.3       1 GTP501      0.0000 
     21 C1'        20.8160   77.0090   52.8260 C.3       1 GTP501      0.0000 
     22 N9         20.5830   78.3100   52.1770 N.pl3     1 GTP501      0.0000 
     23 C8         20.9040   78.6400   50.8860 C.2       1 GTP501      0.0000 
     24 N7         20.5720   79.9350   50.6810 N.2       1 GTP501      0.0000 
     25 C5         20.0610   80.4430   51.8250 C.2       1 GTP501      0.0000 
     26 C6         19.5760   81.7020   52.1550 C.2       1 GTP501      0.0000 
     27 O6         19.5610   82.6090   51.3230 O.2       1 GTP501      0.0000 
     28 N1         19.1010   81.9330   53.4250 N.am      1 GTP501      0.0000 
     29 C2         19.1150   80.9220   54.3630 C.2       1 GTP501      0.0000 
     30 N2         18.6570   81.1710   55.5860 N.pl3     1 GTP501      0.0000 
     31 N3         19.6020   79.6700   54.0340 N.2       1 GTP501      0.0000 
     32 C4         20.0680   79.4340   52.7800 C.2       1 GTP501      0.0000 
@<TRIPOS>BOND
     1    1    2 ar   
     2    1    3 ar   
     3    1    4 ar   
     4    1    5 1    
     5    5    6 1    
     6    6    7 ar   
     7    6    8 ar   
     8    6    9 1    
     9    9   10 1    
    10   10   11 ar   
    11   10   12 ar   
    12   10   13 1    
    13   13   14 1    
    14   14   15 1    
    15   15   16 1    
    16   15   17 1    
    17   16   21 1    
    18   17   18 1    
    19   17   19 1    
    20   19   20 1    
    21   19   21 1    
    22   21   22 1    
    23   22   23 1    
    24   22   32 1    
    25   23   24 2    
    26   24   25 1    
    27   25   26 1    
    28   25   32 2    
    29   26   27 2    
    30   26   28 am   
    31   28   29 1    
    32   29   30 1    
    33   29   31 2    
    34   31   32 1    
@<TRIPOS>SUBSTRUCTURE
     1 GTP501      1 GROUP   
@<TRIPOS>SET
ATOM$ORANGE STATIC     ATOMS   COLORGROUP SYSTEM 
20 14 14 15 15 17 17 19 19 21 21 23 23 25 25 26 26 29 \
29 32 32 

