#    Name: 6hx8_3_GTP
#    Modification time : Fri May 22 19:24:33 2020

@<TRIPOS>MOLECULE
6hx8_3_GTP
   32    34     1     0     1
SMALL
NO_CHARGES


@<TRIPOS>ATOM
      1 PG         20.5550   18.4380  -16.9340 P.3       1 GTP501      0.0000 
      2 O1G        19.4370   18.5350  -17.9480 O.co2     1 GTP501      0.0000 
      3 O2G        21.8440   18.9630  -17.5200 O.co2     1 GTP501      0.0000 
      4 O3G        20.7680   16.9980  -16.5280 O.co2     1 GTP501      0.0000 
      5 O3B        20.2110   19.3040  -15.6120 O.3       1 GTP501      0.0000 
      6 PB         18.9140   20.2640  -15.4780 P.3       1 GTP501      0.0000 
      7 O1B        18.6410   21.0340  -16.7480 O.co2     1 GTP501      0.0000 
      8 O2B        19.1370   21.2100  -14.3240 O.co2     1 GTP501      0.0000 
      9 O3A        17.6830   19.2520  -15.2360 O.3       1 GTP501      0.0000 
     10 PA         16.3060   19.6670  -14.5020 P.3       1 GTP501      0.0000 
     11 O1A        15.1750   19.4640  -15.4820 O.co2     1 GTP501      0.0000 
     12 O2A        16.3220   21.0870  -13.9760 O.co2     1 GTP501      0.0000 
     13 O5'        16.2290   18.6040  -13.2930 O.3       1 GTP501      0.0000 
     14 C5'        15.2200   17.6270  -13.1740 C.3       1 GTP501      0.0000 
     15 C4'        14.3140   17.9450  -11.9890 C.3       1 GTP501      0.0000 
     16 O4'        13.8390   19.2730  -12.0930 O.3       1 GTP501      0.0000 
     17 C3'        13.0970   17.0400  -11.9740 C.3       1 GTP501      0.0000 
     18 O3'        12.9210   16.5750  -10.6550 O.3       1 GTP501      0.0000 
     19 C2'        11.9450   17.9340  -12.3840 C.3       1 GTP501      0.0000 
     20 O2'        10.7630   17.6060  -11.6940 O.3       1 GTP501      0.0000 
     21 C1'        12.4290   19.3150  -11.9910 C.3       1 GTP501      0.0000 
     22 N9         11.9410   20.3680  -12.8990 N.pl3     1 GTP501      0.0000 
     23 C8         12.3270   20.5820  -14.1980 C.2       1 GTP501      0.0000 
     24 N7         11.6640   21.6710  -14.6620 N.2       1 GTP501      0.0000 
     25 C5         10.8760   22.1610  -13.6750 C.2       1 GTP501      0.0000 
     26 C6         10.0020   23.2440  -13.6050 C.2       1 GTP501      0.0000 
     27 O6          9.8330   23.9770  -14.5790 O.2       1 GTP501      0.0000 
     28 N1          9.3200   23.4980  -12.4310 N.am      1 GTP501      0.0000 
     29 C2          9.5050   22.6780  -11.3370 C.2       1 GTP501      0.0000 
     30 N2          8.8520   22.9150  -10.2020 N.pl3     1 GTP501      0.0000 
     31 N3         10.3730   21.6080  -11.4170 N.2       1 GTP501      0.0000 
     32 C4         11.0470   21.3530  -12.5610 C.2       1 GTP501      0.0000 
@<TRIPOS>BOND
     1    1    2 ar   
     2    1    3 ar   
     3    1    4 ar   
     4    1    5 1    
     5    5    6 1    
     6    6    7 ar   
     7    6    8 ar   
     8    6    9 1    
     9    9   10 1    
    10   10   11 ar   
    11   10   12 ar   
    12   10   13 1    
    13   13   14 1    
    14   14   15 1    
    15   15   16 1    
    16   15   17 1    
    17   16   21 1    
    18   17   18 1    
    19   17   19 1    
    20   19   20 1    
    21   19   21 1    
    22   21   22 1    
    23   22   23 1    
    24   22   32 1    
    25   23   24 2    
    26   24   25 1    
    27   25   26 1    
    28   25   32 2    
    29   26   27 2    
    30   26   28 am   
    31   28   29 1    
    32   29   30 1    
    33   29   31 2    
    34   31   32 1    
@<TRIPOS>SUBSTRUCTURE
     1 GTP501      1 GROUP   
@<TRIPOS>SET
ATOM$ORANGE STATIC     ATOMS   COLORGROUP SYSTEM 
20 14 14 15 15 17 17 19 19 21 21 23 23 25 25 26 26 29 \
29 32 32 

