#    Name: 6hx8_4_GDP_CAVITY_N1_ALL
#    Modification time : Fri May 22 19:24:40 2020

@<TRIPOS>MOLECULE
6hx8_4_GDP_CAVITY_N1_ALL
   70     0     6     0     0
SMALL
NO_CHARGES


@<TRIPOS>ATOM
      1 OG         21.1100  -18.5500  -43.8400 O.3       1 SER1        0.0000 
      2 OG         23.2300  -17.2900  -43.0300 O.3       1 SER1        0.0000 
      3 OG         19.9600  -13.5500  -43.0300 O.3       1 SER1        0.0000 
      4 OG         20.6700  -15.3300  -42.1200 O.3       1 SER1        0.0000 
      5 OG         19.3200  -14.7100  -42.3200 O.3       1 SER1        0.0000 
      6 OG         20.0300  -16.5000  -41.4200 O.3       1 SER1        0.0000 
      7 OG         18.6800  -15.8700  -41.6200 O.3       1 SER1        0.0000 
      8 OG         22.0800  -12.2900  -42.2200 O.3       1 SER1        0.0000 
      9 OG         21.4400  -13.4500  -41.5200 O.3       1 SER1        0.0000 
     10 OG         19.4500  -13.9900  -41.0100 O.3       1 SER1        0.0000 
     11 O          17.6200  -12.5900  -46.7500 O.2       2 ALA2        0.0000 
     12 O          18.3900  -10.7100  -46.1500 O.2       2 ALA2        0.0000 
     13 O          17.7600  -11.8700  -45.4400 O.2       2 ALA2        0.0000 
     14 N          16.4100  -11.2500  -45.6400 N.am      2 ALA2        0.0000 
     15 N          18.5300   -9.9900  -44.8400 N.am      2 ALA2        0.0000 
     16 N          20.5900  -12.3900  -43.7300 N.am      2 ALA2        0.0000 
     17 N          17.8900  -11.1500  -44.1300 N.am      2 ALA2        0.0000 
     18 N          16.5400  -10.5300  -44.3300 N.am      2 ALA2        0.0000 
     19 N          24.0100  -15.4100  -42.4200 N.am      2 ALA2        0.0000 
     20 N          16.6800   -9.8100  -43.0200 N.am      2 ALA2        0.0000 
     21 O          22.7900  -14.0700  -41.3200 O.2       2 ALA2        0.0000 
     22 O          18.8100  -15.1600  -40.3100 O.2       2 ALA2        0.0000 
     23 O          17.4600  -14.5300  -40.5100 O.2       2 ALA2        0.0000 
     24 N          18.8800  -11.4900  -40.6100 N.am      2 ALA2        0.0000 
     25 N          17.5200  -10.8700  -40.8100 N.am      2 ALA2        0.0000 
     26 N          16.1700  -10.2500  -41.0100 N.am      2 ALA2        0.0000 
     27 O          19.5900  -13.2800  -39.7000 O.2       2 ALA2        0.0000 
     28 O          18.2400  -12.6500  -39.9100 O.2       2 ALA2        0.0000 
     29 O          16.8900  -12.0300  -40.1100 O.2       2 ALA2        0.0000 
     30 O          18.9500  -14.4400  -39.0000 O.2       2 ALA2        0.0000 
     31 N          16.3100   -9.5300  -39.7000 N.am      2 ALA2        0.0000 
     32 N          15.6700  -10.6900  -39.0000 N.am      2 ALA2        0.0000 
     33 N          15.0900   -8.1900  -38.5900 N.am      2 ALA2        0.0000 
     34 OD1        21.7500  -17.3900  -44.5400 O.co2     3 ASP3        0.0000 
     35 OD1        21.8800  -16.6700  -43.2300 O.co2     3 ASP3        0.0000 
     36 OD1        20.5300  -16.0500  -43.4300 O.co2     3 ASP3        0.0000 
     37 OD1        22.6600  -14.7900  -42.6200 O.co2     3 ASP3        0.0000 
     38 OD1        21.3100  -14.1700  -42.8300 O.co2     3 ASP3        0.0000 
     39 NZ         23.3700  -16.5800  -41.7200 N.4       4 LYS4        0.0000 
     40 NZ         22.0200  -15.9600  -41.9200 N.4       4 LYS4        0.0000 
     41 NZ         22.1500  -15.2400  -40.6100 N.4       4 LYS4        0.0000 
     42 NZ         20.8000  -14.6200  -40.8100 N.4       4 LYS4        0.0000 
     43 NZ         20.1700  -15.7800  -40.1100 N.4       4 LYS4        0.0000 
     44 NZ         20.9400  -13.9000  -39.5000 N.4       4 LYS4        0.0000 
     45 NZ         20.3000  -15.0600  -38.8000 N.4       4 LYS4        0.0000 
     46 NZ         19.6600  -16.2200  -38.1000 N.4       4 LYS4        0.0000 
     47 CZ         16.2700  -11.9700  -46.9500 C.ar      5 PHE5        0.0000 
     48 CZ         18.6000  -12.9300  -43.2300 C.ar      5 PHE5        0.0000 
     49 CZ         17.3900  -11.5900  -42.1200 C.ar      5 PHE5        0.0000 
     50 CZ         18.1000  -13.3700  -41.2100 C.ar      5 PHE5        0.0000 
     51 CZ         15.5400  -11.4100  -40.3100 C.ar      5 PHE5        0.0000 
     52 CA         21.2300  -11.2300  -44.4300 C.3       6 GLY6        0.0000 
     53 CA         19.8800  -10.6100  -44.6400 C.3       6 GLY6        0.0000 
     54 CA         19.2400  -11.7700  -43.9300 C.3       6 GLY6        0.0000 
     55 CA         20.7300  -11.6700  -42.4200 C.3       6 GLY6        0.0000 
     56 CA         19.3800  -11.0500  -42.6200 C.3       6 GLY6        0.0000 
     57 CA         18.0300  -10.4300  -42.8200 C.3       6 GLY6        0.0000 
     58 CA         20.0900  -12.8300  -41.7200 C.3       6 GLY6        0.0000 
     59 CA         18.7400  -12.2100  -41.9200 C.3       6 GLY6        0.0000 
     60 CA         18.1800  -16.3200  -39.6100 C.3       6 GLY6        0.0000 
     61 CA         21.5800  -12.7300  -40.2100 C.3       6 GLY6        0.0000 
     62 CA         20.2300  -12.1100  -40.4100 C.3       6 GLY6        0.0000 
     63 CA         22.2900  -14.5200  -39.3000 C.3       6 GLY6        0.0000 
     64 CA         21.0800  -13.1800  -38.1900 C.3       6 GLY6        0.0000 
     65 CA         19.7200  -12.5600  -38.4000 C.3       6 GLY6        0.0000 
     66 CA         17.0200  -11.3100  -38.8000 C.3       6 GLY6        0.0000 
     67 CA         20.4400  -14.3400  -37.4900 C.3       6 GLY6        0.0000 
     68 CA         16.4500   -8.8100  -38.3900 C.3       6 GLY6        0.0000 
     69 CA         15.8100   -9.9800  -37.6900 C.3       6 GLY6        0.0000 
     70 CA         14.4600   -9.3500  -37.8900 C.3       6 GLY6        0.0000 
@<TRIPOS>BOND
@<TRIPOS>SUBSTRUCTURE
     1 SER1        1 GROUP   
     2 ALA2       11 GROUP   
     3 ASP3       34 GROUP   
     4 LYS4       39 GROUP   
     5 PHE5       47 GROUP   
     6 GLY6       52 GROUP   
@<TRIPOS>SET

