#    Name: 6hx8_2_GDP
#    Modification time : Fri May 22 19:24:19 2020

@<TRIPOS>MOLECULE
6hx8_2_GDP
   28    30     1     0     1
SMALL
NO_CHARGES


@<TRIPOS>ATOM
      1 PB         18.8200   50.1110   15.8010 P.3       1 GDP501      0.0000 
      2 O1B        18.2650   50.9540   14.6870 O.co2     1 GDP501      0.0000 
      3 O2B        19.4020   51.0080   16.8630 O.co2     1 GDP501      0.0000 
      4 O3B        19.9280   49.2310   15.2960 O.co2     1 GDP501      0.0000 
      5 O3A        17.7050   49.1180   16.3960 O.3       1 GDP501      0.0000 
      6 PA         16.2410   49.5460   16.9360 P.3       1 GDP501      0.0000 
      7 O1A        15.1320   49.3100   15.9450 O.co2     1 GDP501      0.0000 
      8 O2A        16.2310   50.9830   17.4030 O.co2     1 GDP501      0.0000 
      9 O5'        16.1640   48.5080   18.1650 O.3       1 GDP501      0.0000 
     10 C5'        15.1310   47.5350   18.2790 C.3       1 GDP501      0.0000 
     11 C4'        14.5130   47.6290   19.6670 C.3       1 GDP501      0.0000 
     12 O4'        14.0540   48.9670   19.8710 O.3       1 GDP501      0.0000 
     13 C3'        13.2910   46.7410   19.7740 C.3       1 GDP501      0.0000 
     14 O3'        13.2000   46.2550   21.1170 O.3       1 GDP501      0.0000 
     15 C2'        12.1250   47.6590   19.4800 C.3       1 GDP501      0.0000 
     16 O2'        10.9640   47.2320   20.1950 O.3       1 GDP501      0.0000 
     17 C1'        12.6280   49.0010   19.9820 C.3       1 GDP501      0.0000 
     18 N9         12.1290   50.1670   19.2190 N.pl3     1 GDP501      0.0000 
     19 C8         12.3820   50.4580   17.9270 C.2       1 GDP501      0.0000 
     20 N7         11.7830   51.6290   17.5720 N.2       1 GDP501      0.0000 
     21 C5         11.1420   52.1100   18.6600 C.2       1 GDP501      0.0000 
     22 C6         10.3210   53.2960   18.9940 C.2       1 GDP501      0.0000 
     23 O6         10.0640   54.1690   18.1390 O.2       1 GDP501      0.0000 
     24 N1          9.8520   53.4120   20.2420 N.am      1 GDP501      0.0000 
     25 C2         10.1010   52.4960   21.1960 C.2       1 GDP501      0.0000 
     26 N2          9.5860   52.6950   22.4400 N.pl3     1 GDP501      0.0000 
     27 N3         10.8490   51.3840   20.9620 N.2       1 GDP501      0.0000 
     28 C4         11.3820   51.1450   19.7420 C.2       1 GDP501      0.0000 
@<TRIPOS>BOND
     1    1    2 ar   
     2    1    3 ar   
     3    1    4 ar   
     4    1    5 1    
     5    5    6 1    
     6    6    7 ar   
     7    6    8 ar   
     8    6    9 1    
     9    9   10 1    
    10   10   11 1    
    11   11   12 1    
    12   11   13 1    
    13   12   17 1    
    14   13   14 1    
    15   13   15 1    
    16   15   16 1    
    17   15   17 1    
    18   17   18 1    
    19   18   19 1    
    20   18   28 1    
    21   19   20 2    
    22   20   21 1    
    23   21   22 1    
    24   21   28 2    
    25   22   23 2    
    26   22   24 am   
    27   24   25 1    
    28   25   26 1    
    29   25   27 2    
    30   27   28 1    
@<TRIPOS>SUBSTRUCTURE
     1 GDP501      1 GROUP   
@<TRIPOS>SET
ATOM$ORANGE STATIC     ATOMS   COLORGROUP SYSTEM 
20 10 10 11 11 13 13 15 15 17 17 19 19 21 21 22 22 25 \
25 28 28 

