#    Name: 6hx8_2_GDP_CAVITY_N1_6
#    Modification time : Fri May 22 19:24:21 2020

@<TRIPOS>MOLECULE
6hx8_2_GDP_CAVITY_N1_6
    9     0     4     0     0
SMALL
NO_CHARGES


@<TRIPOS>ATOM
      1 OG          7.2200   46.8100   16.2100 O.3       1 SER1        0.0000 
      2 OG          6.5900   45.6500   16.9100 O.3       1 SER1        0.0000 
      3 O          12.8400   49.9300   10.4700 O.2       2 ALA2        0.0000 
      4 O           9.6400   50.7300   12.0800 O.2       2 ALA2        0.0000 
      5 O          10.3500   48.9500   12.9900 O.2       2 ALA2        0.0000 
      6 NZ         14.8300   50.4800    9.9700 N.4       3 LYS4        0.0000 
      7 CZ          9.0000   49.5700   12.7900 C.ar      4 PHE5        0.0000 
      8 CZ          9.7100   47.7900   13.6900 C.ar      4 PHE5        0.0000 
      9 CZ          9.1400   50.2900   14.1000 C.ar      4 PHE5        0.0000 
@<TRIPOS>BOND
@<TRIPOS>SUBSTRUCTURE
     1 SER1        1 GROUP   
     2 ALA2        3 GROUP   
     3 LYS4        6 GROUP   
     4 PHE5        7 GROUP   
@<TRIPOS>SET

