#    Name: 6hx8_3_GTP_CAVITY_N1_6
#    Modification time : Fri May 22 19:24:34 2020

@<TRIPOS>MOLECULE
6hx8_3_GTP_CAVITY_N1_6
    4     0     3     0     0
SMALL
NO_CHARGES


@<TRIPOS>ATOM
      1 N           8.9200   14.6400  -16.1300 N.am      1 ALA2        0.0000 
      2 CZ          6.9900   17.7600  -15.9200 C.ar      2 PHE5        0.0000 
      3 CA          7.7000   15.9800  -15.0200 C.3       3 GLY6        0.0000 
      4 CA          6.3500   16.6000  -15.2200 C.3       3 GLY6        0.0000 
@<TRIPOS>BOND
@<TRIPOS>SUBSTRUCTURE
     1 ALA2        1 GROUP   
     2 PHE5        2 GROUP   
     3 GLY6        3 GROUP   
@<TRIPOS>SET

