#    Name: 6hx8_2_GDP_CAVITY_N1_8
#    Modification time : Fri May 22 19:24:21 2020

@<TRIPOS>MOLECULE
6hx8_2_GDP_CAVITY_N1_8
   79     0     6     0     0
SMALL
NO_CHARGES


@<TRIPOS>ATOM
      1 OG          7.2200   46.8100   16.2100 O.3       1 SER1        0.0000 
      2 OG          6.5900   45.6500   16.9100 O.3       1 SER1        0.0000 
      3 N          10.7200   48.6800    9.6700 N.am      2 ALA2        0.0000 
      4 N          10.0800   47.5100   10.3700 N.am      2 ALA2        0.0000 
      5 O          13.4800   51.1000    9.7700 O.2       2 ALA2        0.0000 
      6 O          12.1300   51.7200    9.5700 O.2       2 ALA2        0.0000 
      7 O          12.8400   49.9300   10.4700 O.2       2 ALA2        0.0000 
      8 O          11.4900   50.5600   10.2700 O.2       2 ALA2        0.0000 
      9 O          10.1400   51.1800   10.0700 O.2       2 ALA2        0.0000 
     10 O          10.8600   49.3900   10.9800 O.2       2 ALA2        0.0000 
     11 N           9.5000   50.0100   10.7700 N.am      2 ALA2        0.0000 
     12 N           8.1500   50.6400   10.5700 N.am      2 ALA2        0.0000 
     13 N           8.8700   48.8500   11.4800 N.am      2 ALA2        0.0000 
     14 N           7.5200   49.4700   11.2800 N.am      2 ALA2        0.0000 
     15 O           8.9300   52.5200   11.1800 O.2       2 ALA2        0.0000 
     16 O           9.6400   50.7300   12.0800 O.2       2 ALA2        0.0000 
     17 O          10.3500   48.9500   12.9900 O.2       2 ALA2        0.0000 
     18 N           7.6500   50.1900   12.5900 N.am      2 ALA2        0.0000 
     19 N           5.6600   49.6500   13.0900 N.am      2 ALA2        0.0000 
     20 N           5.8100   43.7700   16.3100 N.am      2 ALA2        0.0000 
     21 N           5.9500   44.4900   17.6200 N.am      2 ALA2        0.0000 
     22 N           4.0200   47.6100   17.8200 N.am      2 ALA2        0.0000 
     23 N           3.3800   46.4500   18.5200 N.am      2 ALA2        0.0000 
     24 N           4.1000   44.6700   19.4300 N.am      2 ALA2        0.0000 
     25 N           4.1600   48.3300   19.1300 N.am      2 ALA2        0.0000 
     26 NZ         18.6100   47.1700    7.9500 N.4       3 LYS4        0.0000 
     27 NZ         17.2600   47.8000    7.7500 N.4       3 LYS4        0.0000 
     28 NZ         15.9100   48.4200    7.5500 N.4       3 LYS4        0.0000 
     29 NZ         15.9700   52.0800    7.2500 N.4       3 LYS4        0.0000 
     30 NZ         15.3300   50.9200    7.9600 N.4       3 LYS4        0.0000 
     31 NZ         18.7500   47.8900    9.2600 N.4       3 LYS4        0.0000 
     32 NZ         17.4000   48.5100    9.0600 N.4       3 LYS4        0.0000 
     33 NZ         14.7000   49.7600    8.6600 N.4       3 LYS4        0.0000 
     34 NZ         16.7600   47.3500    9.7700 N.4       3 LYS4        0.0000 
     35 NZ         15.4100   47.9700    9.5700 N.4       3 LYS4        0.0000 
     36 NZ         14.1200   52.2600    9.0600 N.4       3 LYS4        0.0000 
     37 NZ         14.8300   50.4800    9.9700 N.4       3 LYS4        0.0000 
     38 NZ         10.9300   46.4500   12.5800 N.4       3 LYS4        0.0000 
     39 NZ         10.2900   45.2900   13.2900 N.4       3 LYS4        0.0000 
     40 NZ          8.9400   45.9100   13.0900 N.4       3 LYS4        0.0000 
     41 NZ          8.3000   44.7500   13.7900 N.4       3 LYS4        0.0000 
     42 NZ          9.0800   46.6300   14.4000 N.4       3 LYS4        0.0000 
     43 CZ          9.0000   49.5700   12.7900 C.ar      4 PHE5        0.0000 
     44 CZ          9.7100   47.7900   13.6900 C.ar      4 PHE5        0.0000 
     45 CZ          8.3600   48.4100   13.4900 C.ar      4 PHE5        0.0000 
     46 CZ          7.0100   49.0300   13.2900 C.ar      4 PHE5        0.0000 
     47 CZ          7.7300   47.2500   14.2000 C.ar      4 PHE5        0.0000 
     48 CZ          6.3800   47.8700   14.0000 C.ar      4 PHE5        0.0000 
     49 CZ          7.0900   46.0900   14.9000 C.ar      4 PHE5        0.0000 
     50 CZ          5.7400   46.7100   14.7000 C.ar      4 PHE5        0.0000 
     51 CZ          9.1400   50.2900   14.1000 C.ar      4 PHE5        0.0000 
     52 CZ          6.4400   51.5300   13.7000 C.ar      4 PHE5        0.0000 
     53 CZ          5.8000   50.3700   14.4000 C.ar      4 PHE5        0.0000 
     54 CZ          5.8700   47.4300   16.0100 C.ar      4 PHE5        0.0000 
     55 CZ          4.5200   48.0500   15.8100 C.ar      4 PHE5        0.0000 
     56 CZ          4.6600   48.7700   17.1200 C.ar      4 PHE5        0.0000 
     57 CA         15.2700   47.2600    8.2600 C.3       5 GLY6        0.0000 
     58 CA         14.7600   53.4200    8.3600 C.3       5 GLY6        0.0000 
     59 CA          5.3100   43.3300   18.3200 C.3       5 GLY6        0.0000 
     60 CA          5.3700   46.9900   18.0200 C.3       5 GLY6        0.0000 
     61 CA          4.7300   45.8300   18.7300 C.3       5 GLY6        0.0000 
     62 CA          3.5200   47.1700   19.8300 C.3       5 GLY6        0.0000 
     63 DU         17.9800   46.0100    8.6600 H         6 CUB7        0.0000 
     64 DU         16.6200   46.6300    8.4600 H         6 CUB7        0.0000 
     65 DU         13.3500   50.3800    8.4600 H         6 CUB7        0.0000 
     66 DU         18.1100   46.7300    9.9700 H         6 CUB7        0.0000 
     67 DU         14.0600   48.5900    9.3600 H         6 CUB7        0.0000 
     68 DU         12.7100   49.2200    9.1600 H         6 CUB7        0.0000 
     69 DU         11.3600   49.8400    8.9600 H         6 CUB7        0.0000 
     70 DU         10.2200   48.2300   11.6800 H         6 CUB7        0.0000 
     71 DU          9.5800   47.0700   12.3800 H         6 CUB7        0.0000 
     72 DU          8.2300   47.6900   12.1800 H         6 CUB7        0.0000 
     73 DU          7.5900   46.5300   12.8900 H         6 CUB7        0.0000 
     74 DU          6.9500   45.3700   13.5900 H         6 CUB7        0.0000 
     75 DU          6.4500   44.9300   15.6000 H         6 CUB7        0.0000 
     76 DU          5.1000   45.5500   15.4000 H         6 CUB7        0.0000 
     77 DU          5.2400   46.2700   16.7100 H         6 CUB7        0.0000 
     78 DU          3.8800   46.8900   16.5100 H         6 CUB7        0.0000 
     79 DU          4.6000   45.1100   17.4200 H         6 CUB7        0.0000 
@<TRIPOS>BOND
@<TRIPOS>SUBSTRUCTURE
     1 SER1        1 GROUP   
     2 ALA2        3 GROUP   
     3 LYS4       26 GROUP   
     4 PHE5       43 GROUP   
     5 GLY6       57 GROUP   
     6 CUB7       63 GROUP   
@<TRIPOS>SET

