#    Name: 6hx8_3_GTP_CAVITY_N1_8
#    Modification time : Fri May 22 19:24:34 2020

@<TRIPOS>MOLECULE
6hx8_3_GTP_CAVITY_N1_8
   28     0     6     0     0
SMALL
NO_CHARGES


@<TRIPOS>ATOM
      1 OG          8.2000   16.4200  -17.0300 O.3       1 SER1        0.0000 
      2 OG          7.5700   15.2600  -16.3300 O.3       1 SER1        0.0000 
      3 O           4.7900   19.4400  -18.3400 O.2       2 ALA2        0.0000 
      4 N           8.9200   14.6400  -16.1300 N.am      2 ALA2        0.0000 
      5 N           8.2800   13.4800  -15.4200 N.am      2 ALA2        0.0000 
      6 O           4.9200   20.1600  -17.0300 O.2       2 ALA2        0.0000 
      7 O           4.2900   19.0000  -16.3300 O.2       2 ALA2        0.0000 
      8 OD1         4.8600   16.5000  -16.7300 O.co2     3 ASP3        0.0000 
      9 OD1         5.5800   14.7200  -15.8300 O.co2     3 ASP3        0.0000 
     10 OD1         5.0000   17.2200  -15.4200 O.co2     3 ASP3        0.0000 
     11 CZ          6.7800   19.9800  -18.8400 C.ar      4 PHE5        0.0000 
     12 CZ          5.4300   20.6000  -19.0400 C.ar      4 PHE5        0.0000 
     13 CZ          7.4900   18.2000  -17.9400 C.ar      4 PHE5        0.0000 
     14 CZ          6.1400   18.8200  -18.1400 C.ar      4 PHE5        0.0000 
     15 CZ          6.8500   17.0400  -17.2300 C.ar      4 PHE5        0.0000 
     16 CZ          6.9900   17.7600  -15.9200 C.ar      4 PHE5        0.0000 
     17 CZ          5.6400   18.3800  -16.1300 C.ar      4 PHE5        0.0000 
     18 CZ          5.7700   19.1000  -14.8200 C.ar      4 PHE5        0.0000 
     19 CA          6.6400   19.2600  -20.1500 C.3       5 GLY6        0.0000 
     20 CA          9.4200   15.0800  -18.1400 C.3       5 GLY6        0.0000 
     21 CA          8.0700   15.7000  -18.3400 C.3       5 GLY6        0.0000 
     22 CA          7.4300   14.5400  -17.6400 C.3       5 GLY6        0.0000 
     23 CA          6.7900   13.3800  -16.9300 C.3       5 GLY6        0.0000 
     24 CA          6.2100   15.8800  -16.5300 C.3       5 GLY6        0.0000 
     25 CA          6.9300   14.1000  -15.6300 C.3       5 GLY6        0.0000 
     26 CA          7.7000   15.9800  -15.0200 C.3       5 GLY6        0.0000 
     27 CA          6.3500   16.6000  -15.2200 C.3       5 GLY6        0.0000 
     28 DU          5.5000   17.6600  -17.4300 H         6 CUB7        0.0000 
@<TRIPOS>BOND
@<TRIPOS>SUBSTRUCTURE
     1 SER1        1 GROUP   
     2 ALA2        3 GROUP   
     3 ASP3        8 GROUP   
     4 PHE5       11 GROUP   
     5 GLY6       19 GROUP   
     6 CUB7       28 GROUP   
@<TRIPOS>SET

