#    Name: 6hx8_5_ACP
#    Modification time : Fri May 22 19:24:45 2020

@<TRIPOS>MOLECULE
6hx8_5_ACP
   31    33     1     0     1
SMALL
NO_CHARGES


@<TRIPOS>ATOM
      1 PG          8.4070   49.4490   94.7010 P.3       1 ACP401      0.0000 
      2 O1G         8.6500   49.6890   93.2610 O.co2     1 ACP401      0.0000 
      3 O2G         6.9440   48.8070   94.9060 O.co2     1 ACP401      0.0000 
      4 O3G         8.4830   50.8480   95.4940 O.co2     1 ACP401      0.0000 
      5 PB         11.2200   49.2100   95.6380 P.3       1 ACP401      0.0000 
      6 O1B        12.4320   48.4010   94.9510 O.co2     1 ACP401      0.0000 
      7 O2B        11.1500   50.5740   95.0690 O.co2     1 ACP401      0.0000 
      8 C3B         9.6650   48.3190   95.3590 C.3       1 ACP401      0.0000 
      9 PA         10.7190   50.4080   98.1040 P.3       1 ACP401      0.0000 
     10 O1A         9.4510   50.7790   97.3730 O.co2     1 ACP401      0.0000 
     11 O2A        11.6950   51.4970   98.4820 O.co2     1 ACP401      0.0000 
     12 O3A        11.4610   49.2760   97.2290 O.3       1 ACP401      0.0000 
     13 O5'        10.2860   49.5820   99.4160 O.3       1 ACP401      0.0000 
     14 C5'         9.4960   48.4040   99.2550 C.3       1 ACP401      0.0000 
     15 C4'         8.7000   48.1070  100.5180 C.3       1 ACP401      0.0000 
     16 O4'         9.4010   48.5700  101.6720 O.3       1 ACP401      0.0000 
     17 C3'         7.3560   48.8160  100.5040 C.3       1 ACP401      0.0000 
     18 O3'         6.3120   47.8840  100.2040 O.3       1 ACP401      0.0000 
     19 C2'         7.1850   49.3990  101.8930 C.3       1 ACP401      0.0000 
     20 O2'         6.1140   48.7480  102.5840 O.3       1 ACP401      0.0000 
     21 C1'         8.4900   49.1290  102.6190 C.3       1 ACP401      0.0000 
     22 N9          9.0420   50.4020  103.1370 N.pl3     1 ACP401      0.0000 
     23 C8         10.0550   51.0980  102.5890 C.2       1 ACP401      0.0000 
     24 N7         10.3220   52.2170  103.3100 N.2       1 ACP401      0.0000 
     25 C5          9.4650   52.2450  104.3460 C.ar      1 ACP401      0.0000 
     26 C6          9.2040   53.1500  105.4900 C.ar      1 ACP401      0.0000 
     27 N6          9.9340   54.2770  105.6720 N.pl3     1 ACP401      0.0000 
     28 N1          8.2120   52.8090  106.3440 N.ar      1 ACP401      0.0000 
     29 C2          7.4800   51.6910  106.1730 C.ar      1 ACP401      0.0000 
     30 N3          7.6620   50.8270  105.1590 N.ar      1 ACP401      0.0000 
     31 C4          8.6230   51.0450  104.2290 C.ar      1 ACP401      0.0000 
@<TRIPOS>BOND
     1    1    2 ar   
     2    1    3 ar   
     3    1    4 ar   
     4    1    8 1    
     5    5    6 ar   
     6    5    7 ar   
     7    5    8 1    
     8    5   12 1    
     9    9   10 ar   
    10    9   11 ar   
    11    9   12 1    
    12    9   13 1    
    13   13   14 1    
    14   14   15 1    
    15   15   16 1    
    16   15   17 1    
    17   16   21 1    
    18   17   18 1    
    19   17   19 1    
    20   19   20 1    
    21   19   21 1    
    22   21   22 1    
    23   22   23 1    
    24   22   31 1    
    25   23   24 2    
    26   24   25 1    
    27   25   26 ar   
    28   25   31 ar   
    29   26   27 1    
    30   26   28 ar   
    31   28   29 ar   
    32   29   30 ar   
    33   30   31 ar   
@<TRIPOS>SUBSTRUCTURE
     1 ACP401      1 GROUP   
@<TRIPOS>SET
ATOM$ORANGE STATIC     ATOMS   COLORGROUP SYSTEM 
22 8 8 14 14 15 15 17 17 19 19 21 21 23 23 25 25 26 \
26 29 29 31 31 

