#    Name: 6hx8_4_GDP
#    Modification time : Fri May 22 19:24:39 2020

@<TRIPOS>MOLECULE
6hx8_4_GDP
   28    30     1     0     1
SMALL
NO_CHARGES


@<TRIPOS>ATOM
      1 PB         26.2210  -11.1900  -43.3520 P.3       1 GDP501      0.0000 
      2 O1B        26.3450  -10.4600  -44.6690 O.co2     1 GDP501      0.0000 
      3 O2B        25.9510  -10.2060  -42.2380 O.co2     1 GDP501      0.0000 
      4 O3B        27.5130  -11.9250  -43.0740 O.co2     1 GDP501      0.0000 
      5 O3A        25.0410  -12.2800  -43.4420 O.3       1 GDP501      0.0000 
      6 PA         23.5630  -12.0120  -42.8600 P.3       1 GDP501      0.0000 
      7 O1A        22.5030  -12.3030  -43.8940 O.co2     1 GDP501      0.0000 
      8 O2A        23.4180  -10.5930  -42.3670 O.co2     1 GDP501      0.0000 
      9 O5'        23.4700  -13.0760  -41.6570 O.3       1 GDP501      0.0000 
     10 C5'        22.5010  -14.1170  -41.6940 C.3       1 GDP501      0.0000 
     11 C4'        21.5730  -13.9830  -40.5000 C.3       1 GDP501      0.0000 
     12 O4'        20.8380  -12.7720  -40.6540 O.3       1 GDP501      0.0000 
     13 C3'        20.5630  -15.1120  -40.4590 C.3       1 GDP501      0.0000 
     14 O3'        20.5590  -15.6680  -39.1420 O.3       1 GDP501      0.0000 
     15 C2'        19.2190  -14.4860  -40.7770 C.3       1 GDP501      0.0000 
     16 O2'        18.2130  -15.0020  -39.9050 O.3       1 GDP501      0.0000 
     17 C1'        19.4350  -13.0040  -40.5300 C.3       1 GDP501      0.0000 
     18 N9         18.7330  -12.1170  -41.4900 N.pl3     1 GDP501      0.0000 
     19 C8         19.1460  -11.8000  -42.7290 C.2       1 GDP501      0.0000 
     20 N7         18.2820  -10.9390  -43.3240 N.2       1 GDP501      0.0000 
     21 C5         17.2960  -10.6820  -42.4470 C.2       1 GDP501      0.0000 
     22 C6         16.0660   -9.8570  -42.4270 C.2       1 GDP501      0.0000 
     23 O6         15.7310   -9.1700  -43.4160 O.2       1 GDP501      0.0000 
     24 N1         15.3210   -9.8710  -41.3140 N.am      1 GDP501      0.0000 
     25 C2         15.6530  -10.6000  -40.2310 C.2       1 GDP501      0.0000 
     26 N2         14.8430  -10.5590  -39.1460 N.pl3     1 GDP501      0.0000 
     27 N3         16.7650  -11.3780  -40.1800 N.2       1 GDP501      0.0000 
     28 C4         17.6040  -11.4570  -41.2380 C.2       1 GDP501      0.0000 
@<TRIPOS>BOND
     1    1    2 ar   
     2    1    3 ar   
     3    1    4 ar   
     4    1    5 1    
     5    5    6 1    
     6    6    7 ar   
     7    6    8 ar   
     8    6    9 1    
     9    9   10 1    
    10   10   11 1    
    11   11   12 1    
    12   11   13 1    
    13   12   17 1    
    14   13   14 1    
    15   13   15 1    
    16   15   16 1    
    17   15   17 1    
    18   17   18 1    
    19   18   19 1    
    20   18   28 1    
    21   19   20 2    
    22   20   21 1    
    23   21   22 1    
    24   21   28 2    
    25   22   23 2    
    26   22   24 am   
    27   24   25 1    
    28   25   26 1    
    29   25   27 2    
    30   27   28 1    
@<TRIPOS>SUBSTRUCTURE
     1 GDP501      1 GROUP   
@<TRIPOS>SET
ATOM$ORANGE STATIC     ATOMS   COLORGROUP SYSTEM 
20 10 10 11 11 13 13 15 15 17 17 19 19 21 21 22 22 25 \
25 28 28 

