#    Name: 6hx8_3_GTP_CAVITY_N1_12
#    Modification time : Fri May 22 19:24:34 2020

@<TRIPOS>MOLECULE
6hx8_3_GTP_CAVITY_N1_12
   74     0     6     0     0
SMALL
NO_CHARGES


@<TRIPOS>ATOM
      1 OG          8.2000   16.4200  -17.0300 O.3       1 SER1        0.0000 
      2 OG          7.5700   15.2600  -16.3300 O.3       1 SER1        0.0000 
      3 O           6.9500   15.3300  -23.1700 O.2       2 ALA2        0.0000 
      4 O           7.6600   13.5400  -22.2700 O.2       2 ALA2        0.0000 
      5 N           6.5200   11.9400  -19.5500 N.am      2 ALA2        0.0000 
      6 N           5.1700   12.5600  -19.7500 N.am      2 ALA2        0.0000 
      7 N           4.5300   11.4000  -19.0500 N.am      2 ALA2        0.0000 
      8 O           4.7900   19.4400  -18.3400 O.2       2 ALA2        0.0000 
      9 N           8.9200   14.6400  -16.1300 N.am      2 ALA2        0.0000 
     10 N           8.2800   13.4800  -15.4200 N.am      2 ALA2        0.0000 
     11 O           4.9200   20.1600  -17.0300 O.2       2 ALA2        0.0000 
     12 O           4.2900   19.0000  -16.3300 O.2       2 ALA2        0.0000 
     13 OD1         6.0200   11.5000  -17.5400 O.co2     3 ASP3        0.0000 
     14 OD1         4.6700   12.1200  -17.7400 O.co2     3 ASP3        0.0000 
     15 OD1         4.7300   15.7800  -18.0400 O.co2     3 ASP3        0.0000 
     16 OD1         3.3800   16.4000  -18.2400 O.co2     3 ASP3        0.0000 
     17 OD1         2.0300   17.0200  -18.4400 O.co2     3 ASP3        0.0000 
     18 OD1         5.4400   14.0000  -17.1400 O.co2     3 ASP3        0.0000 
     19 OD1         4.0900   14.6200  -17.3400 O.co2     3 ASP3        0.0000 
     20 OD1         2.7400   15.2400  -17.5400 O.co2     3 ASP3        0.0000 
     21 OD1         6.1500   12.2200  -16.2300 O.co2     3 ASP3        0.0000 
     22 OD1         4.8000   12.8400  -16.4300 O.co2     3 ASP3        0.0000 
     23 OD1         4.1500   18.2800  -17.6400 O.co2     3 ASP3        0.0000 
     24 OD1         4.8600   16.5000  -16.7300 O.co2     3 ASP3        0.0000 
     25 OD1         5.5800   14.7200  -15.8300 O.co2     3 ASP3        0.0000 
     26 OD1         5.0000   17.2200  -15.4200 O.co2     3 ASP3        0.0000 
     27 CZ          6.7800   19.9800  -18.8400 C.ar      4 PHE5        0.0000 
     28 CZ          5.4300   20.6000  -19.0400 C.ar      4 PHE5        0.0000 
     29 CZ          7.4900   18.2000  -17.9400 C.ar      4 PHE5        0.0000 
     30 CZ          6.1400   18.8200  -18.1400 C.ar      4 PHE5        0.0000 
     31 CZ          6.8500   17.0400  -17.2300 C.ar      4 PHE5        0.0000 
     32 CZ          6.9900   17.7600  -15.9200 C.ar      4 PHE5        0.0000 
     33 CZ          5.6400   18.3800  -16.1300 C.ar      4 PHE5        0.0000 
     34 CZ          5.7700   19.1000  -14.8200 C.ar      4 PHE5        0.0000 
     35 CA          7.0200   12.3800  -21.5700 C.3       5 GLY6        0.0000 
     36 CA          5.7300   16.6700  -22.0700 C.3       5 GLY6        0.0000 
     37 CA          7.8000   14.2600  -20.9600 C.3       5 GLY6        0.0000 
     38 CA          6.4500   14.8800  -21.1600 C.3       5 GLY6        0.0000 
     39 CA          7.1600   13.1000  -20.2600 C.3       5 GLY6        0.0000 
     40 CA          4.4600   14.3400  -20.6600 C.3       5 GLY6        0.0000 
     41 CA          3.8200   13.1800  -19.9500 C.3       5 GLY6        0.0000 
     42 CA          5.8700   17.3800  -20.7600 C.3       5 GLY6        0.0000 
     43 CA          7.9300   14.9800  -19.6500 C.3       5 GLY6        0.0000 
     44 CA          6.5800   15.6000  -19.8500 C.3       5 GLY6        0.0000 
     45 CA          7.2900   13.8200  -18.9500 C.3       5 GLY6        0.0000 
     46 CA          6.6600   12.6600  -18.2400 C.3       5 GLY6        0.0000 
     47 CA          3.9500   13.9000  -18.6500 C.3       5 GLY6        0.0000 
     48 CA          2.6000   14.5200  -18.8500 C.3       5 GLY6        0.0000 
     49 CA          6.6400   19.2600  -20.1500 C.3       5 GLY6        0.0000 
     50 CA          6.0000   18.1000  -19.4500 C.3       5 GLY6        0.0000 
     51 CA          9.4200   15.0800  -18.1400 C.3       5 GLY6        0.0000 
     52 CA          8.0700   15.7000  -18.3400 C.3       5 GLY6        0.0000 
     53 CA          6.7200   16.3200  -18.5400 C.3       5 GLY6        0.0000 
     54 CA          7.4300   14.5400  -17.6400 C.3       5 GLY6        0.0000 
     55 CA          6.7900   13.3800  -16.9300 C.3       5 GLY6        0.0000 
     56 CA          3.4400   20.0600  -18.5400 C.3       5 GLY6        0.0000 
     57 CA          2.8000   18.9000  -17.8400 C.3       5 GLY6        0.0000 
     58 CA          6.2100   15.8800  -16.5300 C.3       5 GLY6        0.0000 
     59 CA          6.9300   14.1000  -15.6300 C.3       5 GLY6        0.0000 
     60 CA          7.7000   15.9800  -15.0200 C.3       5 GLY6        0.0000 
     61 CA          6.3500   16.6000  -15.2200 C.3       5 GLY6        0.0000 
     62 DU          5.0900   15.5000  -21.3600 H         6 CUB7        0.0000 
     63 DU          3.7400   16.1200  -21.5600 H         6 CUB7        0.0000 
     64 DU          5.8100   13.7200  -20.4600 H         6 CUB7        0.0000 
     65 DU          5.2300   16.2200  -20.0500 H         6 CUB7        0.0000 
     66 DU          5.9400   14.4400  -19.1500 H         6 CUB7        0.0000 
     67 DU          4.5900   15.0600  -19.3500 H         6 CUB7        0.0000 
     68 DU          3.2400   15.6800  -19.5500 H         6 CUB7        0.0000 
     69 DU          5.3100   13.2800  -18.4400 H         6 CUB7        0.0000 
     70 DU          5.3700   16.9400  -18.7400 H         6 CUB7        0.0000 
     71 DU          4.0200   17.5600  -18.9500 H         6 CUB7        0.0000 
     72 DU          2.6600   18.1800  -19.1500 H         6 CUB7        0.0000 
     73 DU          6.0800   15.1600  -17.8400 H         6 CUB7        0.0000 
     74 DU          5.5000   17.6600  -17.4300 H         6 CUB7        0.0000 
@<TRIPOS>BOND
@<TRIPOS>SUBSTRUCTURE
     1 SER1        1 GROUP   
     2 ALA2        3 GROUP   
     3 ASP3       13 GROUP   
     4 PHE5       27 GROUP   
     5 GLY6       35 GROUP   
     6 CUB7       62 GROUP   
@<TRIPOS>SET

