#    Name: 6hx8_1_GTP_CAVITY_N1_8
#    Modification time : Fri May 22 19:24:10 2020

@<TRIPOS>MOLECULE
6hx8_1_GTP_CAVITY_N1_8
   38     0     4     0     0
SMALL
NO_CHARGES


@<TRIPOS>ATOM
      1 OG         18.1200   76.7800   46.7300 O.3       1 SER1        0.0000 
      2 OG         16.1300   76.2400   47.2400 O.3       1 SER1        0.0000 
      3 OG         15.6200   75.8000   49.2500 O.3       1 SER1        0.0000 
      4 OG         14.2700   76.4200   49.0500 O.3       1 SER1        0.0000 
      5 N          17.2100   74.1800   44.8200 N.am      2 ALA2        0.0000 
      6 N          19.2600   78.3800   44.0200 N.am      2 ALA2        0.0000 
      7 N          17.9100   79.0000   43.8100 N.am      2 ALA2        0.0000 
      8 N          19.3300   75.4400   45.6200 N.am      2 ALA2        0.0000 
      9 N          17.3400   74.9000   46.1300 N.am      2 ALA2        0.0000 
     10 N          15.9900   75.5200   45.9300 N.am      2 ALA2        0.0000 
     11 N          15.3500   74.3600   46.6300 N.am      2 ALA2        0.0000 
     12 N          14.7200   73.2000   47.3300 N.am      2 ALA2        0.0000 
     13 N          18.6800   80.8800   44.4200 N.am      2 ALA2        0.0000 
     14 N          17.3300   81.5000   44.2200 N.am      2 ALA2        0.0000 
     15 N          18.0400   79.7200   45.1200 N.am      2 ALA2        0.0000 
     16 O          18.7500   77.9400   46.0300 O.2       2 ALA2        0.0000 
     17 N          17.4000   78.5600   45.8300 N.am      2 ALA2        0.0000 
     18 N          16.7700   77.4000   46.5300 N.am      2 ALA2        0.0000 
     19 N          14.7800   76.8600   47.0400 N.am      2 ALA2        0.0000 
     20 N          15.4900   75.0800   47.9400 N.am      2 ALA2        0.0000 
     21 N          14.8500   73.9200   48.6400 N.am      2 ALA2        0.0000 
     22 N          13.5000   74.5400   48.4400 N.am      2 ALA2        0.0000 
     23 N          12.8600   73.3800   49.1500 N.am      2 ALA2        0.0000 
     24 N          13.5800   71.6000   50.0500 N.am      2 ALA2        0.0000 
     25 N          14.9900   74.6400   49.9500 N.am      2 ALA2        0.0000 
     26 N          11.6500   74.7200   50.2600 N.am      2 ALA2        0.0000 
     27 N          12.3600   72.9400   51.1600 N.am      2 ALA2        0.0000 
     28 N          11.7800   75.4400   51.5600 N.am      2 ALA2        0.0000 
     29 CA         18.6900   74.2800   46.3300 C.3       3 GLY6        0.0000 
     30 CA         16.7000   73.7400   46.8300 C.3       3 GLY6        0.0000 
     31 CA         14.0800   72.0400   48.0400 C.3       3 GLY6        0.0000 
     32 CA         17.4800   75.6200   47.4400 C.3       3 GLY6        0.0000 
     33 CA         16.8400   74.4600   48.1400 C.3       3 GLY6        0.0000 
     34 CA         14.1400   75.7000   47.7400 C.3       3 GLY6        0.0000 
     35 CA         13.0000   74.1000   50.4600 C.3       3 GLY6        0.0000 
     36 CA         13.7700   75.9800   51.0600 C.3       3 GLY6        0.0000 
     37 DU         13.6400   75.2600   49.7500 H         4 CUB7        0.0000 
     38 DU         12.2900   75.8800   49.5500 H         4 CUB7        0.0000 
@<TRIPOS>BOND
@<TRIPOS>SUBSTRUCTURE
     1 SER1        1 GROUP   
     2 ALA2        5 GROUP   
     3 GLY6       29 GROUP   
     4 CUB7       37 GROUP   
@<TRIPOS>SET

