#    Name: 6hx8_1_GTP_CAVITY_N1_12
#    Modification time : Fri May 22 19:24:10 2020

@<TRIPOS>MOLECULE
6hx8_1_GTP_CAVITY_N1_12
   96     0     6     0     0
SMALL
NO_CHARGES


@<TRIPOS>ATOM
      1 OG         18.1200   76.7800   46.7300 O.3       1 SER1        0.0000 
      2 OG         16.1300   76.2400   47.2400 O.3       1 SER1        0.0000 
      3 OG         15.6200   75.8000   49.2500 O.3       1 SER1        0.0000 
      4 OG         14.2700   76.4200   49.0500 O.3       1 SER1        0.0000 
      5 O          12.3800   74.1600   43.6100 O.2       2 ALA2        0.0000 
      6 N          17.2100   74.1800   44.8200 N.am      2 ALA2        0.0000 
      7 O          13.8700   74.2600   45.1200 O.2       2 ALA2        0.0000 
      8 N          11.8800   73.7200   45.6200 N.am      2 ALA2        0.0000 
      9 N          11.2400   72.5600   46.3300 N.am      2 ALA2        0.0000 
     10 N           9.8900   73.1800   46.1300 N.am      2 ALA2        0.0000 
     11 N          19.2600   78.3800   44.0200 N.am      2 ALA2        0.0000 
     12 N          17.9100   79.0000   43.8100 N.am      2 ALA2        0.0000 
     13 N          19.3300   75.4400   45.6200 N.am      2 ALA2        0.0000 
     14 N          17.3400   74.9000   46.1300 N.am      2 ALA2        0.0000 
     15 N          15.9900   75.5200   45.9300 N.am      2 ALA2        0.0000 
     16 N          15.3500   74.3600   46.6300 N.am      2 ALA2        0.0000 
     17 N          14.7200   73.2000   47.3300 N.am      2 ALA2        0.0000 
     18 N          11.3800   73.2800   47.6400 N.am      2 ALA2        0.0000 
     19 N          10.7400   72.1200   48.3400 N.am      2 ALA2        0.0000 
     20 N           9.3900   72.7400   48.1400 N.am      2 ALA2        0.0000 
     21 N          10.1000   70.9600   49.0400 N.am      2 ALA2        0.0000 
     22 N          18.6800   80.8800   44.4200 N.am      2 ALA2        0.0000 
     23 N          17.3300   81.5000   44.2200 N.am      2 ALA2        0.0000 
     24 N          18.0400   79.7200   45.1200 N.am      2 ALA2        0.0000 
     25 O          18.7500   77.9400   46.0300 O.2       2 ALA2        0.0000 
     26 N          17.4000   78.5600   45.8300 N.am      2 ALA2        0.0000 
     27 N          16.7700   77.4000   46.5300 N.am      2 ALA2        0.0000 
     28 N          14.7800   76.8600   47.0400 N.am      2 ALA2        0.0000 
     29 N          15.4900   75.0800   47.9400 N.am      2 ALA2        0.0000 
     30 N          14.8500   73.9200   48.6400 N.am      2 ALA2        0.0000 
     31 N          13.5000   74.5400   48.4400 N.am      2 ALA2        0.0000 
     32 N          12.8600   73.3800   49.1500 N.am      2 ALA2        0.0000 
     33 N          13.5800   71.6000   50.0500 N.am      2 ALA2        0.0000 
     34 N          12.9400   70.4400   50.7600 N.am      2 ALA2        0.0000 
     35 N          11.5900   71.0600   50.5500 N.am      2 ALA2        0.0000 
     36 N          10.9500   69.9000   51.2600 N.am      2 ALA2        0.0000 
     37 N          14.9900   74.6400   49.9500 N.am      2 ALA2        0.0000 
     38 N          11.6500   74.7200   50.2600 N.am      2 ALA2        0.0000 
     39 N          12.3600   72.9400   51.1600 N.am      2 ALA2        0.0000 
     40 N          11.0100   73.5600   50.9600 N.am      2 ALA2        0.0000 
     41 N           9.6600   74.1800   50.7600 N.am      2 ALA2        0.0000 
     42 N          11.7200   71.7800   51.8600 N.am      2 ALA2        0.0000 
     43 N          10.3700   72.4000   51.6600 N.am      2 ALA2        0.0000 
     44 N          11.0800   70.6100   52.5700 N.am      2 ALA2        0.0000 
     45 N           9.7300   71.2400   52.3700 N.am      2 ALA2        0.0000 
     46 N          11.7800   75.4400   51.5600 N.am      2 ALA2        0.0000 
     47 N          10.4300   76.0600   51.3600 N.am      2 ALA2        0.0000 
     48 N           9.7900   74.9000   52.0700 N.am      2 ALA2        0.0000 
     49 N           9.1600   73.7400   52.7700 N.am      2 ALA2        0.0000 
     50 OD1        14.5800   72.4800   46.0300 O.co2     3 ASP3        0.0000 
     51 OD1        11.4400   76.9400   47.3400 O.co2     3 ASP3        0.0000 
     52 OD1        10.8000   75.7800   48.0400 O.co2     3 ASP3        0.0000 
     53 OD1        10.9300   76.5000   49.3500 O.co2     3 ASP3        0.0000 
     54 NZ          8.7500   71.5800   48.8400 N.4       4 LYS4        0.0000 
     55 NZ          8.8900   72.3000   50.1500 N.4       4 LYS4        0.0000 
     56 NZ          9.6000   70.5200   51.0600 N.4       4 LYS4        0.0000 
     57 NZ          9.0200   73.0200   51.4600 N.4       4 LYS4        0.0000 
     58 NZ          8.3800   71.8600   52.1700 N.4       4 LYS4        0.0000 
     59 CA         13.0900   72.3800   44.5200 C.3       5 GLY6        0.0000 
     60 CA         11.7400   73.0000   44.3100 C.3       5 GLY6        0.0000 
     61 CA         16.5700   73.0200   45.5200 C.3       5 GLY6        0.0000 
     62 CA         15.2200   73.6400   45.3200 C.3       5 GLY6        0.0000 
     63 CA         12.5200   74.8800   44.9200 C.3       5 GLY6        0.0000 
     64 CA         11.1700   75.5000   44.7200 C.3       5 GLY6        0.0000 
     65 CA         13.2300   73.1000   45.8200 C.3       5 GLY6        0.0000 
     66 CA         12.5900   71.9400   46.5300 C.3       5 GLY6        0.0000 
     67 CA         18.6900   74.2800   46.3300 C.3       5 GLY6        0.0000 
     68 CA         16.7000   73.7400   46.8300 C.3       5 GLY6        0.0000 
     69 CA         14.0000   74.9800   46.4300 C.3       5 GLY6        0.0000 
     70 CA         12.6500   75.6000   46.2300 C.3       5 GLY6        0.0000 
     71 CA         11.3000   76.2200   46.0300 C.3       5 GLY6        0.0000 
     72 CA         14.0800   72.0400   48.0400 C.3       5 GLY6        0.0000 
     73 CA         12.7300   72.6600   47.8400 C.3       5 GLY6        0.0000 
     74 CA         12.0900   71.5000   48.5400 C.3       5 GLY6        0.0000 
     75 CA         17.4800   75.6200   47.4400 C.3       5 GLY6        0.0000 
     76 CA         16.8400   74.4600   48.1400 C.3       5 GLY6        0.0000 
     77 CA         14.1400   75.7000   47.7400 C.3       5 GLY6        0.0000 
     78 CA         12.7900   76.3200   47.5400 C.3       5 GLY6        0.0000 
     79 CA         13.0000   74.1000   50.4600 C.3       5 GLY6        0.0000 
     80 CA         13.7700   75.9800   51.0600 C.3       5 GLY6        0.0000 
     81 DU         10.5300   74.3400   45.4200 H         6 CUB7        0.0000 
     82 DU         17.1900   80.7800   42.9100 H         6 CUB7        0.0000 
     83 DU         13.3600   73.8200   47.1300 H         6 CUB7        0.0000 
     84 DU         12.0100   74.4400   46.9300 H         6 CUB7        0.0000 
     85 DU         10.6600   75.0600   46.7300 H         6 CUB7        0.0000 
     86 DU         10.0300   73.9000   47.4400 H         6 CUB7        0.0000 
     87 DU         12.1500   75.1600   48.2400 H         6 CUB7        0.0000 
     88 DU         11.5100   74.0000   48.9500 H         6 CUB7        0.0000 
     89 DU         10.1600   74.6200   48.7500 H         6 CUB7        0.0000 
     90 DU         12.2200   72.2200   49.8500 H         6 CUB7        0.0000 
     91 DU         10.8700   72.8400   49.6500 H         6 CUB7        0.0000 
     92 DU          9.5200   73.4600   49.4500 H         6 CUB7        0.0000 
     93 DU         10.2400   71.6800   50.3500 H         6 CUB7        0.0000 
     94 DU         13.6400   75.2600   49.7500 H         6 CUB7        0.0000 
     95 DU         12.2900   75.8800   49.5500 H         6 CUB7        0.0000 
     96 DU         10.3000   75.3400   50.0500 H         6 CUB7        0.0000 
@<TRIPOS>BOND
@<TRIPOS>SUBSTRUCTURE
     1 SER1        1 GROUP   
     2 ALA2        5 GROUP   
     3 ASP3       50 GROUP   
     4 LYS4       54 GROUP   
     5 GLY6       59 GROUP   
     6 CUB7       81 GROUP   
@<TRIPOS>SET

