#    Name: 5x6q_1_FAD
#    Modification time : Fri May 22 19:18:29 2020

@<TRIPOS>MOLECULE
5x6q_1_FAD
   53    58     1     0     1
SMALL
NO_CHARGES


@<TRIPOS>ATOM
      1 PA          5.5950    5.5600   16.0460 P.3       1 FAD501      0.0000 
      2 O1A         5.4040    4.3200   15.2780 O.co2     1 FAD501      0.0000 
      3 O2A         6.8200    6.3240   15.6060 O.co2     1 FAD501      0.0000 
      4 O5B         4.2720    6.4280   16.0210 O.3       1 FAD501      0.0000 
      5 C5B         4.2840    7.8290   16.3780 C.3       1 FAD501      0.0000 
      6 C4B         3.1700    8.4670   15.5840 C.3       1 FAD501      0.0000 
      7 O4B         2.8690    9.7790   16.1150 O.3       1 FAD501      0.0000 
      8 C3B         3.4690    8.6550   14.0950 C.3       1 FAD501      0.0000 
      9 O3B         2.3380    8.2610   13.3300 O.3       1 FAD501      0.0000 
     10 C2B         3.7550   10.1660   13.9860 C.3       1 FAD501      0.0000 
     11 O2B         3.3730   10.6660   12.7040 O.3       1 FAD501      0.0000 
     12 C1B         2.8230   10.7120   15.0580 C.3       1 FAD501      0.0000 
     13 N9A         3.1960   12.0210   15.5960 N.pl3     1 FAD501      0.0000 
     14 C8A         4.4480   12.4350   15.9710 C.2       1 FAD501      0.0000 
     15 N7A         4.4780   13.6390   16.4940 N.2       1 FAD501      0.0000 
     16 C5A         3.1590   14.0480   16.4510 C.ar      1 FAD501      0.0000 
     17 C6A         2.5160   15.2370   16.8550 C.ar      1 FAD501      0.0000 
     18 N6A         3.1650   16.2960   17.3480 N.pl3     1 FAD501      0.0000 
     19 N1A         1.1750   15.3100   16.7090 N.ar      1 FAD501      0.0000 
     20 C2A         0.5280   14.2690   16.1740 C.ar      1 FAD501      0.0000 
     21 N3A         1.0250   13.1110   15.7310 N.ar      1 FAD501      0.0000 
     22 C4A         2.3500   13.0620   15.9010 C.ar      1 FAD501      0.0000 
     23 N1         11.0240   -2.2180   15.9790 N.2       1 FAD501      0.0000 
     24 C2         10.7200   -3.5330   15.8790 C.2       1 FAD501      0.0000 
     25 O2         10.0510   -4.1110   16.7530 O.2       1 FAD501      0.0000 
     26 N3         11.2500   -4.2720   14.8490 N.am      1 FAD501      0.0000 
     27 C4         12.1550   -3.8180   13.9060 C.2       1 FAD501      0.0000 
     28 O4         12.5790   -4.5650   13.0340 O.2       1 FAD501      0.0000 
     29 C4X        12.5200   -2.4440   14.0590 C.2       1 FAD501      0.0000 
     30 N5         13.3980   -1.9450   13.2360 N.2       1 FAD501      0.0000 
     31 C5X        13.6920   -0.5970   13.3350 C.ar      1 FAD501      0.0000 
     32 C6         14.6650   -0.0490   12.4940 C.ar      1 FAD501      0.0000 
     33 C7         15.0340    1.2900   12.5970 C.ar      1 FAD501      0.0000 
     34 C7M        16.1130    1.8360   11.6990 C.3       1 FAD501      0.0000 
     35 C8         14.3890    2.1130   13.5350 C.ar      1 FAD501      0.0000 
     36 C8M        14.7540    3.5700   13.6730 C.3       1 FAD501      0.0000 
     37 C9         13.4040    1.5730   14.3570 C.ar      1 FAD501      0.0000 
     38 C9A        13.0690    0.2250   14.2790 C.ar      1 FAD501      0.0000 
     39 N10        12.1590   -0.3750   15.1740 N.pl3     1 FAD501      0.0000 
     40 C10        11.8690   -1.7070   15.0980 C.2       1 FAD501      0.0000 
     41 C1'        11.5230    0.4240   16.2220 C.3       1 FAD501      0.0000 
     42 C2'        10.1340    0.8940   15.8150 C.3       1 FAD501      0.0000 
     43 O2'        10.1560    1.6310   14.5890 O.3       1 FAD501      0.0000 
     44 C3'         9.5170    1.7730   16.8990 C.3       1 FAD501      0.0000 
     45 O3'         9.9010    1.3060   18.1810 O.3       1 FAD501      0.0000 
     46 C4'         7.9940    1.8850   16.8600 C.3       1 FAD501      0.0000 
     47 O4'         7.6240    2.4100   15.5850 O.3       1 FAD501      0.0000 
     48 C5'         7.4500    2.7970   17.9380 C.3       1 FAD501      0.0000 
     49 O5'         6.0100    2.6790   17.8660 O.3       1 FAD501      0.0000 
     50 P           5.2140    3.9860   18.3960 P.3       1 FAD501      0.0000 
     51 O1P         3.7620    3.8670   18.1380 O.co2     1 FAD501      0.0000 
     52 O2P         5.5880    4.2010   19.8760 O.co2     1 FAD501      0.0000 
     53 O3P         5.8140    5.2040   17.5780 O.3       1 FAD501      0.0000 
@<TRIPOS>BOND
     1    1    2 ar   
     2    1    3 ar   
     3    1    4 1    
     4    1   53 1    
     5    4    5 1    
     6    5    6 1    
     7    6    7 1    
     8    6    8 1    
     9    7   12 1    
    10    8    9 1    
    11    8   10 1    
    12   10   11 1    
    13   10   12 1    
    14   12   13 1    
    15   13   14 1    
    16   13   22 1    
    17   14   15 2    
    18   15   16 1    
    19   16   17 ar   
    20   16   22 ar   
    21   17   18 1    
    22   17   19 ar   
    23   19   20 ar   
    24   20   21 ar   
    25   21   22 ar   
    26   23   24 1    
    27   23   40 2    
    28   24   25 2    
    29   24   26 am   
    30   26   27 am   
    31   27   28 2    
    32   27   29 1    
    33   29   30 2    
    34   29   40 1    
    35   30   31 1    
    36   31   32 ar   
    37   31   38 ar   
    38   32   33 ar   
    39   33   34 1    
    40   33   35 ar   
    41   35   36 1    
    42   35   37 ar   
    43   37   38 ar   
    44   38   39 1    
    45   39   40 1    
    46   39   41 1    
    47   41   42 1    
    48   42   43 1    
    49   42   44 1    
    50   44   45 1    
    51   44   46 1    
    52   46   47 1    
    53   46   48 1    
    54   48   49 1    
    55   49   50 1    
    56   50   51 ar   
    57   50   52 ar   
    58   50   53 1    
@<TRIPOS>SUBSTRUCTURE
     1 FAD501      1 GROUP   
@<TRIPOS>SET
ATOM$ORANGE STATIC     ATOMS   COLORGROUP SYSTEM 
54 5 5 6 6 8 8 10 10 12 12 14 14 16 16 17 17 20 \
20 22 22 24 24 27 27 29 29 31 31 32 32 33 33 34 34 35 \
35 36 36 37 37 38 38 40 40 41 41 42 42 44 44 46 46 48 \
48 

