#    Name: 6g9w_1_UTP
#    Modification time : Fri May 22 19:26:16 2020

@<TRIPOS>MOLECULE
6g9w_1_UTP
   29    30     1     0     0
SMALL
NO_CHARGES


@<TRIPOS>ATOM
      1 PA         48.8960   90.6890   18.9280 P.3       1 UTP601      0.0000 
      2 O1A        49.1800   89.3620   18.3430 O.co2     1 UTP601      0.0000 
      3 O2A        49.4190   90.9970   20.2740 O.co2     1 UTP601      0.0000 
      4 O3A        47.2810   90.9440   18.8740 O.3       1 UTP601      0.0000 
      5 O5'        49.4420   91.7710   17.8250 O.3       1 UTP601      0.0000 
      6 PB         46.4190   91.7660   19.9930 P.3       1 UTP601      0.0000 
      7 O1B        45.8390   90.7850   20.9340 O.co2     1 UTP601      0.0000 
      8 O2B        47.2540   92.8620   20.5370 O.co2     1 UTP601      0.0000 
      9 O3B        45.2270   92.3610   19.0540 O.3       1 UTP601      0.0000 
     10 PG         45.3560   93.8310   18.3760 P.3       1 UTP601      0.0000 
     11 O1G        43.9190   94.2090   17.7520 O.co2     1 UTP601      0.0000 
     12 O2G        46.3380   93.6880   17.0900 O.co2     1 UTP601      0.0000 
     13 O3G        45.8300   94.8790   19.3240 O.co2     1 UTP601      0.0000 
     14 C5'        49.6760   93.1720   18.1180 C.3       1 UTP601      0.0000 
     15 C4'        51.0610   93.4360   18.7460 C.3       1 UTP601      0.0000 
     16 O4'        50.8610   93.4000   20.1710 O.3       1 UTP601      0.0000 
     17 C1'        52.1770   93.2830   20.7420 C.3       1 UTP601      0.0000 
     18 C2'        52.9560   92.3910   19.7580 C.3       1 UTP601      0.0000 
     19 O2'        54.2050   92.9920   19.4370 O.3       1 UTP601      0.0000 
     20 C3'        52.0770   92.3130   18.5100 C.3       1 UTP601      0.0000 
     21 O3'        52.8550   92.5360   17.3220 O.3       1 UTP601      0.0000 
     22 N1         52.1730   92.6690   22.1120 N.am      1 UTP601      0.0000 
     23 C6         51.7340   91.3360   22.3090 C.2       1 UTP601      0.0000 
     24 C2         52.6270   93.3990   23.2360 C.2       1 UTP601      0.0000 
     25 O2         53.0210   94.5600   23.1300 O.2       1 UTP601      0.0000 
     26 N3         52.6300   92.8030   24.5080 N.am      1 UTP601      0.0000 
     27 C4         52.1910   91.4820   24.6820 C.2       1 UTP601      0.0000 
     28 O4         52.2020   90.9800   25.8060 O.2       1 UTP601      0.0000 
     29 C5         51.7430   90.7530   23.5800 C.2       1 UTP601      0.0000 
@<TRIPOS>BOND
     1    1    2 ar   
     2    1    3 ar   
     3    1    4 1    
     4    1    5 1    
     5    4    6 1    
     6    5   14 1    
     7    6    7 ar   
     8    6    8 ar   
     9    6    9 1    
    10    9   10 1    
    11   10   11 ar   
    12   10   12 ar   
    13   10   13 ar   
    14   14   15 1    
    15   15   16 1    
    16   15   20 1    
    17   16   17 1    
    18   17   18 1    
    19   17   22 1    
    20   18   19 1    
    21   18   20 1    
    22   20   21 1    
    23   22   23 1    
    24   22   24 1    
    25   23   29 2    
    26   24   25 2    
    27   24   26 1    
    28   26   27 1    
    29   27   28 2    
    30   27   29 1    
@<TRIPOS>SUBSTRUCTURE
     1 UTP601      1 GROUP   
@<TRIPOS>SET

