#    Name: 6g9w_2_UTP
#    Modification time : Fri May 22 19:26:25 2020

@<TRIPOS>MOLECULE
6g9w_2_UTP
   29    30     1     0     0
SMALL
NO_CHARGES


@<TRIPOS>ATOM
      1 PA         25.4570   67.4580   -1.2410 P.3       1 UTP601      0.0000 
      2 O1A        25.8370   68.6090   -2.1080 O.co2     1 UTP601      0.0000 
      3 O2A        24.0300   67.1510   -0.9830 O.co2     1 UTP601      0.0000 
      4 O3A        26.2910   67.5760    0.1530 O.3       1 UTP601      0.0000 
      5 O5'        26.0700   66.1270   -1.8980 O.3       1 UTP601      0.0000 
      6 PB         25.5740   67.5830    1.6010 P.3       1 UTP601      0.0000 
      7 O1B        26.5820   68.1090    2.5410 O.co2     1 UTP601      0.0000 
      8 O2B        24.9530   66.2640    1.8570 O.co2     1 UTP601      0.0000 
      9 O3B        24.3660   68.6380    1.3200 O.3       1 UTP601      0.0000 
     10 PG         23.8480   69.8070    2.2900 P.3       1 UTP601      0.0000 
     11 O1G        23.3010   69.1120    3.6520 O.co2     1 UTP601      0.0000 
     12 O2G        22.8030   70.6360    1.6170 O.co2     1 UTP601      0.0000 
     13 O3G        25.1190   70.7000    2.7160 O.co2     1 UTP601      0.0000 
     14 C5'        26.0660   64.8820   -1.1810 C.3       1 UTP601      0.0000 
     15 C4'        27.4480   64.1880   -1.2720 C.3       1 UTP601      0.0000 
     16 O4'        28.2730   64.6800   -2.3880 O.3       1 UTP601      0.0000 
     17 C1'        29.5680   65.1030   -1.8350 C.3       1 UTP601      0.0000 
     18 C2'        29.3040   65.4060   -0.3590 C.3       1 UTP601      0.0000 
     19 O2'        30.5020   65.1980    0.4240 O.3       1 UTP601      0.0000 
     20 C3'        28.2830   64.3670    0.0140 C.3       1 UTP601      0.0000 
     21 O3'        29.0280   63.1690    0.2570 O.3       1 UTP601      0.0000 
     22 N1         30.0280   66.3820   -2.4210 N.am      1 UTP601      0.0000 
     23 C6         29.0730   67.3510   -2.8390 C.2       1 UTP601      0.0000 
     24 C2         31.4090   66.6530   -2.5470 C.2       1 UTP601      0.0000 
     25 O2         32.2600   65.8330   -2.1870 O.2       1 UTP601      0.0000 
     26 N3         31.8070   67.8890   -3.1000 N.am      1 UTP601      0.0000 
     27 C4         30.8510   68.8260   -3.5170 C.2       1 UTP601      0.0000 
     28 O4         31.2220   69.8820   -4.0020 O.2       1 UTP601      0.0000 
     29 C5         29.4860   68.5640   -3.3870 C.2       1 UTP601      0.0000 
@<TRIPOS>BOND
     1    1    2 ar   
     2    1    3 ar   
     3    1    4 1    
     4    1    5 1    
     5    4    6 1    
     6    5   14 1    
     7    6    7 ar   
     8    6    8 ar   
     9    6    9 1    
    10    9   10 1    
    11   10   11 ar   
    12   10   12 ar   
    13   10   13 ar   
    14   14   15 1    
    15   15   16 1    
    16   15   20 1    
    17   16   17 1    
    18   17   18 1    
    19   17   22 1    
    20   18   19 1    
    21   18   20 1    
    22   20   21 1    
    23   22   23 1    
    24   22   24 1    
    25   23   29 2    
    26   24   25 2    
    27   24   26 1    
    28   26   27 1    
    29   27   28 2    
    30   27   29 1    
@<TRIPOS>SUBSTRUCTURE
     1 UTP601      1 GROUP   
@<TRIPOS>SET

