#    Name: 5zzr_3_FMN
#    Modification time : Fri May 22 19:23:34 2020

@<TRIPOS>MOLECULE
5zzr_3_FMN
   31    33     1     0     1
SMALL
NO_CHARGES


@<TRIPOS>ATOM
      1 N1         -9.1290  -29.5610  -33.7070 N.2       1 FMN401      0.0000 
      2 C2         -9.1790  -30.7690  -34.2960 C.2       1 FMN401      0.0000 
      3 O2         -9.2500  -30.8420  -35.5370 O.2       1 FMN401      0.0000 
      4 N3         -9.1890  -31.8960  -33.5450 N.am      1 FMN401      0.0000 
      5 C4         -9.0960  -31.8810  -32.2100 C.2       1 FMN401      0.0000 
      6 O4         -9.0890  -32.9500  -31.5160 O.2       1 FMN401      0.0000 
      7 C4A        -9.0510  -30.6130  -31.5100 C.2       1 FMN401      0.0000 
      8 N5         -8.9840  -30.5040  -30.1570 N.2       1 FMN401      0.0000 
      9 C5A        -8.9570  -29.2720  -29.5890 C.ar      1 FMN401      0.0000 
     10 C6         -8.8990  -29.1260  -28.2130 C.ar      1 FMN401      0.0000 
     11 C7         -8.9250  -27.8910  -27.5940 C.ar      1 FMN401      0.0000 
     12 C7M        -8.8930  -27.7660  -26.0860 C.3       1 FMN401      0.0000 
     13 C8         -9.0000  -26.7030  -28.4230 C.ar      1 FMN401      0.0000 
     14 C8M        -9.0340  -25.3550  -27.7880 C.3       1 FMN401      0.0000 
     15 C9         -9.0650  -26.8280  -29.7980 C.ar      1 FMN401      0.0000 
     16 C9A        -9.0300  -28.0570  -30.4160 C.ar      1 FMN401      0.0000 
     17 N10        -9.0660  -28.2040  -31.8030 N.pl3     1 FMN401      0.0000 
     18 C10        -9.0840  -29.4400  -32.3840 C.2       1 FMN401      0.0000 
     19 C1'        -9.0950  -27.0100  -32.6710 C.3       1 FMN401      0.0000 
     20 C2'       -10.5100  -26.5110  -32.8730 C.3       1 FMN401      0.0000 
     21 O2'       -11.2220  -27.3950  -33.7000 O.3       1 FMN401      0.0000 
     22 C3'       -10.5650  -25.1620  -33.5630 C.3       1 FMN401      0.0000 
     23 O3'        -9.7290  -25.1800  -34.7280 O.3       1 FMN401      0.0000 
     24 C4'       -10.1980  -24.0210  -32.6600 C.3       1 FMN401      0.0000 
     25 O4'       -10.7070  -24.2970  -31.3370 O.3       1 FMN401      0.0000 
     26 C5'       -10.8800  -22.7600  -33.2080 C.3       1 FMN401      0.0000 
     27 O5'       -10.5080  -21.6440  -32.4840 O.3       1 FMN401      0.0000 
     28 P         -11.4130  -21.0850  -31.2760 P.3       1 FMN401      0.0000 
     29 O1P       -11.1580  -22.0110  -30.1050 O.co2     1 FMN401      0.0000 
     30 O2P       -10.7140  -19.7520  -31.1510 O.co2     1 FMN401      0.0000 
     31 O3P       -12.8690  -20.9770  -31.6200 O.co2     1 FMN401      0.0000 
@<TRIPOS>BOND
     1    1    2 1    
     2    1   18 2    
     3    2    3 2    
     4    2    4 am   
     5    4    5 am   
     6    5    6 2    
     7    5    7 1    
     8    7    8 2    
     9    7   18 1    
    10    8    9 1    
    11    9   10 ar   
    12    9   16 ar   
    13   10   11 ar   
    14   11   12 1    
    15   11   13 ar   
    16   13   14 1    
    17   13   15 ar   
    18   15   16 ar   
    19   16   17 1    
    20   17   18 1    
    21   17   19 1    
    22   19   20 1    
    23   20   21 1    
    24   20   22 1    
    25   22   23 1    
    26   22   24 1    
    27   24   25 1    
    28   24   26 1    
    29   26   27 1    
    30   27   28 1    
    31   28   29 ar   
    32   28   30 ar   
    33   28   31 ar   
@<TRIPOS>SUBSTRUCTURE
     1 FMN401      1 GROUP   
@<TRIPOS>SET
ATOM$ORANGE STATIC     ATOMS   COLORGROUP SYSTEM 
34 2 2 5 5 7 7 9 9 10 10 11 11 12 12 13 13 14 \
14 15 15 16 16 18 18 19 19 20 20 22 22 24 24 26 26 

