#    Name: 5zzr_3_FMN_CAVITY_N1_4
#    Modification time : Fri May 22 19:23:36 2020

@<TRIPOS>MOLECULE
5zzr_3_FMN_CAVITY_N1_4
   66     0     6     0     0
SMALL
NO_CHARGES


@<TRIPOS>ATOM
      1 OG         -7.5400  -30.4800  -31.9000 O.3       1 SER1        0.0000 
      2 OG         -6.9900  -31.5800  -31.0300 O.3       1 SER1        0.0000 
      3 OG         -6.4400  -32.6700  -30.1700 O.3       1 SER1        0.0000 
      4 OG         -8.5900  -28.2700  -31.0300 O.3       1 SER1        0.0000 
      5 OG         -8.0400  -29.3700  -30.1700 O.3       1 SER1        0.0000 
      6 OG         -6.2900  -30.5600  -30.1900 O.3       1 SER1        0.0000 
      7 OG         -5.0800  -30.6500  -31.0700 O.3       1 SER1        0.0000 
      8 N         -11.5900  -27.0000  -32.7300 N.am      2 ALA2        0.0000 
      9 O          -9.9500  -30.2900  -30.1300 O.2       2 ALA2        0.0000 
     10 N          -9.8400  -28.2000  -32.7500 N.am      2 ALA2        0.0000 
     11 N          -9.2900  -29.2900  -31.8800 N.am      2 ALA2        0.0000 
     12 N          -8.7400  -30.3900  -31.0200 N.am      2 ALA2        0.0000 
     13 N         -10.8900  -25.9800  -31.8800 N.am      2 ALA2        0.0000 
     14 N         -10.3400  -27.0800  -31.0200 N.am      2 ALA2        0.0000 
     15 N          -9.8000  -28.1700  -30.1500 N.am      2 ALA2        0.0000 
     16 O          -8.7000  -30.3700  -28.4200 O.2       2 ALA2        0.0000 
     17 N          -9.1400  -27.1800  -31.9000 N.am      2 ALA2        0.0000 
     18 O         -12.4900  -22.6800  -31.8800 O.2       2 ALA2        0.0000 
     19 O         -11.2800  -22.7700  -32.7700 O.2       2 ALA2        0.0000 
     20 O          -9.5300  -23.9600  -32.7900 O.2       2 ALA2        0.0000 
     21 N          -8.9800  -25.0600  -31.9200 N.am      2 ALA2        0.0000 
     22 O         -11.7900  -21.6600  -31.0400 O.2       2 ALA2        0.0000 
     23 O         -11.2400  -22.7500  -30.1700 O.2       2 ALA2        0.0000 
     24 OD1       -10.3900  -27.1000  -33.6100 O.co2     3 ASP3        0.0000 
     25 OD1        -9.6800  -26.0800  -32.7700 O.co2     3 ASP3        0.0000 
     26 OD1        -8.4800  -26.1800  -33.6500 O.co2     3 ASP3        0.0000 
     27 OD1        -9.0900  -27.1500  -29.3000 O.co2     3 ASP3        0.0000 
     28 OD1        -8.5500  -28.2500  -28.4400 O.co2     3 ASP3        0.0000 
     29 OD1        -8.0000  -29.3500  -27.5700 O.co2     3 ASP3        0.0000 
     30 OD1        -7.8900  -27.2500  -30.1900 O.co2     3 ASP3        0.0000 
     31 OD1        -7.3400  -28.3500  -29.3200 O.co2     3 ASP3        0.0000 
     32 OD1        -6.7900  -29.4400  -28.4600 O.co2     3 ASP3        0.0000 
     33 OD1        -6.2400  -30.5400  -27.5900 O.co2     3 ASP3        0.0000 
     34 OD1        -5.5800  -29.5400  -29.3400 O.co2     3 ASP3        0.0000 
     35 OD1        -9.0500  -27.1300  -26.7100 O.co2     3 ASP3        0.0000 
     36 OD1       -10.5800  -21.7500  -31.9200 O.co2     3 ASP3        0.0000 
     37 OD1       -10.0400  -22.8500  -31.0500 O.co2     3 ASP3        0.0000 
     38 OD1        -9.4900  -23.9400  -30.1900 O.co2     3 ASP3        0.0000 
     39 OD1        -8.3900  -26.1300  -28.4600 O.co2     3 ASP3        0.0000 
     40 NZ        -10.9300  -26.0000  -34.4800 N.4       4 LYS4        0.0000 
     41 NZ        -11.9900  -23.7900  -33.6100 N.4       4 LYS4        0.0000 
     42 NZ        -10.2300  -24.9800  -33.6300 N.4       4 LYS4        0.0000 
     43 NZ        -10.0800  -22.8700  -33.6500 N.4       4 LYS4        0.0000 
     44 CA         -8.2000  -31.4800  -30.1500 C.3       5 GLY6        0.0000 
     45 CA         -5.8900  -33.7700  -29.3000 C.3       5 GLY6        0.0000 
     46 CA        -12.1000  -25.8900  -31.0000 C.3       5 GLY6        0.0000 
     47 CA        -11.4400  -24.8900  -32.7500 C.3       5 GLY6        0.0000 
     48 CA         -9.2500  -29.2700  -29.2800 C.3       5 GLY6        0.0000 
     49 CA         -8.1500  -31.4600  -27.5500 C.3       5 GLY6        0.0000 
     50 CA         -7.4900  -30.4600  -29.3000 C.3       5 GLY6        0.0000 
     51 CA         -6.9500  -31.5600  -28.4400 C.3       5 GLY6        0.0000 
     52 CA         -5.7400  -31.6500  -29.3200 C.3       5 GLY6        0.0000 
     53 CA        -11.4000  -24.8700  -30.1500 C.3       5 GLY6        0.0000 
     54 CA        -10.8500  -25.9600  -29.2800 C.3       5 GLY6        0.0000 
     55 CA        -10.3000  -27.0600  -28.4200 C.3       5 GLY6        0.0000 
     56 CA         -9.7500  -28.1500  -27.5500 C.3       5 GLY6        0.0000 
     57 CA         -9.2100  -29.2500  -26.6900 C.3       5 GLY6        0.0000 
     58 CA        -10.7400  -23.8700  -31.9000 C.3       5 GLY6        0.0000 
     59 CA         -8.4300  -26.1600  -31.0500 C.3       5 GLY6        0.0000 
     60 CA        -10.7000  -23.8500  -29.3000 C.3       5 GLY6        0.0000 
     61 CA        -10.1500  -24.9400  -28.4400 C.3       5 GLY6        0.0000 
     62 CA         -9.6000  -26.0400  -27.5700 C.3       5 GLY6        0.0000 
     63 CA         -8.9400  -25.0400  -29.3200 C.3       5 GLY6        0.0000 
     64 CA         -8.2800  -24.0400  -31.0700 C.3       5 GLY6        0.0000 
     65 DU        -10.1900  -24.9600  -31.0300 H         6 CUB7        0.0000 
     66 DU         -9.6400  -26.0600  -30.1700 H         6 CUB7        0.0000 
@<TRIPOS>BOND
@<TRIPOS>SUBSTRUCTURE
     1 SER1        1 GROUP   
     2 ALA2        8 GROUP   
     3 ASP3       24 GROUP   
     4 LYS4       40 GROUP   
     5 GLY6       44 GROUP   
     6 CUB7       65 GROUP   
@<TRIPOS>SET

