#    Name: 5v4v_3_FMN
#    Modification time : Fri May 22 19:14:59 2020

@<TRIPOS>MOLECULE
5v4v_3_FMN
   50    52     1     0     1
SMALL
NO_CHARGES


@<TRIPOS>ATOM
      1 N1        -13.4300  -50.8110   32.5750 N.2       1 FMN401      0.0000 
      2 C2        -12.7140  -51.8460   32.0270 C.2       1 FMN401      0.0000 
      3 O2        -11.6780  -52.2490   32.5900 O.2       1 FMN401      0.0000 
      4 N3        -13.1520  -52.4210   30.8520 N.am      1 FMN401      0.0000 
      5 C4        -14.2770  -51.9640   30.2080 C.2       1 FMN401      0.0000 
      6 O4        -14.6060  -52.4790   29.1230 O.2       1 FMN401      0.0000 
      7 C4A       -15.0030  -50.9180   30.7880 C.2       1 FMN401      0.0000 
      8 N5        -16.1680  -50.4570   30.2140 N.2       1 FMN401      0.0000 
      9 C5A       -16.8760  -49.4100   30.7660 C.ar      1 FMN401      0.0000 
     10 C6        -18.0210  -48.9350   30.1520 C.ar      1 FMN401      0.0000 
     11 C7        -18.7510  -47.8960   30.7070 C.ar      1 FMN401      0.0000 
     12 C7M       -19.9730  -47.4140   29.9880 C.3       1 FMN401      0.0000 
     13 C8        -18.3150  -47.3210   31.8980 C.ar      1 FMN401      0.0000 
     14 C8M       -19.0760  -46.2040   32.5390 C.3       1 FMN401      0.0000 
     15 C9        -17.1670  -47.7960   32.5030 C.ar      1 FMN401      0.0000 
     16 C9A       -16.4290  -48.8320   31.9470 C.ar      1 FMN401      0.0000 
     17 N10       -15.2820  -49.3230   32.5620 N.pl3     1 FMN401      0.0000 
     18 C10       -14.5830  -50.3600   31.9810 C.2       1 FMN401      0.0000 
     19 C1'       -14.7450  -48.7070   33.8220 C.3       1 FMN401      0.0000 
     20 C2'       -13.9720  -47.4500   33.3730 C.3       1 FMN401      0.0000 
     21 O2'       -12.8100  -47.7660   32.5900 O.3       1 FMN401      0.0000 
     22 C3'       -13.5500  -46.5700   34.5510 C.3       1 FMN401      0.0000 
     23 O3'       -12.7520  -47.3530   35.4190 O.3       1 FMN401      0.0000 
     24 C4'       -14.7560  -46.0120   35.3310 C.3       1 FMN401      0.0000 
     25 O4'       -15.7690  -45.5340   34.4620 O.3       1 FMN401      0.0000 
     26 C5'       -14.3480  -44.8880   36.2860 C.3       1 FMN401      0.0000 
     27 O5'       -13.7100  -43.8160   35.6250 O.3       1 FMN401      0.0000 
     28 P         -14.5430  -42.4810   35.2690 P.3       1 FMN401      0.0000 
     29 O1P       -15.1390  -41.8700   36.5120 O.co2     1 FMN401      0.0000 
     30 O2P       -15.6490  -42.8920   34.3130 O.co2     1 FMN401      0.0000 
     31 O3P       -13.5630  -41.5110   34.6570 O.co2     1 FMN401      0.0000 
     32 HN3       -12.6200  -53.2180   30.4460 H         1 FMN401      0.0000 
     33 H6        -18.3540  -49.3850   29.2170 H         1 FMN401      0.0000 
     34 HM71      -20.4180  -46.5880   30.5420 H         1 FMN401      0.0000 
     35 HM72      -20.6920  -48.2290   29.9100 H         1 FMN401      0.0000 
     36 HM73      -19.6970  -47.0760   28.9900 H         1 FMN401      0.0000 
     37 HM81      -18.5760  -45.9050   33.4590 H         1 FMN401      0.0000 
     38 HM82      -20.0890  -46.5380   32.7670 H         1 FMN401      0.0000 
     39 HM83      -19.1190  -45.3560   31.8560 H         1 FMN401      0.0000 
     40 H9        -16.8340  -47.3470   33.4390 H         1 FMN401      0.0000 
     41 H1'1      -14.0810  -49.4020   34.3350 H         1 FMN401      0.0000 
     42 H1'2      -15.5610  -48.4350   34.4920 H         1 FMN401      0.0000 
     43 H2'       -14.6500  -46.8590   32.7570 H         1 FMN401      0.0000 
     44 HO2'      -12.0210  -47.3460   32.9920 H         1 FMN401      0.0000 
     45 H3'       -12.9650  -45.7330   34.1690 H         1 FMN401      0.0000 
     46 HO3'      -13.1520  -47.3590   36.3140 H         1 FMN401      0.0000 
     47 H4'       -15.1650  -46.8240   35.9330 H         1 FMN401      0.0000 
     48 HO4'      -15.9690  -44.5990   34.6770 H         1 FMN401      0.0000 
     49 H5'1      -13.6770  -45.2900   37.0450 H         1 FMN401      0.0000 
     50 H5'2      -15.2360  -44.5140   36.7970 H         1 FMN401      0.0000 
@<TRIPOS>BOND
     1    1    2 1    
     2    1   18 2    
     3    2    3 2    
     4    2    4 am   
     5    4    5 am   
     6    4   32 1    
     7    5    6 2    
     8    5    7 1    
     9    7    8 2    
    10    7   18 1    
    11    8    9 1    
    12    9   10 ar   
    13    9   16 ar   
    14   10   11 ar   
    15   10   33 1    
    16   11   12 1    
    17   11   13 ar   
    18   12   34 1    
    19   12   35 1    
    20   12   36 1    
    21   13   14 1    
    22   13   15 ar   
    23   14   37 1    
    24   14   38 1    
    25   14   39 1    
    26   15   16 ar   
    27   15   40 1    
    28   16   17 1    
    29   17   18 1    
    30   17   19 1    
    31   19   20 1    
    32   19   41 1    
    33   19   42 1    
    34   20   21 1    
    35   20   22 1    
    36   20   43 1    
    37   21   44 1    
    38   22   23 1    
    39   22   24 1    
    40   22   45 1    
    41   23   46 1    
    42   24   25 1    
    43   24   26 1    
    44   24   47 1    
    45   25   48 1    
    46   26   27 1    
    47   26   49 1    
    48   26   50 1    
    49   27   28 1    
    50   28   29 ar   
    51   28   30 ar   
    52   28   31 ar   
@<TRIPOS>SUBSTRUCTURE
     1 FMN401      1 GROUP   
@<TRIPOS>SET
ATOM$ORANGE STATIC     ATOMS   COLORGROUP SYSTEM 
34 2 2 5 5 7 7 9 9 10 10 11 11 12 12 13 13 14 \
14 15 15 16 16 18 18 19 19 20 20 22 22 24 24 26 26 

