#    Name: 6n2o_2_TPP
#    Modification time : Fri May 22 19:25:45 2020

@<TRIPOS>MOLECULE
6n2o_2_TPP
   26    27     1     0     1
SMALL
NO_CHARGES


@<TRIPOS>ATOM
      1 N1'        12.3480    4.0280   -9.9590 N.ar      1 TPP402      0.0000 
      2 C2'        11.3740    4.9280   -9.9720 C.ar      1 TPP402      0.0000 
      3 CM2        10.2780    4.8140  -11.0470 C.3       1 TPP402      0.0000 
      4 N3'        11.3170    5.9230   -9.0920 N.ar      1 TPP402      0.0000 
      5 C4'        12.2590    6.0570   -8.1380 C.ar      1 TPP402      0.0000 
      6 N4'        12.2030    7.1180   -7.1840 N.pl3     1 TPP402      0.0000 
      7 C5'        13.3090    5.1370   -8.0860 C.ar      1 TPP402      0.0000 
      8 C6'        13.3230    4.0860   -9.0470 C.ar      1 TPP402      0.0000 
      9 C7'        14.4170    5.2530   -6.9770 C.3       1 TPP402      0.0000 
     10 N3         15.3100    6.3470   -7.1390 N.pl3     1 TPP402      0.0000 
     11 C2         15.2360    7.5870   -6.5020 C.2       1 TPP402      0.0000 
     12 S1         16.4200    8.6560   -6.8460 S.3       1 TPP402      0.0000 
     13 C5         17.0910    7.5400   -7.8250 C.2       1 TPP402      0.0000 
     14 C4         16.4200    6.3240   -7.9090 C.2       1 TPP402      0.0000 
     15 CM4        16.8820    5.1470   -8.7540 C.3       1 TPP402      0.0000 
     16 C6         18.3690    7.8370   -8.5850 C.3       1 TPP402      0.0000 
     17 C7         18.9600    9.2470   -8.2900 C.3       1 TPP402      0.0000 
     18 O7         20.2970    9.2490   -8.8110 O.3       1 TPP402      0.0000 
     19 PA         20.6550   10.3880   -9.8320 P.3       1 TPP402      0.0000 
     20 O1A        19.6820   10.3420  -10.9660 O.co2     1 TPP402      0.0000 
     21 O2A        22.0500   10.1920  -10.3710 O.co2     1 TPP402      0.0000 
     22 O3A        20.5650   11.7900   -9.0860 O.3       1 TPP402      0.0000 
     23 PB         21.4910   12.2100   -7.8540 P.3       1 TPP402      0.0000 
     24 O1B        22.8840   11.6310   -8.0410 O.co2     1 TPP402      0.0000 
     25 O2B        21.5780   13.7110   -7.8090 O.co2     1 TPP402      0.0000 
     26 O3B        20.8990   11.6930   -6.5700 O.co2     1 TPP402      0.0000 
@<TRIPOS>BOND
     1    1    2 ar   
     2    1    8 ar   
     3    2    3 1    
     4    2    4 ar   
     5    4    5 ar   
     6    5    6 1    
     7    5    7 ar   
     8    7    8 ar   
     9    7    9 1    
    10    9   10 1    
    11   10   11 2    
    12   10   14 1    
    13   11   12 1    
    14   12   13 1    
    15   13   14 2    
    16   13   16 1    
    17   14   15 1    
    18   16   17 1    
    19   17   18 1    
    20   18   19 1    
    21   19   20 ar   
    22   19   21 ar   
    23   19   22 1    
    24   22   23 1    
    25   23   24 ar   
    26   23   25 ar   
    27   23   26 ar   
@<TRIPOS>SUBSTRUCTURE
     1 TPP402      1 GROUP   
@<TRIPOS>SET
ATOM$ORANGE STATIC     ATOMS   COLORGROUP SYSTEM 
24 2 2 3 3 5 5 7 7 8 8 9 9 11 11 13 13 14 \
14 15 15 16 16 17 17 

