#    Name: 5ywc_1_ADP
#    Modification time : Fri May 22 19:34:20 2020

@<TRIPOS>MOLECULE
5ywc_1_ADP
   27    29     1     0     1
SMALL
NO_CHARGES


@<TRIPOS>ATOM
      1 PB        160.2390  131.0520  157.3880 P.3       1 ADP401      0.0000 
      2 O1B       161.1350  129.9090  156.9890 O.co2     1 ADP401      0.0000 
      3 O2B       158.7680  130.7240  157.3530 O.co2     1 ADP401      0.0000 
      4 O3B       160.6870  131.7800  158.6270 O.co2     1 ADP401      0.0000 
      5 PA        159.5170  133.4090  156.0220 P.3       1 ADP401      0.0000 
      6 O1A       159.5270  133.7960  154.5620 O.co2     1 ADP401      0.0000 
      7 O2A       158.2000  133.1240  156.6990 O.co2     1 ADP401      0.0000 
      8 O3A       160.4640  132.1210  156.2060 O.3       1 ADP401      0.0000 
      9 O5'       160.2970  134.5520  156.8550 O.3       1 ADP401      0.0000 
     10 C5'       159.5890  135.5850  157.5520 C.3       1 ADP401      0.0000 
     11 C4'       160.4630  136.2080  158.6380 C.3       1 ADP401      0.0000 
     12 O4'       159.6710  136.8540  159.6350 O.3       1 ADP401      0.0000 
     13 C3'       161.2720  135.1260  159.3100 C.3       1 ADP401      0.0000 
     14 O3'       162.6530  135.4650  159.2050 O.3       1 ADP401      0.0000 
     15 C2'       160.8520  135.1610  160.7620 C.3       1 ADP401      0.0000 
     16 O2'       161.9340  135.6780  161.5340 O.3       1 ADP401      0.0000 
     17 C1'       159.6850  136.1220  160.8530 C.3       1 ADP401      0.0000 
     18 N9        158.4090  135.3820  160.9260 N.pl3     1 ADP401      0.0000 
     19 C8        158.1460  134.2070  160.3280 C.2       1 ADP401      0.0000 
     20 N7        156.8840  133.7940  160.5760 N.2       1 ADP401      0.0000 
     21 C5        156.3170  134.7230  161.3520 C.ar      1 ADP401      0.0000 
     22 C6        154.9950  134.8910  161.9720 C.ar      1 ADP401      0.0000 
     23 N6        154.0200  133.9690  161.8080 N.pl3     1 ADP401      0.0000 
     24 N1        154.7870  135.9960  162.7130 N.ar      1 ADP401      0.0000 
     25 C2        155.7490  136.9180  162.8800 C.ar      1 ADP401      0.0000 
     26 N3        156.9770  136.8280  162.3410 N.ar      1 ADP401      0.0000 
     27 C4        157.3210  135.7660  161.5860 C.ar      1 ADP401      0.0000 
@<TRIPOS>BOND
     1    1    2 ar   
     2    1    3 ar   
     3    1    4 ar   
     4    1    8 1    
     5    5    6 ar   
     6    5    7 ar   
     7    5    8 1    
     8    5    9 1    
     9    9   10 1    
    10   10   11 1    
    11   11   12 1    
    12   11   13 1    
    13   12   17 1    
    14   13   14 1    
    15   13   15 1    
    16   15   16 1    
    17   15   17 1    
    18   17   18 1    
    19   18   19 1    
    20   18   27 1    
    21   19   20 2    
    22   20   21 1    
    23   21   22 ar   
    24   21   27 ar   
    25   22   23 1    
    26   22   24 ar   
    27   24   25 ar   
    28   25   26 ar   
    29   26   27 ar   
@<TRIPOS>SUBSTRUCTURE
     1 ADP401      1 GROUP   
@<TRIPOS>SET
ATOM$ORANGE STATIC     ATOMS   COLORGROUP SYSTEM 
20 10 10 11 11 13 13 15 15 17 17 19 19 21 21 22 22 25 \
25 27 27 

