#    Name: 5ywc_12_ADP_CAVITY_N1_4
#    Modification time : Fri May 22 19:37:09 2020

@<TRIPOS>MOLECULE
5ywc_12_ADP_CAVITY_N1_4
   59     0     6     0     0
SMALL
NO_CHARGES


@<TRIPOS>ATOM
      1 OG        111.9400  218.4400  124.6500 O.3       1 SER1        0.0000 
      2 OG        112.1500  218.9100  128.2900 O.3       1 SER1        0.0000 
      3 OG        112.9400  218.6500  127.0400 O.3       1 SER1        0.0000 
      4 OG        112.9500  219.4600  125.0800 O.3       1 SER1        0.0000 
      5 OG        113.9600  219.6600  127.4600 O.3       1 SER1        0.0000 
      6 OG        114.7300  218.5900  128.1700 O.3       1 SER1        0.0000 
      7 OG        114.7400  219.4000  126.2100 O.3       1 SER1        0.0000 
      8 OG        115.5100  218.3300  126.9200 O.3       1 SER1        0.0000 
      9 OG        112.6300  222.2800  129.6800 O.3       1 SER1        0.0000 
     10 OG        113.4100  222.0100  128.4300 O.3       1 SER1        0.0000 
     11 OG        113.4300  222.8200  126.4700 O.3       1 SER1        0.0000 
     12 OG        114.4300  223.0300  128.8600 O.3       1 SER1        0.0000 
     13 OG        114.4400  223.8400  126.8900 O.3       1 SER1        0.0000 
     14 OG        115.4500  224.0500  129.2800 O.3       1 SER1        0.0000 
     15 O         111.9200  217.6300  126.6100 O.2       2 ALA2        0.0000 
     16 O         113.2000  221.5400  124.7900 O.2       2 ALA2        0.0000 
     17 O         113.9700  220.4700  125.5000 O.2       2 ALA2        0.0000 
     18 O         114.2100  222.5600  125.2200 O.2       2 ALA2        0.0000 
     19 O         116.2500  224.5900  126.0700 O.2       2 ALA2        0.0000 
     20 N         117.0200  223.5200  126.7800 N.am      2 ALA2        0.0000 
     21 N         118.0400  224.5400  127.2100 N.am      2 ALA2        0.0000 
     22 OD1       110.3600  218.9600  127.1500 O.co2     3 ASP3        0.0000 
     23 OD1       110.3800  219.7700  125.1900 O.co2     3 ASP3        0.0000 
     24 OD1       111.1500  218.7000  125.9000 O.co2     3 ASP3        0.0000 
     25 OD1       111.1600  219.5100  123.9400 O.co2     3 ASP3        0.0000 
     26 OD1       110.5900  220.2400  128.8300 O.co2     3 ASP3        0.0000 
     27 OD1       111.3800  219.9800  127.5800 O.co2     3 ASP3        0.0000 
     28 OD1       111.3900  220.7900  125.6200 O.co2     3 ASP3        0.0000 
     29 OD1       112.1700  219.7200  126.3300 O.co2     3 ASP3        0.0000 
     30 OD1       111.6100  221.2600  129.2500 O.co2     3 ASP3        0.0000 
     31 OD1       112.4000  221.0000  128.0000 O.co2     3 ASP3        0.0000 
     32 OD1       112.4100  221.8100  126.0400 O.co2     3 ASP3        0.0000 
     33 OD1       113.1800  220.7400  126.7500 O.co2     3 ASP3        0.0000 
     34 CZ        116.4600  225.0700  129.7100 C.ar      4 PHE5        0.0000 
     35 CA        112.3800  220.1900  129.9600 C.3       5 GLY6        0.0000 
     36 CA        113.1700  219.9300  128.7100 C.3       5 GLY6        0.0000 
     37 CA        113.4000  221.2100  130.3900 C.3       5 GLY6        0.0000 
     38 CA        114.1900  220.9400  129.1400 C.3       5 GLY6        0.0000 
     39 CA        114.2000  221.7500  127.1800 C.3       5 GLY6        0.0000 
     40 CA        115.7500  219.6100  128.6000 C.3       5 GLY6        0.0000 
     41 CA        115.7600  220.4200  126.6400 C.3       5 GLY6        0.0000 
     42 CA        116.5300  219.3500  127.3500 C.3       5 GLY6        0.0000 
     43 CA        115.2200  222.7700  127.6100 C.3       5 GLY6        0.0000 
     44 CA        115.9900  221.7000  128.3200 C.3       5 GLY6        0.0000 
     45 CA        115.2300  223.5800  125.6400 C.3       5 GLY6        0.0000 
     46 CA        116.7800  221.4400  127.0700 C.3       5 GLY6        0.0000 
     47 CA        117.5500  220.3600  127.7800 C.3       5 GLY6        0.0000 
     48 CA        114.6700  225.1200  128.5700 C.3       5 GLY6        0.0000 
     49 CA        115.4600  224.8600  127.3200 C.3       5 GLY6        0.0000 
     50 CA        116.4800  225.8700  127.7500 C.3       5 GLY6        0.0000 
     51 CA        117.2500  224.8000  128.4600 C.3       5 GLY6        0.0000 
     52 CA        117.2600  225.6100  126.5000 C.3       5 GLY6        0.0000 
     53 DU        114.9700  220.6800  127.8900 H         6 CUB7        0.0000 
     54 DU        114.4200  222.2200  130.8200 H         6 CUB7        0.0000 
     55 DU        115.2000  221.9600  129.5700 H         6 CUB7        0.0000 
     56 DU        116.2200  222.9800  129.9900 H         6 CUB7        0.0000 
     57 DU        116.2300  223.7900  128.0300 H         6 CUB7        0.0000 
     58 DU        117.0100  222.7200  128.7400 H         6 CUB7        0.0000 
     59 DU        118.0200  223.7300  129.1700 H         6 CUB7        0.0000 
@<TRIPOS>BOND
@<TRIPOS>SUBSTRUCTURE
     1 SER1        1 GROUP   
     2 ALA2       15 GROUP   
     3 ASP3       22 GROUP   
     4 PHE5       34 GROUP   
     5 GLY6       35 GROUP   
     6 CUB7       53 GROUP   
@<TRIPOS>SET

