#    Name: 5ywc_6_ADP_CAVITY_N1_ALL
#    Modification time : Fri May 22 19:35:37 2020

@<TRIPOS>MOLECULE
5ywc_6_ADP_CAVITY_N1_ALL
   99     0     7     0     0
SMALL
NO_CHARGES


@<TRIPOS>ATOM
      1 OG        213.3700  103.8300  129.7000 O.3       1 SER1        0.0000 
      2 OG        213.6000  105.1100  131.3700 O.3       1 SER1        0.0000 
      3 OG        213.6100  105.9200  129.4100 O.3       1 SER1        0.0000 
      4 OG        210.5300  111.0100  124.6100 O.3       1 SER1        0.0000 
      5 OG        214.4000  105.6500  128.1600 O.3       1 SER1        0.0000 
      6 OG        215.1700  104.5800  128.8700 O.3       1 SER1        0.0000 
      7 OG        215.1800  105.3900  126.9100 O.3       1 SER1        0.0000 
      8 OG        214.6100  106.1200  131.8000 O.3       1 SER1        0.0000 
      9 OG        215.4000  105.8600  130.5500 O.3       1 SER1        0.0000 
     10 OG        211.5500  112.0300  125.0300 O.3       1 SER1        0.0000 
     11 OG        212.3200  110.9600  125.7500 O.3       1 SER1        0.0000 
     12 OG        215.4100  106.6700  128.5900 O.3       1 SER1        0.0000 
     13 OG        216.4200  106.8800  130.9800 O.3       1 SER1        0.0000 
     14 OG        213.3400  111.9700  126.1700 O.3       1 SER1        0.0000 
     15 OG        214.1100  110.9000  126.8800 O.3       1 SER1        0.0000 
     16 OG        214.8800  109.8300  127.5900 O.3       1 SER1        0.0000 
     17 OG        216.4300  107.6900  129.0200 O.3       1 SER1        0.0000 
     18 OG        215.6700  109.5700  126.3400 O.3       1 SER1        0.0000 
     19 OG        216.4600  109.3100  125.0900 O.3       1 SER1        0.0000 
     20 OG        216.6700  109.7800  128.7300 O.3       1 SER1        0.0000 
     21 OG        215.9200  111.6600  126.0600 O.3       1 SER1        0.0000 
     22 OG        216.6900  110.5800  126.7700 O.3       1 SER1        0.0000 
     23 OG        216.7000  111.3900  124.8100 O.3       1 SER1        0.0000 
     24 OG        217.4700  110.3200  125.5200 O.3       1 SER1        0.0000 
     25 N         210.0300  106.0200  127.1400 N.am      2 ALA2        0.0000 
     26 O         212.3100  110.1500  127.7100 O.2       2 ALA2        0.0000 
     27 O         213.0900  109.8800  126.4600 O.2       2 ALA2        0.0000 
     28 O         214.6500  108.5500  125.9200 O.2       2 ALA2        0.0000 
     29 O         215.4300  107.4800  126.6300 O.2       2 ALA2        0.0000 
     30 O         212.5500  112.2300  127.4200 O.2       2 ALA2        0.0000 
     31 O         213.3300  111.1600  128.1300 O.2       2 ALA2        0.0000 
     32 O         218.4600  109.7200  129.8700 O.2       2 ALA2        0.0000 
     33 O         216.9300  112.6700  126.4900 O.2       2 ALA2        0.0000 
     34 O         217.7100  111.6000  127.2000 O.2       2 ALA2        0.0000 
     35 O         218.4800  110.5300  127.9100 O.2       2 ALA2        0.0000 
     36 N         217.7200  112.4100  125.2400 N.am      2 ALA2        0.0000 
     37 N         218.4900  111.3400  125.9500 N.am      2 ALA2        0.0000 
     38 N         219.2600  110.2700  126.6600 N.am      2 ALA2        0.0000 
     39 N         218.5000  112.1500  123.9800 N.am      2 ALA2        0.0000 
     40 N         219.2800  111.0800  124.7000 N.am      2 ALA2        0.0000 
     41 N         220.0500  110.0100  125.4100 N.am      2 ALA2        0.0000 
     42 O         219.4900  111.5500  128.3300 O.2       2 ALA2        0.0000 
     43 N         220.2700  110.4800  129.0400 N.am      2 ALA2        0.0000 
     44 N         220.2800  111.2900  127.0800 N.am      2 ALA2        0.0000 
     45 OD1       216.2100  107.2200  125.3800 O.co2     3 ASP3        0.0000 
     46 OD1       211.7800  113.3100  126.7100 O.co2     3 ASP3        0.0000 
     47 OD1       212.5700  113.0400  125.4600 O.co2     3 ASP3        0.0000 
     48 OD1       216.4400  108.5000  127.0500 O.co2     3 ASP3        0.0000 
     49 OD1       217.2300  108.2300  125.8000 O.co2     3 ASP3        0.0000 
     50 OD1       217.2400  109.0400  123.8400 O.co2     3 ASP3        0.0000 
     51 OD1       214.3600  112.9900  126.6000 O.co2     3 ASP3        0.0000 
     52 OD1       217.4500  108.7100  129.4400 O.co2     3 ASP3        0.0000 
     53 OD1       218.2200  107.6300  130.1500 O.co2     3 ASP3        0.0000 
     54 OD1       217.4600  109.5100  127.4800 O.co2     3 ASP3        0.0000 
     55 OD1       218.2500  109.2500  126.2300 O.co2     3 ASP3        0.0000 
     56 OD1       218.2600  110.0600  124.2700 O.co2     3 ASP3        0.0000 
     57 OD1       219.0300  108.9900  124.9800 O.co2     3 ASP3        0.0000 
     58 OD1       219.2500  109.4600  128.6200 O.co2     3 ASP3        0.0000 
     59 NZ        209.7300  110.4600  127.8200 N.4       4 LYS4        0.0000 
     60 NZ        209.7500  111.2700  125.8600 N.4       4 LYS4        0.0000 
     61 NZ        210.5200  110.2000  126.5700 N.4       4 LYS4        0.0000 
     62 NZ        210.7600  112.2900  126.2900 N.4       4 LYS4        0.0000 
     63 NZ        211.5400  111.2200  127.0000 N.4       4 LYS4        0.0000 
     64 NZ        217.4900  111.1300  123.5600 N.4       4 LYS4        0.0000 
     65 NZ        219.0500  109.8000  123.0200 N.4       4 LYS4        0.0000 
     66 NZ        220.0600  110.8200  123.4500 N.4       4 LYS4        0.0000 
     67 CZ        211.8100  105.1600  130.2400 C.ar      5 PHE5        0.0000 
     68 CZ        212.5900  104.9000  128.9900 C.ar      5 PHE5        0.0000 
     69 CZ        212.8200  106.1800  130.6600 C.ar      5 PHE5        0.0000 
     70 CA        210.0000  104.4100  131.0600 C.3       6 GLY6        0.0000 
     71 CA        210.0200  105.2200  129.1000 C.3       6 GLY6        0.0000 
     72 CA        210.7900  104.1400  129.8100 C.3       6 GLY6        0.0000 
     73 CA        210.8000  104.9500  127.8500 C.3       6 GLY6        0.0000 
     74 CA        211.5800  103.8800  128.5600 C.3       6 GLY6        0.0000 
     75 CA        212.3600  103.6200  127.3100 C.3       6 GLY6        0.0000 
     76 CA        211.0500  107.0400  127.5600 C.3       6 GLY6        0.0000 
     77 CA        212.6100  105.7100  127.0300 C.3       6 GLY6        0.0000 
     78 CA        213.3800  104.6400  127.7400 C.3       6 GLY6        0.0000 
     79 CA        214.1700  104.3800  126.4900 C.3       6 GLY6        0.0000 
     80 CA        212.0600  108.0600  127.9900 C.3       6 GLY6        0.0000 
     81 CA        213.6200  106.7300  127.4500 C.3       6 GLY6        0.0000 
     82 CA        214.4100  106.4600  126.2000 C.3       6 GLY6        0.0000 
     83 CA        213.8700  108.8100  127.1700 C.3       6 GLY6        0.0000 
     84 CA        214.0900  109.2800  130.8000 C.3       6 GLY6        0.0000 
     85 CA        214.1000  110.0900  128.8400 C.3       6 GLY6        0.0000 
     86 CA        214.8700  109.0200  129.5500 C.3       6 GLY6        0.0000 
     87 CA        215.6400  107.9500  130.2700 C.3       6 GLY6        0.0000 
     88 CA        215.6600  108.7600  128.3000 C.3       6 GLY6        0.0000 
     89 CA        221.2800  111.4900  129.4700 C.3       6 GLY6        0.0000 
     90 DU        210.2600  107.3000  128.8200 H         7 CUB7        0.0000 
     91 DU        211.0300  106.2300  129.5300 H         7 CUB7        0.0000 
     92 DU        211.8200  105.9700  128.2800 H         7 CUB7        0.0000 
     93 DU        212.8400  106.9900  128.7000 H         7 CUB7        0.0000 
     94 DU        213.8400  107.2000  131.0900 H         7 CUB7        0.0000 
     95 DU        213.0800  109.0800  128.4200 H         7 CUB7        0.0000 
     96 DU        213.8500  108.0000  129.1300 H         7 CUB7        0.0000 
     97 DU        214.6300  106.9300  129.8400 H         7 CUB7        0.0000 
     98 DU        214.6400  107.7400  127.8800 H         7 CUB7        0.0000 
     99 DU        217.4300  107.9000  131.4000 H         7 CUB7        0.0000 
@<TRIPOS>BOND
@<TRIPOS>SUBSTRUCTURE
     1 SER1        1 GROUP   
     2 ALA2       25 GROUP   
     3 ASP3       45 GROUP   
     4 LYS4       59 GROUP   
     5 PHE5       67 GROUP   
     6 GLY6       70 GROUP   
     7 CUB7       90 GROUP   
@<TRIPOS>SET

