#    Name: 5ywc_7_ADP_CAVITY_N1_4
#    Modification time : Fri May 22 19:35:56 2020

@<TRIPOS>MOLECULE
5ywc_7_ADP_CAVITY_N1_4
   72     0     5     0     0
SMALL
NO_CHARGES


@<TRIPOS>ATOM
      1 N         167.1000  193.0100  159.2800 N.am      1 ALA2        0.0000 
      2 N         167.8900  192.7500  158.0300 N.am      1 ALA2        0.0000 
      3 N         168.6600  191.6700  158.7400 N.am      1 ALA2        0.0000 
      4 O         173.2400  191.7700  163.4000 O.2       1 ALA2        0.0000 
      5 O         170.9500  196.6000  157.3500 O.2       1 ALA2        0.0000 
      6 N         172.5000  194.4600  158.7700 N.am      1 ALA2        0.0000 
      7 N         173.2700  193.3900  159.4800 N.am      1 ALA2        0.0000 
      8 N         172.7300  195.7400  160.4500 N.am      1 ALA2        0.0000 
      9 O         174.2700  193.6000  161.8700 O.2       1 ALA2        0.0000 
     10 N         171.9700  197.6200  157.7800 N.am      1 ALA2        0.0000 
     11 N         172.7400  196.5500  158.4900 N.am      1 ALA2        0.0000 
     12 N         172.9800  198.6400  158.2000 N.am      1 ALA2        0.0000 
     13 OD1       168.0900  192.4100  163.6300 O.co2     2 ASP3        0.0000 
     14 OD1       169.1100  193.4200  164.0600 O.co2     2 ASP3        0.0000 
     15 OD1       168.3500  195.3000  161.3800 O.co2     2 ASP3        0.0000 
     16 OD1       170.6700  192.0900  163.5200 O.co2     2 ASP3        0.0000 
     17 OD1       168.5800  196.5800  163.0600 O.co2     2 ASP3        0.0000 
     18 OD1       169.3500  195.5100  163.7700 O.co2     2 ASP3        0.0000 
     19 OD1       170.1400  195.2500  162.5200 O.co2     2 ASP3        0.0000 
     20 OD1       170.1500  196.0600  160.5600 O.co2     2 ASP3        0.0000 
     21 OD1       170.9200  194.9900  161.2700 O.co2     2 ASP3        0.0000 
     22 OD1       170.1600  196.8700  158.6000 O.co2     2 ASP3        0.0000 
     23 OD1       171.9400  196.0000  161.7000 O.co2     2 ASP3        0.0000 
     24 OD1       170.4100  198.9600  158.3100 O.co2     2 ASP3        0.0000 
     25 OD1       171.1800  197.8800  159.0300 O.co2     2 ASP3        0.0000 
     26 OD1       171.9500  196.8100  159.7400 O.co2     2 ASP3        0.0000 
     27 OD1       171.4200  199.9700  158.7400 O.co2     2 ASP3        0.0000 
     28 OD1       173.7400  196.7600  160.8700 O.co2     2 ASP3        0.0000 
     29 CZ        169.6800  192.6900  159.1700 C.ar      3 PHE5        0.0000 
     30 CZ        169.6900  193.5000  157.2100 C.ar      3 PHE5        0.0000 
     31 CZ        170.7100  194.5200  157.6300 C.ar      3 PHE5        0.0000 
     32 CZ        171.4800  193.4500  158.3400 C.ar      3 PHE5        0.0000 
     33 CZ        172.2500  192.3700  159.0600 C.ar      3 PHE5        0.0000 
     34 CZ        174.0300  191.5100  162.1500 C.ar      3 PHE5        0.0000 
     35 CA        167.0900  192.2000  161.2400 C.3       4 GLY6        0.0000 
     36 CA        167.8700  191.9400  159.9900 C.3       4 GLY6        0.0000 
     37 CA        168.8800  192.1400  162.3800 C.3       4 GLY6        0.0000 
     38 CA        169.6500  191.0700  163.0900 C.3       4 GLY6        0.0000 
     39 CA        168.8900  192.9500  160.4200 C.3       4 GLY6        0.0000 
     40 CA        169.6600  191.8800  161.1300 C.3       4 GLY6        0.0000 
     41 CA        170.4500  191.6200  159.8800 C.3       4 GLY6        0.0000 
     42 CA        171.4500  191.8300  162.2700 C.3       4 GLY6        0.0000 
     43 CA        172.2300  190.7600  162.9800 C.3       4 GLY6        0.0000 
     44 CA        172.2400  191.5700  161.0200 C.3       4 GLY6        0.0000 
     45 CA        173.0100  190.5000  161.7300 C.3       4 GLY6        0.0000 
     46 CA        173.0300  191.3000  159.7700 C.3       4 GLY6        0.0000 
     47 CA        173.8000  190.2300  160.4800 C.3       4 GLY6        0.0000 
     48 CA        170.9100  194.1800  163.2300 C.3       4 GLY6        0.0000 
     49 CA        171.7000  193.9200  161.9800 C.3       4 GLY6        0.0000 
     50 CA        172.4700  192.8500  162.6900 C.3       4 GLY6        0.0000 
     51 CA        173.2600  192.5800  161.4400 C.3       4 GLY6        0.0000 
     52 CA        170.1800  197.6800  156.6400 C.3       4 GLY6        0.0000 
     53 CA        171.7200  195.5300  158.0600 C.3       4 GLY6        0.0000 
     54 CA        174.0400  192.3200  160.1900 C.3       4 GLY6        0.0000 
     55 CA        173.5000  194.6700  161.1600 C.3       4 GLY6        0.0000 
     56 CA        174.5200  195.6900  161.5800 C.3       4 GLY6        0.0000 
     57 DU        168.1000  193.2200  161.6700 H         5 CUB7        0.0000 
     58 DU        168.1200  194.0200  159.7100 H         5 CUB7        0.0000 
     59 DU        168.9000  193.7600  158.4600 H         5 CUB7        0.0000 
     60 DU        169.1200  194.2300  162.1000 H         5 CUB7        0.0000 
     61 DU        169.8900  193.1600  162.8100 H         5 CUB7        0.0000 
     62 DU        169.1300  195.0400  160.1300 H         5 CUB7        0.0000 
     63 DU        169.9100  193.9700  160.8400 H         5 CUB7        0.0000 
     64 DU        170.6800  192.9000  161.5600 H         5 CUB7        0.0000 
     65 DU        169.1500  195.8500  158.1700 H         5 CUB7        0.0000 
     66 DU        169.9200  194.7800  158.8800 H         5 CUB7        0.0000 
     67 DU        170.6900  193.7100  159.5900 H         5 CUB7        0.0000 
     68 DU        171.4700  192.6400  160.3100 H         5 CUB7        0.0000 
     69 DU        169.3900  197.9400  157.8900 H         5 CUB7        0.0000 
     70 DU        170.9400  195.8000  159.3100 H         5 CUB7        0.0000 
     71 DU        171.7100  194.7300  160.0200 H         5 CUB7        0.0000 
     72 DU        172.4800  193.6500  160.7300 H         5 CUB7        0.0000 
@<TRIPOS>BOND
@<TRIPOS>SUBSTRUCTURE
     1 ALA2        1 GROUP   
     2 ASP3       13 GROUP   
     3 PHE5       29 GROUP   
     4 GLY6       35 GROUP   
     5 CUB7       57 GROUP   
@<TRIPOS>SET

