#    Name: 5ywc_3_ADP_CAVITY_N1_4
#    Modification time : Fri May 22 19:34:50 2020

@<TRIPOS>MOLECULE
5ywc_3_ADP_CAVITY_N1_4
   88     0     7     0     0
SMALL
NO_CHARGES


@<TRIPOS>ATOM
      1 OG        106.0200  111.1300  130.8400 O.3       1 SER1        0.0000 
      2 OG        104.4900  114.0900  127.4500 O.3       1 SER1        0.0000 
      3 OG        105.2700  113.8200  126.2000 O.3       1 SER1        0.0000 
      4 OG        105.4600  112.6800  133.7600 O.3       1 SER1        0.0000 
      5 OG        106.2500  112.4100  132.5100 O.3       1 SER1        0.0000 
      6 OG        104.7200  115.3700  129.1300 O.3       1 SER1        0.0000 
      7 OG        105.4900  114.2900  129.8400 O.3       1 SER1        0.0000 
      8 OG        106.2600  113.2200  130.5500 O.3       1 SER1        0.0000 
      9 OG        107.0300  112.1500  131.2600 O.3       1 SER1        0.0000 
     10 OG        105.5000  115.1000  127.8800 O.3       1 SER1        0.0000 
     11 OG        106.2800  114.0300  128.5900 O.3       1 SER1        0.0000 
     12 OG        107.0500  112.9600  129.3000 O.3       1 SER1        0.0000 
     13 OG        107.8200  111.8900  130.0100 O.3       1 SER1        0.0000 
     14 OG        107.0600  113.7700  127.3400 O.3       1 SER1        0.0000 
     15 OG        110.1900  111.9100  124.3000 O.3       1 SER1        0.0000 
     16 OG        105.7200  115.5700  131.5200 O.3       1 SER1        0.0000 
     17 OG        106.4900  114.5000  132.2300 O.3       1 SER1        0.0000 
     18 OG        106.5100  115.3100  130.2700 O.3       1 SER1        0.0000 
     19 OG        109.6400  113.4500  127.2300 O.3       1 SER1        0.0000 
     20 OG        110.4100  112.3800  127.9400 O.3       1 SER1        0.0000 
     21 OG        110.4200  113.1900  125.9800 O.3       1 SER1        0.0000 
     22 OG        109.8800  115.5400  126.9400 O.3       1 SER1        0.0000 
     23 OG        110.6500  114.4700  127.6500 O.3       1 SER1        0.0000 
     24 OG        111.4400  114.2100  126.4000 O.3       1 SER1        0.0000 
     25 O         107.8500  113.5100  126.0900 O.2       2 ALA2        0.0000 
     26 O         108.8600  114.5200  126.5200 O.2       2 ALA2        0.0000 
     27 O         111.2000  112.1200  126.6900 O.2       2 ALA2        0.0000 
     28 O         110.1100  116.8200  128.6200 O.2       2 ALA2        0.0000 
     29 O         110.3300  117.2900  132.2600 O.2       2 ALA2        0.0000 
     30 N         109.7700  118.8300  135.1800 N.am      2 ALA2        0.0000 
     31 OD1       106.8300  112.4900  125.6600 O.co2     3 ASP3        0.0000 
     32 OD1       107.8300  112.7000  128.0500 O.co2     3 ASP3        0.0000 
     33 OD1       108.6100  111.6300  128.7600 O.co2     3 ASP3        0.0000 
     34 OD1       108.6200  112.4400  126.8000 O.co2     3 ASP3        0.0000 
     35 OD1       109.3900  111.3700  127.5100 O.co2     3 ASP3        0.0000 
     36 OD1       109.4100  112.1700  125.5500 O.co2     3 ASP3        0.0000 
     37 OD1       110.1800  111.1000  126.2600 O.co2     3 ASP3        0.0000 
     38 NZ        103.1000  113.4600  137.5100 N.4       4 LYS4        0.0000 
     39 NZ        104.6600  112.1300  136.9700 N.4       4 LYS4        0.0000 
     40 NZ        105.4500  111.8700  135.7200 N.4       4 LYS4        0.0000 
     41 NZ        105.6900  113.9600  135.4400 N.4       4 LYS4        0.0000 
     42 NZ        107.2400  111.8100  136.8600 N.4       4 LYS4        0.0000 
     43 NZ        106.4800  113.6900  134.1900 N.4       4 LYS4        0.0000 
     44 NZ        107.2500  112.6200  134.9000 N.4       4 LYS4        0.0000 
     45 NZ        107.5000  114.7100  134.6200 N.4       4 LYS4        0.0000 
     46 NZ        108.2700  113.6400  135.3300 N.4       4 LYS4        0.0000 
     47 NZ        107.7400  116.8000  134.3300 N.4       4 LYS4        0.0000 
     48 NZ        108.5100  115.7300  135.0400 N.4       4 LYS4        0.0000 
     49 NZ        109.3000  115.4600  133.7900 N.4       4 LYS4        0.0000 
     50 NZ        109.5300  116.7400  135.4700 N.4       4 LYS4        0.0000 
     51 CZ        102.3300  114.5300  136.8000 C.ar      5 PHE5        0.0000 
     52 CZ        103.8900  113.2000  136.2600 C.ar      5 PHE5        0.0000 
     53 CZ        104.6800  112.9400  135.0100 C.ar      5 PHE5        0.0000 
     54 CZ        105.7100  114.7600  133.4800 C.ar      5 PHE5        0.0000 
     55 CZ        105.9400  116.0400  135.1500 C.ar      5 PHE5        0.0000 
     56 CZ        106.7200  115.7800  133.9000 C.ar      5 PHE5        0.0000 
     57 CA        104.7300  116.1700  127.1700 C.3       6 GLY6        0.0000 
     58 CA        106.2900  114.8400  126.6300 C.3       6 GLY6        0.0000 
     59 CA        108.0500  113.1700  131.6900 C.3       6 GLY6        0.0000 
     60 CA        105.7500  117.1900  127.6000 C.3       6 GLY6        0.0000 
     61 CA        108.0600  113.9800  129.7300 C.3       6 GLY6        0.0000 
     62 CA        108.8400  112.9100  130.4400 C.3       6 GLY6        0.0000 
     63 CA        107.3100  115.8600  127.0600 C.3       6 GLY6        0.0000 
     64 CA        108.0800  114.7900  127.7700 C.3       6 GLY6        0.0000 
     65 CA        108.8500  113.7200  128.4800 C.3       6 GLY6        0.0000 
     66 CA        109.6200  112.6400  129.1900 C.3       6 GLY6        0.0000 
     67 CA        108.3000  115.2600  131.4000 C.3       6 GLY6        0.0000 
     68 CA        109.0800  114.9900  130.1500 C.3       6 GLY6        0.0000 
     69 CA        109.8700  114.7300  128.9000 C.3       6 GLY6        0.0000 
     70 CA        109.1100  116.6100  126.2300 C.3       6 GLY6        0.0000 
     71 CA        109.3100  116.2700  131.8300 C.3       6 GLY6        0.0000 
     72 CA        110.1000  116.0100  130.5800 C.3       6 GLY6        0.0000 
     73 CA        109.3500  118.7000  125.9500 C.3       6 GLY6        0.0000 
     74 CA        110.1300  117.6300  126.6600 C.3       6 GLY6        0.0000 
     75 DU        107.2700  113.4300  132.9400 H         7 CUB7        0.0000 
     76 DU        108.0400  112.3600  133.6500 H         7 CUB7        0.0000 
     77 DU        105.7300  116.3800  129.5600 H         7 CUB7        0.0000 
     78 DU        107.2800  114.2400  130.9800 H         7 CUB7        0.0000 
     79 DU        106.5200  116.1200  128.3100 H         7 CUB7        0.0000 
     80 DU        107.2900  115.0500  129.0200 H         7 CUB7        0.0000 
     81 DU        107.5100  115.5200  132.6500 H         7 CUB7        0.0000 
     82 DU        108.2800  114.4500  133.3700 H         7 CUB7        0.0000 
     83 DU        107.5200  116.3300  130.6900 H         7 CUB7        0.0000 
     84 DU        108.3100  116.0700  129.4400 H         7 CUB7        0.0000 
     85 DU        109.1000  115.8000  128.1900 H         7 CUB7        0.0000 
     86 DU        108.5300  116.5400  133.0800 H         7 CUB7        0.0000 
     87 DU        108.7600  117.8200  134.7600 H         7 CUB7        0.0000 
     88 DU        109.5400  117.5500  133.5100 H         7 CUB7        0.0000 
@<TRIPOS>BOND
@<TRIPOS>SUBSTRUCTURE
     1 SER1        1 GROUP   
     2 ALA2       25 GROUP   
     3 ASP3       31 GROUP   
     4 LYS4       38 GROUP   
     5 PHE5       51 GROUP   
     6 GLY6       57 GROUP   
     7 CUB7       75 GROUP   
@<TRIPOS>SET

