#    Name: 5ywc_6_ADP
#    Modification time : Fri May 22 19:35:36 2020

@<TRIPOS>MOLECULE
5ywc_6_ADP
   27    29     1     0     1
SMALL
NO_CHARGES


@<TRIPOS>ATOM
      1 PB        215.9970  106.3550  125.8250 P.3       1 ADP2502     0.0000 
      2 O1B       215.9380  106.3480  124.3160 O.co2     1 ADP2502     0.0000 
      3 O2B       217.2660  105.6910  126.3020 O.co2     1 ADP2502     0.0000 
      4 O3B       215.9320  107.7740  126.3400 O.co2     1 ADP2502     0.0000 
      5 PA        214.5160  105.2980  127.9610 P.3       1 ADP2502     0.0000 
      6 O1A       215.4580  104.2100  128.4210 O.co2     1 ADP2502     0.0000 
      7 O2A       214.7910  106.5820  128.7110 O.co2     1 ADP2502     0.0000 
      8 O3A       214.7260  105.5370  126.3830 O.3       1 ADP2502     0.0000 
      9 O5'       212.9970  104.8320  128.2290 O.3       1 ADP2502     0.0000 
     10 C5'       211.9270  105.3770  127.4600 C.3       1 ADP2502     0.0000 
     11 C4'       210.7200  105.6230  128.3560 C.3       1 ADP2502     0.0000 
     12 O4'       210.9730  105.0980  129.6620 O.3       1 ADP2502     0.0000 
     13 C3'       210.4380  107.1090  128.5100 C.3       1 ADP2502     0.0000 
     14 O3'       209.0880  107.3750  128.1230 O.3       1 ADP2502     0.0000 
     15 C2'       210.6360  107.4120  129.9810 C.3       1 ADP2502     0.0000 
     16 O2'       209.5610  108.2150  130.4750 O.3       1 ADP2502     0.0000 
     17 C1'       210.6320  106.0560  130.6650 C.3       1 ADP2502     0.0000 
     18 N9        211.6390  106.0150  131.7540 N.pl3     1 ADP2502     0.0000 
     19 C8        212.9730  105.9520  131.5870 C.2       1 ADP2502     0.0000 
     20 N7        213.6150  105.9230  132.7810 N.2       1 ADP2502     0.0000 
     21 C5        212.6760  105.9620  133.7420 C.ar      1 ADP2502     0.0000 
     22 C6        212.6680  105.9620  135.2200 C.ar      1 ADP2502     0.0000 
     23 N6        213.8290  105.9060  135.9120 N.pl3     1 ADP2502     0.0000 
     24 N1        211.4730  106.0140  135.8460 N.ar      1 ADP2502     0.0000 
     25 C2        210.3180  106.0670  135.1570 C.ar      1 ADP2502     0.0000 
     26 N3        210.2500  106.0720  133.8140 N.ar      1 ADP2502     0.0000 
     27 C4        211.3750  106.0220  133.0620 C.ar      1 ADP2502     0.0000 
@<TRIPOS>BOND
     1    1    2 ar   
     2    1    3 ar   
     3    1    4 ar   
     4    1    8 1    
     5    5    6 ar   
     6    5    7 ar   
     7    5    8 1    
     8    5    9 1    
     9    9   10 1    
    10   10   11 1    
    11   11   12 1    
    12   11   13 1    
    13   12   17 1    
    14   13   14 1    
    15   13   15 1    
    16   15   16 1    
    17   15   17 1    
    18   17   18 1    
    19   18   19 1    
    20   18   27 1    
    21   19   20 2    
    22   20   21 1    
    23   21   22 ar   
    24   21   27 ar   
    25   22   23 1    
    26   22   24 ar   
    27   24   25 ar   
    28   25   26 ar   
    29   26   27 ar   
@<TRIPOS>SUBSTRUCTURE
     1 ADP2502     1 GROUP   
@<TRIPOS>SET
ATOM$ORANGE STATIC     ATOMS   COLORGROUP SYSTEM 
20 10 10 11 11 13 13 15 15 17 17 19 19 21 21 22 22 25 \
25 27 27 

