#    Name: 5ywc_7_ADP
#    Modification time : Fri May 22 19:35:55 2020

@<TRIPOS>MOLECULE
5ywc_7_ADP
   27    29     1     0     1
SMALL
NO_CHARGES


@<TRIPOS>ATOM
      1 PB        168.9210  198.1080  157.3880 P.3       1 ADP401      0.0000 
      2 O1B       168.0250  199.2510  156.9890 O.co2     1 ADP401      0.0000 
      3 O2B       170.3920  198.4360  157.3530 O.co2     1 ADP401      0.0000 
      4 O3B       168.4730  197.3800  158.6270 O.co2     1 ADP401      0.0000 
      5 PA        169.6430  195.7510  156.0220 P.3       1 ADP401      0.0000 
      6 O1A       169.6330  195.3640  154.5620 O.co2     1 ADP401      0.0000 
      7 O2A       170.9600  196.0360  156.6990 O.co2     1 ADP401      0.0000 
      8 O3A       168.6960  197.0390  156.2060 O.3       1 ADP401      0.0000 
      9 O5'       168.8630  194.6080  156.8550 O.3       1 ADP401      0.0000 
     10 C5'       169.5710  193.5750  157.5520 C.3       1 ADP401      0.0000 
     11 C4'       168.6970  192.9520  158.6380 C.3       1 ADP401      0.0000 
     12 O4'       169.4890  192.3060  159.6350 O.3       1 ADP401      0.0000 
     13 C3'       167.8880  194.0340  159.3100 C.3       1 ADP401      0.0000 
     14 O3'       166.5070  193.6950  159.2050 O.3       1 ADP401      0.0000 
     15 C2'       168.3080  193.9990  160.7620 C.3       1 ADP401      0.0000 
     16 O2'       167.2260  193.4820  161.5340 O.3       1 ADP401      0.0000 
     17 C1'       169.4750  193.0380  160.8530 C.3       1 ADP401      0.0000 
     18 N9        170.7510  193.7780  160.9260 N.pl3     1 ADP401      0.0000 
     19 C8        171.0140  194.9530  160.3280 C.2       1 ADP401      0.0000 
     20 N7        172.2760  195.3660  160.5760 N.2       1 ADP401      0.0000 
     21 C5        172.8430  194.4370  161.3520 C.ar      1 ADP401      0.0000 
     22 C6        174.1650  194.2690  161.9720 C.ar      1 ADP401      0.0000 
     23 N6        175.1400  195.1910  161.8080 N.pl3     1 ADP401      0.0000 
     24 N1        174.3730  193.1640  162.7130 N.ar      1 ADP401      0.0000 
     25 C2        173.4110  192.2420  162.8800 C.ar      1 ADP401      0.0000 
     26 N3        172.1830  192.3320  162.3410 N.ar      1 ADP401      0.0000 
     27 C4        171.8390  193.3940  161.5860 C.ar      1 ADP401      0.0000 
@<TRIPOS>BOND
     1    1    2 ar   
     2    1    3 ar   
     3    1    4 ar   
     4    1    8 1    
     5    5    6 ar   
     6    5    7 ar   
     7    5    8 1    
     8    5    9 1    
     9    9   10 1    
    10   10   11 1    
    11   11   12 1    
    12   11   13 1    
    13   12   17 1    
    14   13   14 1    
    15   13   15 1    
    16   15   16 1    
    17   15   17 1    
    18   17   18 1    
    19   18   19 1    
    20   18   27 1    
    21   19   20 2    
    22   20   21 1    
    23   21   22 ar   
    24   21   27 ar   
    25   22   23 1    
    26   22   24 ar   
    27   24   25 ar   
    28   25   26 ar   
    29   26   27 ar   
@<TRIPOS>SUBSTRUCTURE
     1 ADP401      1 GROUP   
@<TRIPOS>SET
ATOM$ORANGE STATIC     ATOMS   COLORGROUP SYSTEM 
20 10 10 11 11 13 13 15 15 17 17 19 19 21 21 22 22 25 \
25 27 27 

