#    Name: 5ywc_1_ADP_CAVITY_N1_ALL
#    Modification time : Fri May 22 19:34:21 2020

@<TRIPOS>MOLECULE
5ywc_1_ADP_CAVITY_N1_ALL
   82     0     5     0     0
SMALL
NO_CHARGES


@<TRIPOS>ATOM
      1 N         155.2300  131.8900  159.2300 N.am      1 ALA2        0.0000 
      2 N         156.2400  132.9000  159.6600 N.am      1 ALA2        0.0000 
      3 N         156.2600  133.7100  157.7000 N.am      1 ALA2        0.0000 
      4 N         157.0300  132.6400  158.4100 N.am      1 ALA2        0.0000 
      5 O         157.8200  132.3800  157.1600 O.2       1 ALA2        0.0000 
      6 N         160.9500  130.5200  154.1200 N.am      1 ALA2        0.0000 
      7 O         154.9100  135.5200  161.8800 O.2       1 ALA2        0.0000 
      8 N         155.7000  135.2500  160.6300 N.am      1 ALA2        0.0000 
      9 N         156.4900  134.9900  159.3800 N.am      1 ALA2        0.0000 
     10 O         158.8300  133.4000  157.5900 O.2       1 ALA2        0.0000 
     11 O         160.6400  134.1500  156.7600 O.2       1 ALA2        0.0000 
     12 O         161.4200  133.8900  155.5100 O.2       1 ALA2        0.0000 
     13 N         160.0900  136.5000  157.7300 N.am      1 ALA2        0.0000 
     14 N         160.8700  135.4300  158.4400 N.am      1 ALA2        0.0000 
     15 O         161.6500  135.1700  157.1900 O.2       1 ALA2        0.0000 
     16 N         161.8800  136.4500  158.8600 N.am      1 ALA2        0.0000 
     17 OD1       156.7900  130.5500  158.6900 O.co2     2 ASP3        0.0000 
     18 OD1       157.8000  131.5700  159.1200 O.co2     2 ASP3        0.0000 
     19 OD1       158.0300  132.8500  160.8000 O.co2     2 ASP3        0.0000 
     20 OD1       158.8200  132.5900  159.5500 O.co2     2 ASP3        0.0000 
     21 OD1       159.6100  132.3300  158.3000 O.co2     2 ASP3        0.0000 
     22 OD1       158.2600  134.1300  162.4700 O.co2     2 ASP3        0.0000 
     23 OD1       159.0500  133.8700  161.2200 O.co2     2 ASP3        0.0000 
     24 OD1       159.8400  133.6000  159.9700 O.co2     2 ASP3        0.0000 
     25 OD1       160.0500  134.0700  163.6100 O.co2     2 ASP3        0.0000 
     26 OD1       159.5100  136.4200  164.5800 O.co2     2 ASP3        0.0000 
     27 OD1       160.2800  135.3500  165.2900 O.co2     2 ASP3        0.0000 
     28 OD1       160.3000  136.1600  163.3300 O.co2     2 ASP3        0.0000 
     29 OD1       161.3100  137.1800  163.7500 O.co2     2 ASP3        0.0000 
     30 CZ        158.0600  134.4700  156.8800 C.ar      3 PHE5        0.0000 
     31 CZ        155.1600  137.6000  161.5900 C.ar      3 PHE5        0.0000 
     32 CZ        155.1700  138.4100  159.6300 C.ar      3 PHE5        0.0000 
     33 CZ        156.7300  137.0800  159.0900 C.ar      3 PHE5        0.0000 
     34 CZ        157.5000  136.0100  159.8000 C.ar      3 PHE5        0.0000 
     35 CZ        158.2900  135.7500  158.5500 C.ar      3 PHE5        0.0000 
     36 CZ        159.0800  135.4800  157.3000 C.ar      3 PHE5        0.0000 
     37 CZ        159.8600  135.2200  156.0500 C.ar      3 PHE5        0.0000 
     38 CZ        159.3100  136.7600  158.9800 C.ar      3 PHE5        0.0000 
     39 CA        158.6000  132.1200  155.9100 C.3       4 GLY6        0.0000 
     40 CA        156.4700  134.1800  161.3400 C.3       4 GLY6        0.0000 
     41 CA        155.7100  136.0600  158.6600 C.3       4 GLY6        0.0000 
     42 CA        157.2700  134.7300  158.1300 C.3       4 GLY6        0.0000 
     43 CA        158.8500  134.2000  155.6200 C.3       4 GLY6        0.0000 
     44 CA        159.6200  133.1300  156.3400 C.3       4 GLY6        0.0000 
     45 CA        160.3900  132.0600  157.0500 C.3       4 GLY6        0.0000 
     46 CA        160.4100  132.8700  155.0900 C.3       4 GLY6        0.0000 
     47 CA        161.1800  131.8000  155.8000 C.3       4 GLY6        0.0000 
     48 CA        161.1900  132.6100  153.8400 C.3       4 GLY6        0.0000 
     49 CA        161.9600  131.5400  154.5500 C.3       4 GLY6        0.0000 
     50 CA        155.9300  136.5300  162.3000 C.3       4 GLY6        0.0000 
     51 CA        155.9400  137.3400  160.3400 C.3       4 GLY6        0.0000 
     52 CA        157.4900  135.2000  161.7600 C.3       4 GLY6        0.0000 
     53 CA        156.1700  138.6200  162.0200 C.3       4 GLY6        0.0000 
     54 CA        156.9500  137.5500  162.7300 C.3       4 GLY6        0.0000 
     55 CA        157.7200  136.4800  163.4400 C.3       4 GLY6        0.0000 
     56 CA        158.4900  135.4100  164.1500 C.3       4 GLY6        0.0000 
     57 CA        156.9600  138.3600  160.7700 C.3       4 GLY6        0.0000 
     58 CA        157.7300  137.2900  161.4800 C.3       4 GLY6        0.0000 
     59 CA        158.5100  136.2200  162.1900 C.3       4 GLY6        0.0000 
     60 CA        159.2800  135.1500  162.9000 C.3       4 GLY6        0.0000 
     61 CA        157.7500  138.1000  159.5200 C.3       4 GLY6        0.0000 
     62 CA        158.5200  137.0300  160.2300 C.3       4 GLY6        0.0000 
     63 CA        160.8800  136.2400  156.4800 C.3       4 GLY6        0.0000 
     64 CA        159.5200  137.2300  162.6200 C.3       4 GLY6        0.0000 
     65 CA        160.3100  136.9700  161.3700 C.3       4 GLY6        0.0000 
     66 CA        160.3200  137.7800  159.4000 C.3       4 GLY6        0.0000 
     67 CA        161.1000  136.7100  160.1200 C.3       4 GLY6        0.0000 
     68 DU        157.5700  130.2900  157.4400 H         5 CUB7        0.0000 
     69 DU        158.5900  131.3100  157.8700 H         5 CUB7        0.0000 
     70 DU        159.3700  131.0500  156.6200 H         5 CUB7        0.0000 
     71 DU        157.2600  133.9200  160.0900 H         5 CUB7        0.0000 
     72 DU        158.0500  133.6600  158.8400 H         5 CUB7        0.0000 
     73 DU        156.7200  136.2700  161.0500 H         5 CUB7        0.0000 
     74 DU        158.2800  134.9400  160.5100 H         5 CUB7        0.0000 
     75 DU        159.0600  134.6800  159.2600 H         5 CUB7        0.0000 
     76 DU        159.8500  134.4100  158.0100 H         5 CUB7        0.0000 
     77 DU        160.6200  133.3400  158.7200 H         5 CUB7        0.0000 
     78 DU        159.2900  135.9500  160.9400 H         5 CUB7        0.0000 
     79 DU        160.0700  134.8800  161.6500 H         5 CUB7        0.0000 
     80 DU        160.0800  135.6900  159.6900 H         5 CUB7        0.0000 
     81 DU        160.8500  134.6200  160.4000 H         5 CUB7        0.0000 
     82 DU        161.0800  135.9000  162.0800 H         5 CUB7        0.0000 
@<TRIPOS>BOND
@<TRIPOS>SUBSTRUCTURE
     1 ALA2        1 GROUP   
     2 ASP3       17 GROUP   
     3 PHE5       30 GROUP   
     4 GLY6       39 GROUP   
     5 CUB7       68 GROUP   
@<TRIPOS>SET

