#    Name: 5ywc_4_ADP
#    Modification time : Fri May 22 19:35:07 2020

@<TRIPOS>MOLECULE
5ywc_4_ADP
   27    29     1     0     1
SMALL
NO_CHARGES


@<TRIPOS>ATOM
      1 PB        198.1080  160.2390  157.3880 P.3       1 ADP401      0.0000 
      2 O1B       199.2510  161.1350  156.9890 O.co2     1 ADP401      0.0000 
      3 O2B       198.4360  158.7680  157.3530 O.co2     1 ADP401      0.0000 
      4 O3B       197.3800  160.6870  158.6270 O.co2     1 ADP401      0.0000 
      5 PA        195.7510  159.5170  156.0220 P.3       1 ADP401      0.0000 
      6 O1A       195.3640  159.5270  154.5620 O.co2     1 ADP401      0.0000 
      7 O2A       196.0360  158.2000  156.6990 O.co2     1 ADP401      0.0000 
      8 O3A       197.0390  160.4640  156.2060 O.3       1 ADP401      0.0000 
      9 O5'       194.6080  160.2970  156.8550 O.3       1 ADP401      0.0000 
     10 C5'       193.5750  159.5890  157.5520 C.3       1 ADP401      0.0000 
     11 C4'       192.9520  160.4630  158.6380 C.3       1 ADP401      0.0000 
     12 O4'       192.3060  159.6710  159.6350 O.3       1 ADP401      0.0000 
     13 C3'       194.0340  161.2720  159.3100 C.3       1 ADP401      0.0000 
     14 O3'       193.6950  162.6530  159.2050 O.3       1 ADP401      0.0000 
     15 C2'       193.9990  160.8520  160.7620 C.3       1 ADP401      0.0000 
     16 O2'       193.4820  161.9340  161.5340 O.3       1 ADP401      0.0000 
     17 C1'       193.0380  159.6850  160.8530 C.3       1 ADP401      0.0000 
     18 N9        193.7780  158.4090  160.9260 N.pl3     1 ADP401      0.0000 
     19 C8        194.9530  158.1460  160.3280 C.2       1 ADP401      0.0000 
     20 N7        195.3660  156.8840  160.5760 N.2       1 ADP401      0.0000 
     21 C5        194.4370  156.3170  161.3520 C.ar      1 ADP401      0.0000 
     22 C6        194.2690  154.9950  161.9720 C.ar      1 ADP401      0.0000 
     23 N6        195.1910  154.0200  161.8080 N.pl3     1 ADP401      0.0000 
     24 N1        193.1640  154.7870  162.7130 N.ar      1 ADP401      0.0000 
     25 C2        192.2420  155.7490  162.8800 C.ar      1 ADP401      0.0000 
     26 N3        192.3320  156.9770  162.3410 N.ar      1 ADP401      0.0000 
     27 C4        193.3940  157.3210  161.5860 C.ar      1 ADP401      0.0000 
@<TRIPOS>BOND
     1    1    2 ar   
     2    1    3 ar   
     3    1    4 ar   
     4    1    8 1    
     5    5    6 ar   
     6    5    7 ar   
     7    5    8 1    
     8    5    9 1    
     9    9   10 1    
    10   10   11 1    
    11   11   12 1    
    12   11   13 1    
    13   12   17 1    
    14   13   14 1    
    15   13   15 1    
    16   15   16 1    
    17   15   17 1    
    18   17   18 1    
    19   18   19 1    
    20   18   27 1    
    21   19   20 2    
    22   20   21 1    
    23   21   22 ar   
    24   21   27 ar   
    25   22   23 1    
    26   22   24 ar   
    27   24   25 ar   
    28   25   26 ar   
    29   26   27 ar   
@<TRIPOS>SUBSTRUCTURE
     1 ADP401      1 GROUP   
@<TRIPOS>SET
ATOM$ORANGE STATIC     ATOMS   COLORGROUP SYSTEM 
20 10 10 11 11 13 13 15 15 17 17 19 19 21 21 22 22 25 \
25 27 27 

