#    Name: 5ywc_9_ADP_CAVITY_N1_4
#    Modification time : Fri May 22 19:36:23 2020

@<TRIPOS>MOLECULE
5ywc_9_ADP_CAVITY_N1_4
   91     0     7     0     0
SMALL
NO_CHARGES


@<TRIPOS>ATOM
      1 OG        217.4100  216.1000  126.6900 O.3       1 SER1        0.0000 
      2 OG        218.1900  215.0200  127.4000 O.3       1 SER1        0.0000 
      3 OG        218.9600  213.9500  128.1100 O.3       1 SER1        0.0000 
      4 OG        218.9700  214.7600  126.1500 O.3       1 SER1        0.0000 
      5 OG        218.4300  217.1100  127.1200 O.3       1 SER1        0.0000 
      6 OG        219.2000  216.0400  127.8300 O.3       1 SER1        0.0000 
      7 OG        219.2200  216.8500  125.8700 O.3       1 SER1        0.0000 
      8 OG        219.9900  215.7800  126.5800 O.3       1 SER1        0.0000 
      9 OG        220.0000  216.5900  124.6200 O.3       1 SER1        0.0000 
     10 OG        220.9900  215.9900  128.9700 O.3       1 SER1        0.0000 
     11 OG        221.7800  215.7300  127.7200 O.3       1 SER1        0.0000 
     12 OG        222.5500  214.6500  128.4300 O.3       1 SER1        0.0000 
     13 OG        222.5700  215.4600  126.4700 O.3       1 SER1        0.0000 
     14 OG        223.3400  214.3900  127.1800 O.3       1 SER1        0.0000 
     15 OG        221.2200  217.2700  130.6400 O.3       1 SER1        0.0000 
     16 OG        222.7700  215.1200  132.0700 O.3       1 SER1        0.0000 
     17 OG        222.0100  217.0000  129.3900 O.3       1 SER1        0.0000 
     18 OG        222.7800  215.9300  130.1000 O.3       1 SER1        0.0000 
     19 OG        223.5600  214.8600  130.8200 O.3       1 SER1        0.0000 
     20 OG        224.3400  214.6000  129.5700 O.3       1 SER1        0.0000 
     21 OG        223.0100  217.2100  131.7800 O.3       1 SER1        0.0000 
     22 OG        223.7900  216.1400  132.4900 O.3       1 SER1        0.0000 
     23 O         218.7000  211.0600  130.3600 O.2       2 ALA2        0.0000 
     24 O         218.7200  211.8700  128.4000 O.2       2 ALA2        0.0000 
     25 O         219.7300  212.8800  128.8300 O.2       2 ALA2        0.0000 
     26 O         219.7500  213.6900  126.8600 O.2       2 ALA2        0.0000 
     27 N         218.4400  217.9200  125.1600 N.am      2 ALA2        0.0000 
     28 O         220.7600  214.7100  127.2900 O.2       2 ALA2        0.0000 
     29 O         220.7800  215.5200  125.3300 O.2       2 ALA2        0.0000 
     30 O         221.5500  214.4500  126.0400 O.2       2 ALA2        0.0000 
     31 O         219.4300  217.3200  129.5100 O.2       2 ALA2        0.0000 
     32 O         223.3500  215.2000  125.2200 O.2       2 ALA2        0.0000 
     33 O         224.1200  214.1300  125.9300 O.2       2 ALA2        0.0000 
     34 OD1       219.4500  218.1300  127.5500 O.co2     3 ASP3        0.0000 
     35 OD1       220.2200  217.0600  128.2600 O.co2     3 ASP3        0.0000 
     36 OD1       219.4600  218.9400  125.5800 O.co2     3 ASP3        0.0000 
     37 OD1       220.2300  217.8700  126.3000 O.co2     3 ASP3        0.0000 
     38 OD1       221.0100  216.8000  127.0100 O.co2     3 ASP3        0.0000 
     39 OD1       221.7900  216.5300  125.7600 O.co2     3 ASP3        0.0000 
     40 OD1       222.2300  217.4700  133.0300 O.co2     3 ASP3        0.0000 
     41 OD1       223.2300  217.6800  135.4200 O.co2     3 ASP3        0.0000 
     42 NZ        218.4800  210.5900  126.7200 N.4       4 LYS4        0.0000 
     43 NZ        219.2300  217.6600  123.9100 N.4       4 LYS4        0.0000 
     44 NZ        221.2000  215.6500  134.5700 N.4       4 LYS4        0.0000 
     45 NZ        221.9700  214.5800  135.2800 N.4       4 LYS4        0.0000 
     46 NZ        221.4300  216.9300  136.2400 N.4       4 LYS4        0.0000 
     47 NZ        222.2100  216.6700  134.9900 N.4       4 LYS4        0.0000 
     48 NZ        224.0000  216.6100  136.1300 N.4       4 LYS4        0.0000 
     49 NZ        225.5500  214.4700  137.5500 N.4       4 LYS4        0.0000 
     50 NZ        225.7900  216.5600  137.2700 N.4       4 LYS4        0.0000 
     51 CZ        222.5300  213.0400  132.3500 C.ar      5 PHE5        0.0000 
     52 CZ        223.3100  212.7700  131.1000 C.ar      5 PHE5        0.0000 
     53 CZ        224.0800  211.7000  131.8100 C.ar      5 PHE5        0.0000 
     54 CZ        224.1000  212.5100  129.8500 C.ar      5 PHE5        0.0000 
     55 CZ        222.7600  214.3200  134.0300 C.ar      5 PHE5        0.0000 
     56 CZ        223.5400  214.0500  132.7800 C.ar      5 PHE5        0.0000 
     57 CZ        223.7700  215.3300  134.4500 C.ar      5 PHE5        0.0000 
     58 CZ        224.7900  216.3500  134.8800 C.ar      5 PHE5        0.0000 
     59 CA        219.5000  211.6000  127.1500 C.3       6 GLY6        0.0000 
     60 CA        218.9500  213.1400  130.0800 C.3       6 GLY6        0.0000 
     61 CA        220.5200  212.6200  127.5800 C.3       6 GLY6        0.0000 
     62 CA        222.0800  211.2900  127.0400 C.3       6 GLY6        0.0000 
     63 CA        219.9600  214.1600  130.5000 C.3       6 GLY6        0.0000 
     64 CA        220.7400  213.0900  131.2100 C.3       6 GLY6        0.0000 
     65 CA        219.9800  214.9700  128.5400 C.3       6 GLY6        0.0000 
     66 CA        220.7500  213.9000  129.2500 C.3       6 GLY6        0.0000 
     67 CA        221.5400  213.6400  128.0000 C.3       6 GLY6        0.0000 
     68 CA        222.3200  213.3700  126.7500 C.3       6 GLY6        0.0000 
     69 CA        223.0900  212.3000  127.4600 C.3       6 GLY6        0.0000 
     70 CA        223.8700  211.2300  128.1700 C.3       6 GLY6        0.0000 
     71 CA        220.1900  215.4400  132.1800 C.3       6 GLY6        0.0000 
     72 CA        220.2100  216.2500  130.2200 C.3       6 GLY6        0.0000 
     73 CA        220.9800  215.1800  130.9300 C.3       6 GLY6        0.0000 
     74 CA        224.8800  212.2500  128.6000 C.3       6 GLY6        0.0000 
     75 CA        224.9000  213.0600  126.6400 C.3       6 GLY6        0.0000 
     76 CA        225.1300  214.3400  128.3100 C.3       6 GLY6        0.0000 
     77 DU        220.5100  211.8100  129.5400 H         7 CUB7        0.0000 
     78 DU        221.2900  211.5500  128.2900 H         7 CUB7        0.0000 
     79 DU        221.5200  212.8300  129.9600 H         7 CUB7        0.0000 
     80 DU        222.3100  212.5700  128.7100 H         7 CUB7        0.0000 
     81 DU        223.0800  211.5000  129.4200 H         7 CUB7        0.0000 
     82 DU        220.9700  214.3700  132.8900 H         7 CUB7        0.0000 
     83 DU        221.7500  214.1100  131.6400 H         7 CUB7        0.0000 
     84 DU        221.7700  214.9200  129.6800 H         7 CUB7        0.0000 
     85 DU        222.5400  213.8500  130.3900 H         7 CUB7        0.0000 
     86 DU        223.3300  213.5800  129.1400 H         7 CUB7        0.0000 
     87 DU        224.1100  213.3200  127.8900 H         7 CUB7        0.0000 
     88 DU        221.2100  216.4600  132.6000 H         7 CUB7        0.0000 
     89 DU        221.9800  215.3900  133.3200 H         7 CUB7        0.0000 
     90 DU        222.0000  216.2000  131.3500 H         7 CUB7        0.0000 
     91 DU        223.0000  216.4000  133.7400 H         7 CUB7        0.0000 
@<TRIPOS>BOND
@<TRIPOS>SUBSTRUCTURE
     1 SER1        1 GROUP   
     2 ALA2       23 GROUP   
     3 ASP3       34 GROUP   
     4 LYS4       42 GROUP   
     5 PHE5       51 GROUP   
     6 GLY6       59 GROUP   
     7 CUB7       77 GROUP   
@<TRIPOS>SET

