#    Name: 5ywc_8_ADP
#    Modification time : Fri May 22 19:36:09 2020

@<TRIPOS>MOLECULE
5ywc_8_ADP
   27    29     1     0     1
SMALL
NO_CHARGES


@<TRIPOS>ATOM
      1 PB        208.3440  235.6990  125.7690 P.3       1 ADP2501     0.0000 
      2 O1B       209.1400  235.9540  124.5110 O.co2     1 ADP2501     0.0000 
      3 O2B       206.9850  235.1340  125.4300 O.co2     1 ADP2501     0.0000 
      4 O3B       209.1030  234.7560  126.6720 O.co2     1 ADP2501     0.0000 
      5 PA        206.8970  237.4240  127.4870 P.3       1 ADP2501     0.0000 
      6 O1A       205.6150  237.4190  126.6870 O.co2     1 ADP2501     0.0000 
      7 O2A       206.8260  236.4240  128.6160 O.co2     1 ADP2501     0.0000 
      8 O3A       208.1510  237.1040  126.5290 O.3       1 ADP2501     0.0000 
      9 O5'       207.1600  238.8960  128.0820 O.3       1 ADP2501     0.0000 
     10 C5'       206.2070  239.5880  128.8800 C.3       1 ADP2501     0.0000 
     11 C4'       206.7570  240.9790  129.1690 C.3       1 ADP2501     0.0000 
     12 O4'       205.9260  241.6230  130.1360 O.3       1 ADP2501     0.0000 
     13 C3'       208.1610  240.9010  129.7440 C.3       1 ADP2501     0.0000 
     14 O3'       209.0090  241.8390  129.0770 O.3       1 ADP2501     0.0000 
     15 C2'       208.0310  241.2740  131.2050 C.3       1 ADP2501     0.0000 
     16 O2'       208.9610  242.3140  131.5220 O.3       1 ADP2501     0.0000 
     17 C1'       206.6020  241.7640  131.3870 C.3       1 ADP2501     0.0000 
     18 N9        205.9170  240.9310  132.4050 N.pl3     1 ADP2501     0.0000 
     19 C8        205.2400  239.7890  132.1770 C.2       1 ADP2501     0.0000 
     20 N7        204.7400  239.2780  133.3300 N.2       1 ADP2501     0.0000 
     21 C5        205.0950  240.1130  134.3240 C.ar      1 ADP2501     0.0000 
     22 C6        204.8990  240.1730  135.7900 C.ar      1 ADP2501     0.0000 
     23 N6        204.2040  239.2150  136.4440 N.pl3     1 ADP2501     0.0000 
     24 N1        205.4450  241.2100  136.4580 N.ar      1 ADP2501     0.0000 
     25 C2        206.1450  242.1680  135.8250 C.ar      1 ADP2501     0.0000 
     26 N3        206.3620  242.1770  134.5000 N.ar      1 ADP2501     0.0000 
     27 C4        205.8740  241.1940  133.7090 C.ar      1 ADP2501     0.0000 
@<TRIPOS>BOND
     1    1    2 ar   
     2    1    3 ar   
     3    1    4 ar   
     4    1    8 1    
     5    5    6 ar   
     6    5    7 ar   
     7    5    8 1    
     8    5    9 1    
     9    9   10 1    
    10   10   11 1    
    11   11   12 1    
    12   11   13 1    
    13   12   17 1    
    14   13   14 1    
    15   13   15 1    
    16   15   16 1    
    17   15   17 1    
    18   17   18 1    
    19   18   19 1    
    20   18   27 1    
    21   19   20 2    
    22   20   21 1    
    23   21   22 ar   
    24   21   27 ar   
    25   22   23 1    
    26   22   24 ar   
    27   24   25 ar   
    28   25   26 ar   
    29   26   27 ar   
@<TRIPOS>SUBSTRUCTURE
     1 ADP2501     1 GROUP   
@<TRIPOS>SET
ATOM$ORANGE STATIC     ATOMS   COLORGROUP SYSTEM 
20 10 10 11 11 13 13 15 15 17 17 19 19 21 21 22 22 25 \
25 27 27 

