#    Name: 5ywc_3_ADP
#    Modification time : Fri May 22 19:34:49 2020

@<TRIPOS>MOLECULE
5ywc_3_ADP
   27    29     1     0     1
SMALL
NO_CHARGES


@<TRIPOS>ATOM
      1 PB        106.3550  113.1630  125.8250 P.3       1 ADP2502     0.0000 
      2 O1B       106.3480  113.2220  124.3160 O.co2     1 ADP2502     0.0000 
      3 O2B       105.6910  111.8940  126.3020 O.co2     1 ADP2502     0.0000 
      4 O3B       107.7740  113.2280  126.3400 O.co2     1 ADP2502     0.0000 
      5 PA        105.2980  114.6440  127.9610 P.3       1 ADP2502     0.0000 
      6 O1A       104.2100  113.7020  128.4210 O.co2     1 ADP2502     0.0000 
      7 O2A       106.5820  114.3690  128.7110 O.co2     1 ADP2502     0.0000 
      8 O3A       105.5370  114.4340  126.3830 O.3       1 ADP2502     0.0000 
      9 O5'       104.8320  116.1630  128.2290 O.3       1 ADP2502     0.0000 
     10 C5'       105.3770  117.2330  127.4600 C.3       1 ADP2502     0.0000 
     11 C4'       105.6230  118.4400  128.3560 C.3       1 ADP2502     0.0000 
     12 O4'       105.0980  118.1870  129.6620 O.3       1 ADP2502     0.0000 
     13 C3'       107.1090  118.7220  128.5100 C.3       1 ADP2502     0.0000 
     14 O3'       107.3750  120.0720  128.1230 O.3       1 ADP2502     0.0000 
     15 C2'       107.4120  118.5240  129.9810 C.3       1 ADP2502     0.0000 
     16 O2'       108.2150  119.5990  130.4750 O.3       1 ADP2502     0.0000 
     17 C1'       106.0560  118.5280  130.6650 C.3       1 ADP2502     0.0000 
     18 N9        106.0150  117.5210  131.7540 N.pl3     1 ADP2502     0.0000 
     19 C8        105.9520  116.1870  131.5870 C.2       1 ADP2502     0.0000 
     20 N7        105.9230  115.5450  132.7810 N.2       1 ADP2502     0.0000 
     21 C5        105.9620  116.4840  133.7420 C.ar      1 ADP2502     0.0000 
     22 C6        105.9620  116.4920  135.2200 C.ar      1 ADP2502     0.0000 
     23 N6        105.9060  115.3310  135.9120 N.pl3     1 ADP2502     0.0000 
     24 N1        106.0140  117.6870  135.8460 N.ar      1 ADP2502     0.0000 
     25 C2        106.0670  118.8420  135.1570 C.ar      1 ADP2502     0.0000 
     26 N3        106.0720  118.9100  133.8140 N.ar      1 ADP2502     0.0000 
     27 C4        106.0220  117.7850  133.0620 C.ar      1 ADP2502     0.0000 
@<TRIPOS>BOND
     1    1    2 ar   
     2    1    3 ar   
     3    1    4 ar   
     4    1    8 1    
     5    5    6 ar   
     6    5    7 ar   
     7    5    8 1    
     8    5    9 1    
     9    9   10 1    
    10   10   11 1    
    11   11   12 1    
    12   11   13 1    
    13   12   17 1    
    14   13   14 1    
    15   13   15 1    
    16   15   16 1    
    17   15   17 1    
    18   17   18 1    
    19   18   19 1    
    20   18   27 1    
    21   19   20 2    
    22   20   21 1    
    23   21   22 ar   
    24   21   27 ar   
    25   22   23 1    
    26   22   24 ar   
    27   24   25 ar   
    28   25   26 ar   
    29   26   27 ar   
@<TRIPOS>SUBSTRUCTURE
     1 ADP2502     1 GROUP   
@<TRIPOS>SET
ATOM$ORANGE STATIC     ATOMS   COLORGROUP SYSTEM 
20 10 10 11 11 13 13 15 15 17 17 19 19 21 21 22 22 25 \
25 27 27 

