#    Name: 5ywc_9_ADP
#    Modification time : Fri May 22 19:36:22 2020

@<TRIPOS>MOLECULE
5ywc_9_ADP
   27    29     1     0     1
SMALL
NO_CHARGES


@<TRIPOS>ATOM
      1 PB        222.8050  215.9970  125.8250 P.3       1 ADP2502     0.0000 
      2 O1B       222.8120  215.9380  124.3160 O.co2     1 ADP2502     0.0000 
      3 O2B       223.4690  217.2660  126.3020 O.co2     1 ADP2502     0.0000 
      4 O3B       221.3860  215.9320  126.3400 O.co2     1 ADP2502     0.0000 
      5 PA        223.8620  214.5160  127.9610 P.3       1 ADP2502     0.0000 
      6 O1A       224.9500  215.4580  128.4210 O.co2     1 ADP2502     0.0000 
      7 O2A       222.5780  214.7910  128.7110 O.co2     1 ADP2502     0.0000 
      8 O3A       223.6230  214.7260  126.3830 O.3       1 ADP2502     0.0000 
      9 O5'       224.3280  212.9970  128.2290 O.3       1 ADP2502     0.0000 
     10 C5'       223.7830  211.9270  127.4600 C.3       1 ADP2502     0.0000 
     11 C4'       223.5370  210.7200  128.3560 C.3       1 ADP2502     0.0000 
     12 O4'       224.0620  210.9730  129.6620 O.3       1 ADP2502     0.0000 
     13 C3'       222.0510  210.4380  128.5100 C.3       1 ADP2502     0.0000 
     14 O3'       221.7850  209.0880  128.1230 O.3       1 ADP2502     0.0000 
     15 C2'       221.7480  210.6360  129.9810 C.3       1 ADP2502     0.0000 
     16 O2'       220.9450  209.5610  130.4750 O.3       1 ADP2502     0.0000 
     17 C1'       223.1040  210.6320  130.6650 C.3       1 ADP2502     0.0000 
     18 N9        223.1450  211.6390  131.7540 N.pl3     1 ADP2502     0.0000 
     19 C8        223.2080  212.9730  131.5870 C.2       1 ADP2502     0.0000 
     20 N7        223.2370  213.6150  132.7810 N.2       1 ADP2502     0.0000 
     21 C5        223.1980  212.6760  133.7420 C.ar      1 ADP2502     0.0000 
     22 C6        223.1980  212.6680  135.2200 C.ar      1 ADP2502     0.0000 
     23 N6        223.2540  213.8290  135.9120 N.pl3     1 ADP2502     0.0000 
     24 N1        223.1460  211.4730  135.8460 N.ar      1 ADP2502     0.0000 
     25 C2        223.0930  210.3180  135.1570 C.ar      1 ADP2502     0.0000 
     26 N3        223.0880  210.2500  133.8140 N.ar      1 ADP2502     0.0000 
     27 C4        223.1380  211.3750  133.0620 C.ar      1 ADP2502     0.0000 
@<TRIPOS>BOND
     1    1    2 ar   
     2    1    3 ar   
     3    1    4 ar   
     4    1    8 1    
     5    5    6 ar   
     6    5    7 ar   
     7    5    8 1    
     8    5    9 1    
     9    9   10 1    
    10   10   11 1    
    11   11   12 1    
    12   11   13 1    
    13   12   17 1    
    14   13   14 1    
    15   13   15 1    
    16   15   16 1    
    17   15   17 1    
    18   17   18 1    
    19   18   19 1    
    20   18   27 1    
    21   19   20 2    
    22   20   21 1    
    23   21   22 ar   
    24   21   27 ar   
    25   22   23 1    
    26   22   24 ar   
    27   24   25 ar   
    28   25   26 ar   
    29   26   27 ar   
@<TRIPOS>SUBSTRUCTURE
     1 ADP2502     1 GROUP   
@<TRIPOS>SET
ATOM$ORANGE STATIC     ATOMS   COLORGROUP SYSTEM 
20 10 10 11 11 13 13 15 15 17 17 19 19 21 21 22 22 25 \
25 27 27 

