#    Name: 5ywc_2_ADP
#    Modification time : Fri May 22 19:34:35 2020

@<TRIPOS>MOLECULE
5ywc_2_ADP
   27    29     1     0     1
SMALL
NO_CHARGES


@<TRIPOS>ATOM
      1 PB        120.8160   93.4610  125.7690 P.3       1 ADP2501     0.0000 
      2 O1B       120.0200   93.2060  124.5110 O.co2     1 ADP2501     0.0000 
      3 O2B       122.1750   94.0260  125.4300 O.co2     1 ADP2501     0.0000 
      4 O3B       120.0570   94.4040  126.6720 O.co2     1 ADP2501     0.0000 
      5 PA        122.2630   91.7360  127.4870 P.3       1 ADP2501     0.0000 
      6 O1A       123.5450   91.7410  126.6870 O.co2     1 ADP2501     0.0000 
      7 O2A       122.3340   92.7360  128.6160 O.co2     1 ADP2501     0.0000 
      8 O3A       121.0090   92.0560  126.5290 O.3       1 ADP2501     0.0000 
      9 O5'       122.0000   90.2640  128.0820 O.3       1 ADP2501     0.0000 
     10 C5'       122.9530   89.5720  128.8800 C.3       1 ADP2501     0.0000 
     11 C4'       122.4030   88.1810  129.1690 C.3       1 ADP2501     0.0000 
     12 O4'       123.2340   87.5370  130.1360 O.3       1 ADP2501     0.0000 
     13 C3'       120.9990   88.2590  129.7440 C.3       1 ADP2501     0.0000 
     14 O3'       120.1510   87.3210  129.0770 O.3       1 ADP2501     0.0000 
     15 C2'       121.1290   87.8860  131.2050 C.3       1 ADP2501     0.0000 
     16 O2'       120.1990   86.8460  131.5220 O.3       1 ADP2501     0.0000 
     17 C1'       122.5580   87.3960  131.3870 C.3       1 ADP2501     0.0000 
     18 N9        123.2430   88.2290  132.4050 N.pl3     1 ADP2501     0.0000 
     19 C8        123.9200   89.3710  132.1770 C.2       1 ADP2501     0.0000 
     20 N7        124.4200   89.8820  133.3300 N.2       1 ADP2501     0.0000 
     21 C5        124.0650   89.0470  134.3240 C.ar      1 ADP2501     0.0000 
     22 C6        124.2610   88.9870  135.7900 C.ar      1 ADP2501     0.0000 
     23 N6        124.9560   89.9450  136.4440 N.pl3     1 ADP2501     0.0000 
     24 N1        123.7150   87.9500  136.4580 N.ar      1 ADP2501     0.0000 
     25 C2        123.0150   86.9920  135.8250 C.ar      1 ADP2501     0.0000 
     26 N3        122.7980   86.9830  134.5000 N.ar      1 ADP2501     0.0000 
     27 C4        123.2860   87.9660  133.7090 C.ar      1 ADP2501     0.0000 
@<TRIPOS>BOND
     1    1    2 ar   
     2    1    3 ar   
     3    1    4 ar   
     4    1    8 1    
     5    5    6 ar   
     6    5    7 ar   
     7    5    8 1    
     8    5    9 1    
     9    9   10 1    
    10   10   11 1    
    11   11   12 1    
    12   11   13 1    
    13   12   17 1    
    14   13   14 1    
    15   13   15 1    
    16   15   16 1    
    17   15   17 1    
    18   17   18 1    
    19   18   19 1    
    20   18   27 1    
    21   19   20 2    
    22   20   21 1    
    23   21   22 ar   
    24   21   27 ar   
    25   22   23 1    
    26   22   24 ar   
    27   24   25 ar   
    28   25   26 ar   
    29   26   27 ar   
@<TRIPOS>SUBSTRUCTURE
     1 ADP2501     1 GROUP   
@<TRIPOS>SET
ATOM$ORANGE STATIC     ATOMS   COLORGROUP SYSTEM 
20 10 10 11 11 13 13 15 15 17 17 19 19 21 21 22 22 25 \
25 27 27 

