#    Name: 5ywc_10_ADP
#    Modification time : Fri May 22 19:36:39 2020

@<TRIPOS>MOLECULE
5ywc_10_ADP
   27    29     1     0     1
SMALL
NO_CHARGES


@<TRIPOS>ATOM
      1 PB        131.0520  168.9210  157.3880 P.3       1 ADP401      0.0000 
      2 O1B       129.9090  168.0250  156.9890 O.co2     1 ADP401      0.0000 
      3 O2B       130.7240  170.3920  157.3530 O.co2     1 ADP401      0.0000 
      4 O3B       131.7800  168.4730  158.6270 O.co2     1 ADP401      0.0000 
      5 PA        133.4090  169.6430  156.0220 P.3       1 ADP401      0.0000 
      6 O1A       133.7960  169.6330  154.5620 O.co2     1 ADP401      0.0000 
      7 O2A       133.1240  170.9600  156.6990 O.co2     1 ADP401      0.0000 
      8 O3A       132.1210  168.6960  156.2060 O.3       1 ADP401      0.0000 
      9 O5'       134.5520  168.8630  156.8550 O.3       1 ADP401      0.0000 
     10 C5'       135.5850  169.5710  157.5520 C.3       1 ADP401      0.0000 
     11 C4'       136.2080  168.6970  158.6380 C.3       1 ADP401      0.0000 
     12 O4'       136.8540  169.4890  159.6350 O.3       1 ADP401      0.0000 
     13 C3'       135.1260  167.8880  159.3100 C.3       1 ADP401      0.0000 
     14 O3'       135.4650  166.5070  159.2050 O.3       1 ADP401      0.0000 
     15 C2'       135.1610  168.3080  160.7620 C.3       1 ADP401      0.0000 
     16 O2'       135.6780  167.2260  161.5340 O.3       1 ADP401      0.0000 
     17 C1'       136.1220  169.4750  160.8530 C.3       1 ADP401      0.0000 
     18 N9        135.3820  170.7510  160.9260 N.pl3     1 ADP401      0.0000 
     19 C8        134.2070  171.0140  160.3280 C.2       1 ADP401      0.0000 
     20 N7        133.7940  172.2760  160.5760 N.2       1 ADP401      0.0000 
     21 C5        134.7230  172.8430  161.3520 C.ar      1 ADP401      0.0000 
     22 C6        134.8910  174.1650  161.9720 C.ar      1 ADP401      0.0000 
     23 N6        133.9690  175.1400  161.8080 N.pl3     1 ADP401      0.0000 
     24 N1        135.9960  174.3730  162.7130 N.ar      1 ADP401      0.0000 
     25 C2        136.9180  173.4110  162.8800 C.ar      1 ADP401      0.0000 
     26 N3        136.8280  172.1830  162.3410 N.ar      1 ADP401      0.0000 
     27 C4        135.7660  171.8390  161.5860 C.ar      1 ADP401      0.0000 
@<TRIPOS>BOND
     1    1    2 ar   
     2    1    3 ar   
     3    1    4 ar   
     4    1    8 1    
     5    5    6 ar   
     6    5    7 ar   
     7    5    8 1    
     8    5    9 1    
     9    9   10 1    
    10   10   11 1    
    11   11   12 1    
    12   11   13 1    
    13   12   17 1    
    14   13   14 1    
    15   13   15 1    
    16   15   16 1    
    17   15   17 1    
    18   17   18 1    
    19   18   19 1    
    20   18   27 1    
    21   19   20 2    
    22   20   21 1    
    23   21   22 ar   
    24   21   27 ar   
    25   22   23 1    
    26   22   24 ar   
    27   24   25 ar   
    28   25   26 ar   
    29   26   27 ar   
@<TRIPOS>SUBSTRUCTURE
     1 ADP401      1 GROUP   
@<TRIPOS>SET
ATOM$ORANGE STATIC     ATOMS   COLORGROUP SYSTEM 
20 10 10 11 11 13 13 15 15 17 17 19 19 21 21 22 22 25 \
25 27 27 

