#    Name: 6hp5_1_GLY_MET_PRO_ARG_GLY_ALA
#    Modification time : Fri May 22 19:26:48 2020

@<TRIPOS>MOLECULE
6hp5_1_GLY_MET_PRO_ARG_GLY_ALA
   40    40     6     0     0
SMALL
NO_CHARGES


@<TRIPOS>ATOM
      1 N          29.1180    1.0110   72.0390 N.4       1 GLY1        0.0000 
      2 CA         29.3630    2.4590   71.8260 C.3       1 GLY1        0.0000 
      3 C          29.0020    3.3760   72.9840 C.2       1 GLY1        0.0000 
      4 O          28.4060    2.9470   73.9760 O.2       1 GLY1        0.0000 
      5 N          29.3980    4.6440   72.8410 N.am      2 MET2        0.0000 
      6 CA         29.1110    5.7090   73.7960 C.3       2 MET2        0.0000 
      7 C          27.8150    6.3910   73.3760 C.2       2 MET2        0.0000 
      8 O          27.7150    6.8640   72.2390 O.2       2 MET2        0.0000 
      9 CB         30.2750    6.7180   73.7990 C.3       2 MET2        0.0000 
     10 CG         30.1170    7.9030   74.7310 C.3       2 MET2        0.0000 
     11 SD         31.3760    9.1740   74.4480 S.3       2 MET2        0.0000 
     12 CE         30.7920    9.9330   72.9140 C.3       2 MET2        0.0000 
     13 N          26.8180    6.4500   74.2840 N.am      3 PRO3        0.0000 
     14 CA         25.5900    7.1680   73.9250 C.3       3 PRO3        0.0000 
     15 C          25.8670    8.6530   73.7150 C.2       3 PRO3        0.0000 
     16 O          26.6410    9.2420   74.4620 O.2       3 PRO3        0.0000 
     17 CB         24.6920    6.9630   75.1460 C.3       3 PRO3        0.0000 
     18 CG         25.6420    6.7520   76.2710 C.3       3 PRO3        0.0000 
     19 CD         26.7880    5.9730   75.6810 C.3       3 PRO3        0.0000 
     20 N          25.2720    9.2180   72.6690 N.am      4 ARG4        0.0000 
     21 CA         25.2610   10.6650   72.4470 C.3       4 ARG4        0.0000 
     22 C          23.8360   11.1730   72.3630 C.2       4 ARG4        0.0000 
     23 O          22.9050   10.4230   72.0600 O.2       4 ARG4        0.0000 
     24 CB         25.9920   11.0300   71.1580 C.3       4 ARG4        0.0000 
     25 CG         27.5110   11.0270   71.2690 C.3       4 ARG4        0.0000 
     26 CD         28.1230   10.9430   69.8780 C.3       4 ARG4        0.0000 
     27 NE         29.5090   11.3980   69.8370 N.pl3     4 ARG4        0.0000 
     28 CZ         30.5440   10.6220   69.5340 C.cat     4 ARG4        0.0000 
     29 NH1        30.3710    9.3410   69.2600 N.pl3     4 ARG4        0.0000 
     30 NH2        31.7620   11.1300   69.5110 N.pl3     4 ARG4        0.0000 
     31 N          23.6520   12.4530   72.6240 N.am      5 GLY5        0.0000 
     32 CA         22.3370   13.0280   72.4570 C.3       5 GLY5        0.0000 
     33 C          22.3510   14.4980   72.7290 C.2       5 GLY5        0.0000 
     34 O          23.2100   15.0060   73.4650 O.2       5 GLY5        0.0000 
     35 N          21.3970   15.1710   72.1010 N.am      6 ALA6        0.0000 
     36 CA         21.0680   16.5540   72.3970 C.3       6 ALA6        0.0000 
     37 C          19.5460   16.7230   72.4200 C.2       6 ALA6        0.0000 
     38 O          18.7950   15.9140   71.8460 O.2       6 ALA6        0.0000 
     39 CB         21.7080   17.4830   71.3860 C.3       6 ALA6        0.0000 
     40 OXT        19.0280   17.6620   73.0380 O.3       6 ALA6        0.0000 
@<TRIPOS>BOND
     1    1    2 1    
     2    2    3 1    
     3    3    4 2    
     4    3    5 am   
     5    5    6 1    
     6    6    7 1    
     7    6    9 1    
     8    7    8 2    
     9    7   13 am   
    10    9   10 1    
    11   10   11 1    
    12   11   12 1    
    13   13   14 1    
    14   13   19 1    
    15   14   15 1    
    16   14   17 1    
    17   15   16 2    
    18   15   20 am   
    19   17   18 1    
    20   18   19 1    
    21   20   21 1    
    22   21   22 1    
    23   21   24 1    
    24   22   23 2    
    25   22   31 am   
    26   24   25 1    
    27   25   26 1    
    28   26   27 1    
    29   27   28 ar   
    30   28   29 ar   
    31   28   30 ar   
    32   31   32 1    
    33   32   33 1    
    34   33   34 2    
    35   33   35 am   
    36   35   36 1    
    37   36   37 1    
    38   36   39 1    
    39   37   38 2    
    40   37   40 1    
@<TRIPOS>SUBSTRUCTURE
     1 GLY1        1 RESIDUE 
     2 MET2        5 RESIDUE 
     3 PRO3       13 RESIDUE 
     4 ARG4       20 RESIDUE 
     5 GLY5       31 RESIDUE 
     6 ALA6       35 RESIDUE 
@<TRIPOS>SET

