#    Name: 6hp5_2_GLY_MET_PRO_ARG_GLY_ALA
#    Modification time : Fri May 22 19:26:55 2020

@<TRIPOS>MOLECULE
6hp5_2_GLY_MET_PRO_ARG_GLY_ALA
   40    40     6     0     0
SMALL
NO_CHARGES


@<TRIPOS>ATOM
      1 N          54.7830   29.0960   47.9320 N.4       1 GLY1        0.0000 
      2 CA         53.4300   28.4360   47.8990 C.3       1 GLY1        0.0000 
      3 C          52.9160   28.1810   46.4950 C.2       1 GLY1        0.0000 
      4 O          53.5190   28.6370   45.5170 O.2       1 GLY1        0.0000 
      5 N          51.8150   27.4280   46.4010 N.am      2 MET2        0.0000 
      6 CA         51.2130   27.0460   45.1180 C.3       2 MET2        0.0000 
      7 C          50.0850   28.0180   44.8100 C.2       2 MET2        0.0000 
      8 O          49.2380   28.2360   45.6600 O.2       2 MET2        0.0000 
      9 CB         50.6820   25.6110   45.2130 C.3       2 MET2        0.0000 
     10 CG         50.0590   25.0230   43.9610 C.3       2 MET2        0.0000 
     11 SD         49.1450   23.5110   44.3610 S.3       2 MET2        0.0000 
     12 CE         47.8120   24.1130   45.4110 C.3       2 MET2        0.0000 
     13 N          50.0670   28.6090   43.5990 N.am      3 PRO3        0.0000 
     14 CA         48.9580   29.5200   43.3120 C.3       3 PRO3        0.0000 
     15 C          47.6630   28.7470   43.1800 C.2       3 PRO3        0.0000 
     16 O          47.6400   27.7010   42.5360 O.2       3 PRO3        0.0000 
     17 CB         49.3400   30.1420   41.9550 C.3       3 PRO3        0.0000 
     18 CG         50.2410   29.1280   41.3250 C.3       3 PRO3        0.0000 
     19 CD         51.0060   28.5030   42.4640 C.3       3 PRO3        0.0000 
     20 N          46.6170   29.2620   43.8200 N.am      4 ARG4        0.0000 
     21 CA         45.2620   28.7620   43.6730 C.3       4 ARG4        0.0000 
     22 C          44.4160   29.8980   43.1880 C.2       4 ARG4        0.0000 
     23 O          44.7110   31.0690   43.4600 O.2       4 ARG4        0.0000 
     24 CB         44.6970   28.2860   45.0050 C.3       4 ARG4        0.0000 
     25 CG         45.3440   27.0210   45.5350 C.3       4 ARG4        0.0000 
     26 CD         44.6190   26.5820   46.7940 C.3       4 ARG4        0.0000 
     27 NE         45.5560   26.1890   47.8230 N.pl3     4 ARG4        0.0000 
     28 CZ         45.7150   24.9600   48.3000 C.cat     4 ARG4        0.0000 
     29 NH1        44.9870   23.9430   47.8740 N.pl3     4 ARG4        0.0000 
     30 NH2        46.6200   24.7620   49.2360 N.pl3     4 ARG4        0.0000 
     31 N          43.3540   29.5600   42.4740 N.am      5 GLY5        0.0000 
     32 CA         42.4350   30.5810   42.0040 C.3       5 GLY5        0.0000 
     33 C          41.1860   29.9890   41.4090 C.2       5 GLY5        0.0000 
     34 O          41.1620   28.8200   40.9840 O.2       5 GLY5        0.0000 
     35 N          40.1410   30.7980   41.4070 N.am      6 ALA6        0.0000 
     36 CA         38.8850   30.4430   40.7570 C.3       6 ALA6        0.0000 
     37 C          38.2260   31.6840   40.0920 C.2       6 ALA6        0.0000 
     38 O          38.5450   32.8350   40.4590 O.2       6 ALA6        0.0000 
     39 CB         37.9450   29.7600   41.7500 C.3       6 ALA6        0.0000 
     40 OXT        37.3950   31.5800   39.1570 O.3       6 ALA6        0.0000 
@<TRIPOS>BOND
     1    1    2 1    
     2    2    3 1    
     3    3    4 2    
     4    3    5 am   
     5    5    6 1    
     6    6    7 1    
     7    6    9 1    
     8    7    8 2    
     9    7   13 am   
    10    9   10 1    
    11   10   11 1    
    12   11   12 1    
    13   13   14 1    
    14   13   19 1    
    15   14   15 1    
    16   14   17 1    
    17   15   16 2    
    18   15   20 am   
    19   17   18 1    
    20   18   19 1    
    21   20   21 1    
    22   21   22 1    
    23   21   24 1    
    24   22   23 2    
    25   22   31 am   
    26   24   25 1    
    27   25   26 1    
    28   26   27 1    
    29   27   28 ar   
    30   28   29 ar   
    31   28   30 ar   
    32   31   32 1    
    33   32   33 1    
    34   33   34 2    
    35   33   35 am   
    36   35   36 1    
    37   36   37 1    
    38   36   39 1    
    39   37   38 2    
    40   37   40 1    
@<TRIPOS>SUBSTRUCTURE
     1 GLY1        1 RESIDUE 
     2 MET2        5 RESIDUE 
     3 PRO3       13 RESIDUE 
     4 ARG4       20 RESIDUE 
     5 GLY5       31 RESIDUE 
     6 ALA6       35 RESIDUE 
@<TRIPOS>SET

