#    Name: 6ojv_4_2XB
#    Modification time : Fri May 22 19:32:08 2020

@<TRIPOS>MOLECULE
6ojv_4_2XB
   30    32     1     0     0
SMALL
NO_CHARGES


@<TRIPOS>ATOM
      1 OE1       134.1050  -18.8860  297.9730           1 2XB601      0.0000 
      2 CT4       134.0810  -18.7360  299.1930           1 2XB601      0.0000 
      3 OE2       135.1620  -18.3460  299.9260           1 2XB601      0.0000 
      4 CT3       132.8490  -18.9590  300.0740           1 2XB601      0.0000 
      5 CT2       131.8750  -17.7590  300.1010           1 2XB601      0.0000 
      6 CT1       130.3770  -18.1050  299.8710           1 2XB601      0.0000 
      7 CT5       129.3880  -17.5350  300.8980           1 2XB601      0.0000 
      8 OT1       128.6110  -18.4240  301.5800           1 2XB601      0.0000 
      9 OXT       129.2930  -16.3240  301.1030           1 2XB601      0.0000 
     10 NT1       129.9110  -17.8470  298.5020           1 2XB601      0.0000 
     11 CAV       130.3830  -18.3730  297.3560           1 2XB601      0.0000 
     12 OAD       131.3060  -19.1830  297.3070           1 2XB601      0.0000 
     13 CAY       129.7040  -17.9400  296.0860           1 2XB601      0.0000 
     14 CAJ       130.0570  -18.5550  294.8630           1 2XB601      0.0000 
     15 CAH       129.4330  -18.1700  293.6640           1 2XB601      0.0000 
     16 CAK       128.7090  -16.9330  296.0830           1 2XB601      0.0000 
     17 CAI       128.0810  -16.5500  294.8780           1 2XB601      0.0000 
     18 CAX       128.4460  -17.1680  293.6630           1 2XB601      0.0000 
     19 CAO       127.7910  -16.7850  292.3500           1 2XB601      0.0000 
     20 CAZ       127.8520  -17.9270  291.3630           1 2XB601      0.0000 
     21 CBC       127.0770  -19.1370  291.3640           1 2XB601      0.0000 
     22 CBA       126.0150  -19.7060  292.2220           1 2XB601      0.0000 
     23 OAE       125.5810  -19.1290  293.2170           1 2XB601      0.0000 
     24 NAS       125.5510  -20.9120  291.8390           1 2XB601      0.0000 
     25 CAW       126.0330  -21.5880  290.7070           1 2XB601      0.0000 
     26 NAA       125.3960  -22.7990  290.5300           1 2XB601      0.0000 
     27 NAP       126.9660  -21.1280  289.9180           1 2XB601      0.0000 
     28 CBB       127.4680  -19.8880  290.2850           1 2XB601      0.0000 
     29 NAR       128.4510  -19.1990  289.6180           1 2XB601      0.0000 
     30 CAL       128.6880  -18.0040  290.2720           1 2XB601      0.0000 
@<TRIPOS>BOND
     1    1    2 du   
     2    2    3 du   
     3    2    4 du   
     4    4    5 du   
     5    5    6 du   
     6    6    7 du   
     7    6   10 du   
     8    7    8 du   
     9    7    9 du   
    10   10   11 du   
    11   11   12 du   
    12   11   13 du   
    13   13   14 du   
    14   13   16 du   
    15   14   15 du   
    16   15   18 du   
    17   16   17 du   
    18   17   18 du   
    19   18   19 du   
    20   19   20 du   
    21   20   21 du   
    22   20   30 du   
    23   21   22 du   
    24   21   28 du   
    25   22   23 du   
    26   22   24 du   
    27   24   25 du   
    28   25   26 du   
    29   25   27 du   
    30   27   28 du   
    31   28   29 du   
    32   29   30 du   
@<TRIPOS>SUBSTRUCTURE
     1 2XB601      1 GROUP   
@<TRIPOS>SET

