#    Name: 6ojv_3_UMP
#    Modification time : Fri May 22 19:32:13 2020

@<TRIPOS>MOLECULE
6ojv_3_UMP
   20    21     1     0     1
SMALL
NO_CHARGES


@<TRIPOS>ATOM
      1 N1        142.5420    1.2920  235.0020 N.am      1 UMP600      0.0000 
      2 C2        143.9310    1.3780  234.7370 C.2       1 UMP600      0.0000 
      3 N3        144.6950    2.1540  235.6150 N.am      1 UMP600      0.0000 
      4 C4        144.2090    2.8570  236.7220 C.2       1 UMP600      0.0000 
      5 C5        142.7720    2.7320  236.9290 C.2       1 UMP600      0.0000 
      6 C6        142.0220    1.9890  236.0830 C.2       1 UMP600      0.0000 
      7 O2        144.4790    0.8070  233.7910 O.2       1 UMP600      0.0000 
      8 O4        144.9680    3.5150  237.4330 O.2       1 UMP600      0.0000 
      9 C1'       141.6090    0.4900  234.1180 C.3       1 UMP600      0.0000 
     10 C2'       141.9760   -0.9830  233.9070 C.3       1 UMP600      0.0000 
     11 C3'       140.6140   -1.5360  233.5290 C.3       1 UMP600      0.0000 
     12 C4'       139.6560   -0.7220  234.4120 C.3       1 UMP600      0.0000 
     13 O3'       140.3670   -1.3570  232.1480 O.3       1 UMP600      0.0000 
     14 O4'       140.3600    0.4810  234.7250 O.3       1 UMP600      0.0000 
     15 C5'       139.2680   -1.4290  235.7210 C.3       1 UMP600      0.0000 
     16 O5'       138.5750   -2.6520  235.5270 O.3       1 UMP600      0.0000 
     17 P         138.7050   -3.8880  236.5740 P.3       1 UMP600      0.0000 
     18 OP1       139.9480   -4.7410  235.9730 O.co2     1 UMP600      0.0000 
     19 OP2       138.8000   -3.5150  238.0120 O.co2     1 UMP600      0.0000 
     20 OP3       137.4280   -4.7960  236.1660 O.co2     1 UMP600      0.0000 
@<TRIPOS>BOND
     1    1    2 1    
     2    1    6 1    
     3    1    9 1    
     4    2    3 1    
     5    2    7 2    
     6    3    4 1    
     7    4    5 1    
     8    4    8 2    
     9    5    6 2    
    10    9   10 1    
    11    9   14 1    
    12   10   11 1    
    13   11   12 1    
    14   11   13 1    
    15   12   14 1    
    16   12   15 1    
    17   15   16 1    
    18   16   17 1    
    19   17   18 ar   
    20   17   19 ar   
    21   17   20 ar   
@<TRIPOS>SUBSTRUCTURE
     1 UMP600      1 GROUP   
@<TRIPOS>SET
ATOM$ORANGE STATIC     ATOMS   COLORGROUP SYSTEM 
18 2 2 4 4 5 5 6 6 9 9 10 10 11 11 12 12 15 \
15 

