#    Name: 6ojv_1_2XB
#    Modification time : Fri May 22 19:31:57 2020

@<TRIPOS>MOLECULE
6ojv_1_2XB
   30    32     1     0     0
SMALL
NO_CHARGES


@<TRIPOS>ATOM
      1 OE1        92.2300    2.4280  271.1400           1 2XB601      0.0000 
      2 CT4        91.1860    2.6800  271.7390           1 2XB601      0.0000 
      3 OE2        90.3930    3.7540  271.4590           1 2XB601      0.0000 
      4 CT3        90.6210    1.8340  272.8820           1 2XB601      0.0000 
      5 CT2        91.6670    0.9550  273.6030           1 2XB601      0.0000 
      6 CT1        92.3370    1.6110  274.8410           1 2XB601      0.0000 
      7 CT5        91.7830    1.2340  276.2200           1 2XB601      0.0000 
      8 OT1        90.7860    2.0160  276.7250           1 2XB601      0.0000 
      9 OXT        92.2220    0.2690  276.8490           1 2XB601      0.0000 
     10 NT1        93.7940    1.4840  274.8280           1 2XB601      0.0000 
     11 CAV        94.6520    2.3670  274.2960           1 2XB601      0.0000 
     12 OAD        94.3000    3.4120  273.7480           1 2XB601      0.0000 
     13 CAY        96.1070    2.0270  274.4070           1 2XB601      0.0000 
     14 CAJ        97.0520    2.8450  273.7530           1 2XB601      0.0000 
     15 CAH        98.4190    2.5460  273.8400           1 2XB601      0.0000 
     16 CAK        96.5510    0.9080  275.1540           1 2XB601      0.0000 
     17 CAI        97.9280    0.6150  275.2450           1 2XB601      0.0000 
     18 CAX        98.8630    1.4350  274.5800           1 2XB601      0.0000 
     19 CAO       100.3520    1.1760  274.6480           1 2XB601      0.0000 
     20 CAZ       101.0480    2.5150  274.6510           1 2XB601      0.0000 
     21 CBC       100.9280    3.5500  275.6360           1 2XB601      0.0000 
     22 CBA       100.1820    3.7060  276.9000           1 2XB601      0.0000 
     23 OAE        99.4440    2.8320  277.3430           1 2XB601      0.0000 
     24 NAS       100.3670    4.8800  277.5360           1 2XB601      0.0000 
     25 CAW       101.2040    5.8870  277.0360           1 2XB601      0.0000 
     26 NAA       101.2240    6.9840  277.8720           1 2XB601      0.0000 
     27 NAP       101.8860    5.7940  275.9270           1 2XB601      0.0000 
     28 CBB       101.7180    4.5960  275.2470           1 2XB601      0.0000 
     29 NAR       102.3190    4.2560  274.0610           1 2XB601      0.0000 
     30 CAL       101.9100    2.9890  273.6910           1 2XB601      0.0000 
@<TRIPOS>BOND
     1    1    2 du   
     2    2    3 du   
     3    2    4 du   
     4    4    5 du   
     5    5    6 du   
     6    6    7 du   
     7    6   10 du   
     8    7    8 du   
     9    7    9 du   
    10   10   11 du   
    11   11   12 du   
    12   11   13 du   
    13   13   14 du   
    14   13   16 du   
    15   14   15 du   
    16   15   18 du   
    17   16   17 du   
    18   17   18 du   
    19   18   19 du   
    20   19   20 du   
    21   20   21 du   
    22   20   30 du   
    23   21   22 du   
    24   21   28 du   
    25   22   23 du   
    26   22   24 du   
    27   24   25 du   
    28   25   26 du   
    29   25   27 du   
    30   27   28 du   
    31   28   29 du   
    32   29   30 du   
@<TRIPOS>SUBSTRUCTURE
     1 2XB601      1 GROUP   
@<TRIPOS>SET

