#    Name: 6ojv_4_UMP
#    Modification time : Fri May 22 19:32:20 2020

@<TRIPOS>MOLECULE
6ojv_4_UMP
   20    21     1     0     1
SMALL
NO_CHARGES


@<TRIPOS>ATOM
      1 N1        123.7160  -18.0280  290.1020 N.am      1 UMP600      0.0000 
      2 C2        123.1620  -16.9900  290.8910 C.2       1 UMP600      0.0000 
      3 N3        123.7910  -15.7450  290.8360 N.am      1 UMP600      0.0000 
      4 C4        124.9180  -15.4360  290.0730 C.2       1 UMP600      0.0000 
      5 C5        125.4400  -16.5460  289.2870 C.2       1 UMP600      0.0000 
      6 C6        124.8430  -17.7600  289.3370 C.2       1 UMP600      0.0000 
      7 O2        122.1730  -17.1340  291.6070 O.2       1 UMP600      0.0000 
      8 O4        125.3920  -14.3030  290.1000 O.2       1 UMP600      0.0000 
      9 C1'       123.1160  -19.4200  290.0870 C.3       1 UMP600      0.0000 
     10 C2'       121.6520  -19.4910  289.6400 C.3       1 UMP600      0.0000 
     11 C3'       121.6080  -20.9220  289.1360 C.3       1 UMP600      0.0000 
     12 C4'       122.9780  -21.0840  288.4680 C.3       1 UMP600      0.0000 
     13 O3'       121.4300  -21.8270  290.2060 O.3       1 UMP600      0.0000 
     14 O4'       123.8350  -20.1870  289.1740 O.3       1 UMP600      0.0000 
     15 C5'       122.9680  -20.7360  286.9700 C.3       1 UMP600      0.0000 
     16 O5'       122.6150  -21.8400  286.1480 O.3       1 UMP600      0.0000 
     17 P         121.4980  -21.7340  284.9690 P.3       1 UMP600      0.0000 
     18 OP1       121.9090  -20.9980  283.7400 O.co2     1 UMP600      0.0000 
     19 OP2       121.0770  -23.2820  284.7450 O.co2     1 UMP600      0.0000 
     20 OP3       120.2130  -21.1480  285.7650 O.co2     1 UMP600      0.0000 
@<TRIPOS>BOND
     1    1    2 1    
     2    1    6 1    
     3    1    9 1    
     4    2    3 1    
     5    2    7 2    
     6    3    4 1    
     7    4    5 1    
     8    4    8 2    
     9    5    6 2    
    10    9   10 1    
    11    9   14 1    
    12   10   11 1    
    13   11   12 1    
    14   11   13 1    
    15   12   14 1    
    16   12   15 1    
    17   15   16 1    
    18   16   17 1    
    19   17   18 ar   
    20   17   19 ar   
    21   17   20 ar   
@<TRIPOS>SUBSTRUCTURE
     1 UMP600      1 GROUP   
@<TRIPOS>SET
ATOM$ORANGE STATIC     ATOMS   COLORGROUP SYSTEM 
18 2 2 4 4 5 5 6 6 9 9 10 10 11 11 12 12 15 \
15 

