#    Name: 6ojv_4_UMP_CAVITY_N1_4
#    Modification time : Fri May 22 19:32:21 2020

@<TRIPOS>MOLECULE
6ojv_4_UMP_CAVITY_N1_4
   71     0     7     0     0
SMALL
NO_CHARGES


@<TRIPOS>ATOM
      1 OG        121.4700  -21.0000  287.8600 O.3       1 SER1        0.0000 
      2 OG        121.1700  -19.2500  289.0300 O.3       1 SER1        0.0000 
      3 OG        122.2800  -20.2500  288.8700 O.3       1 SER1        0.0000 
      4 OG        121.6900  -21.0800  289.9700 O.3       1 SER1        0.0000 
      5 OG        123.4000  -21.2400  288.7200 O.3       1 SER1        0.0000 
      6 OG        122.8000  -22.0700  289.8200 O.3       1 SER1        0.0000 
      7 N         122.0600  -20.1700  286.7700 N.am      2 ALA2        0.0000 
      8 N         122.8800  -19.4200  287.7700 N.am      2 ALA2        0.0000 
      9 N         123.9900  -20.4100  287.6200 N.am      2 ALA2        0.0000 
     10 N         121.9800  -18.5000  290.0400 N.am      2 ALA2        0.0000 
     11 N         123.6900  -18.6600  288.7800 N.am      2 ALA2        0.0000 
     12 N         123.1000  -19.4900  289.8800 N.am      2 ALA2        0.0000 
     13 N         125.3200  -21.4800  289.5800 N.am      2 ALA2        0.0000 
     14 N         127.0300  -21.6500  288.3300 N.am      2 ALA2        0.0000 
     15 N         123.3900  -16.9100  289.9500 N.am      2 ALA2        0.0000 
     16 O         122.8000  -17.7400  291.0400 O.2       2 ALA2        0.0000 
     17 N         125.1000  -17.0800  288.7000 N.am      2 ALA2        0.0000 
     18 N         124.5000  -17.9100  289.7900 N.am      2 ALA2        0.0000 
     19 N         124.2000  -16.1600  290.9600 N.am      2 ALA2        0.0000 
     20 O         125.6100  -14.5700  290.8700 O.2       2 ALA2        0.0000 
     21 N         125.0200  -15.4000  291.9600 N.am      2 ALA2        0.0000 
     22 O         126.4200  -13.8200  291.8800 O.2       2 ALA2        0.0000 
     23 O         125.8300  -14.6500  292.9700 O.2       2 ALA2        0.0000 
     24 O         129.2400  -14.9800  290.4700 O.2       2 ALA2        0.0000 
     25 OD1       121.2500  -20.9300  285.7600 O.co2     3 ASP3        0.0000 
     26 OD1       123.1800  -21.1700  286.6100 O.co2     3 ASP3        0.0000 
     27 OD1       122.5800  -22.0000  287.7100 O.co2     3 ASP3        0.0000 
     28 OD1       125.1000  -21.4100  287.4700 O.co2     3 ASP3        0.0000 
     29 OD1       124.5100  -22.2400  288.5700 O.co2     3 ASP3        0.0000 
     30 NZ        123.6200  -21.3200  290.8300 N.4       4 LYS4        0.0000 
     31 NZ        124.7300  -22.3100  290.6800 N.4       4 LYS4        0.0000 
     32 NZ        124.4300  -20.5600  291.8400 N.4       4 LYS4        0.0000 
     33 NZ        125.5400  -21.5600  291.6900 N.4       4 LYS4        0.0000 
     34 NZ        125.2400  -19.8100  292.8500 N.4       4 LYS4        0.0000 
     35 NZ        127.0200  -12.9900  290.7800 N.4       4 LYS4        0.0000 
     36 NZ        127.5400  -14.8100  291.7200 N.4       4 LYS4        0.0000 
     37 NZ        128.3500  -14.0600  292.7300 N.4       4 LYS4        0.0000 
     38 CZ        126.5000  -15.4900  288.6100 C.ar      5 PHE5        0.0000 
     39 CZ        127.0200  -17.3200  289.5500 C.ar      5 PHE5        0.0000 
     40 CZ        128.1300  -18.3100  289.4000 C.ar      5 PHE5        0.0000 
     41 CZ        126.2000  -13.7400  289.7700 C.ar      5 PHE5        0.0000 
     42 CZ        127.3200  -14.7400  289.6200 C.ar      5 PHE5        0.0000 
     43 CZ        126.7200  -15.5700  290.7100 C.ar      5 PHE5        0.0000 
     44 CZ        127.8300  -16.5600  290.5600 C.ar      5 PHE5        0.0000 
     45 CZ        128.9500  -17.5600  290.4100 C.ar      5 PHE5        0.0000 
     46 CA        122.5000  -20.3200  290.9800 C.3       6 GLY6        0.0000 
     47 CA        124.8000  -19.6600  288.6300 C.3       6 GLY6        0.0000 
     48 CA        125.9100  -20.6500  288.4800 C.3       6 GLY6        0.0000 
     49 CA        123.9100  -18.7400  290.8900 C.3       6 GLY6        0.0000 
     50 CA        127.3200  -19.0700  288.3900 C.3       6 GLY6        0.0000 
     51 CA        126.7300  -19.9000  289.4900 C.3       6 GLY6        0.0000 
     52 CA        127.2500  -21.7200  290.4400 C.3       6 GLY6        0.0000 
     53 CA        124.8000  -15.3300  289.8600 C.3       6 GLY6        0.0000 
     54 CA        123.6100  -16.9900  292.0500 C.3       6 GLY6        0.0000 
     55 CA        124.7200  -17.9800  291.9000 C.3       6 GLY6        0.0000 
     56 CA        124.1300  -18.8100  293.0000 C.3       6 GLY6        0.0000 
     57 CA        126.9500  -19.9700  291.6000 C.3       6 GLY6        0.0000 
     58 CA        126.1300  -16.4000  291.8100 C.3       6 GLY6        0.0000 
     59 CA        126.6500  -18.2200  292.7600 C.3       6 GLY6        0.0000 
     60 CA        126.9400  -15.6400  292.8200 C.3       6 GLY6        0.0000 
     61 CA        128.6500  -15.8100  291.5700 C.3       6 GLY6        0.0000 
     62 DU        124.2100  -20.4900  289.7300 H         7 CUB7        0.0000 
     63 DU        125.6200  -18.9000  289.6400 H         7 CUB7        0.0000 
     64 DU        125.0200  -19.7300  290.7400 H         7 CUB7        0.0000 
     65 DU        126.1300  -20.7300  290.5900 H         7 CUB7        0.0000 
     66 DU        125.9100  -16.3200  289.7000 H         7 CUB7        0.0000 
     67 DU        125.3200  -17.1500  290.8000 H         7 CUB7        0.0000 
     68 DU        126.4300  -18.1500  290.6500 H         7 CUB7        0.0000 
     69 DU        125.8300  -18.9800  291.7500 H         7 CUB7        0.0000 
     70 DU        127.5400  -19.1400  290.5000 H         7 CUB7        0.0000 
     71 DU        127.2400  -17.3900  291.6600 H         7 CUB7        0.0000 
@<TRIPOS>BOND
@<TRIPOS>SUBSTRUCTURE
     1 SER1        1 GROUP   
     2 ALA2        7 GROUP   
     3 ASP3       25 GROUP   
     4 LYS4       30 GROUP   
     5 PHE5       38 GROUP   
     6 GLY6       46 GROUP   
     7 CUB7       62 GROUP   
@<TRIPOS>SET

