#    Name: 6ojv_2_2XB
#    Modification time : Fri May 22 19:32:02 2020

@<TRIPOS>MOLECULE
6ojv_2_2XB
   30    32     1     0     0
SMALL
NO_CHARGES


@<TRIPOS>ATOM
      1 OE1       118.2890   22.1070  259.1090           1 2XB601      0.0000 
      2 CT4       117.4340   22.2860  259.9740           1 2XB601      0.0000 
      3 OE2       116.2510   22.9270  259.7440           1 2XB601      0.0000 
      4 CT3       117.5560   21.8190  261.4270           1 2XB601      0.0000 
      5 CT2       118.3640   22.7680  262.3420           1 2XB601      0.0000 
      6 CT1       117.6780   24.1200  262.6740           1 2XB601      0.0000 
      7 CT5       117.2280   24.3160  264.1270           1 2XB601      0.0000 
      8 OT1       115.8860   24.3150  264.3860           1 2XB601      0.0000 
      9 OXT       118.0480   24.4690  265.0310           1 2XB601      0.0000 
     10 NT1       118.4560   25.2760  262.2200           1 2XB601      0.0000 
     11 CAV       118.3600   25.9130  261.0400           1 2XB601      0.0000 
     12 OAD       117.5640   25.6010  260.1550           1 2XB601      0.0000 
     13 CAY       119.2870   27.0790  260.8440           1 2XB601      0.0000 
     14 CAJ       119.2600   27.8040  259.6330           1 2XB601      0.0000 
     15 CAH       120.1180   28.8970  259.4330           1 2XB601      0.0000 
     16 CAK       120.1930   27.4710  261.8570           1 2XB601      0.0000 
     17 CAI       121.0550   28.5690  261.6550           1 2XB601      0.0000 
     18 CAX       121.0230   29.2830  260.4400           1 2XB601      0.0000 
     19 CAO       121.9280   30.4770  260.2000           1 2XB601      0.0000 
     20 CAZ       121.2160   31.4650  259.3110           1 2XB601      0.0000 
     21 CBC       120.0290   32.2190  259.6070           1 2XB601      0.0000 
     22 CBA       119.1180   32.3460  260.7680           1 2XB601      0.0000 
     23 OAE       119.2730   31.7220  261.8160           1 2XB601      0.0000 
     24 NAS       118.0920   33.2040  260.6030           1 2XB601      0.0000 
     25 CAW       117.8950   33.9300  259.4180           1 2XB601      0.0000 
     26 NAA       116.7830   34.7390  259.5010           1 2XB601      0.0000 
     27 NAP       118.6690   33.8560  258.3690           1 2XB601      0.0000 
     28 CBB       119.7350   32.9790  258.5040           1 2XB601      0.0000 
     29 NAR       120.6800   32.7250  257.5440           1 2XB601      0.0000 
     30 CAL       121.5830   31.8010  258.0310           1 2XB601      0.0000 
@<TRIPOS>BOND
     1    1    2 du   
     2    2    3 du   
     3    2    4 du   
     4    4    5 du   
     5    5    6 du   
     6    6    7 du   
     7    6   10 du   
     8    7    8 du   
     9    7    9 du   
    10   10   11 du   
    11   11   12 du   
    12   11   13 du   
    13   13   14 du   
    14   13   16 du   
    15   14   15 du   
    16   15   18 du   
    17   16   17 du   
    18   17   18 du   
    19   18   19 du   
    20   19   20 du   
    21   20   21 du   
    22   20   30 du   
    23   21   22 du   
    24   21   28 du   
    25   22   23 du   
    26   22   24 du   
    27   24   25 du   
    28   25   26 du   
    29   25   27 du   
    30   27   28 du   
    31   28   29 du   
    32   29   30 du   
@<TRIPOS>SUBSTRUCTURE
     1 2XB601      1 GROUP   
@<TRIPOS>SET

