#    Name: 6kvj_1_UDX_CAVITY_N1_4
#    Modification time : Fri May 22 19:27:35 2020

@<TRIPOS>MOLECULE
6kvj_1_UDX_CAVITY_N1_4
  126     0     6     0     0
SMALL
NO_CHARGES


@<TRIPOS>ATOM
      1 OG         20.2100    5.3200   15.0800 O.3       1 SER1        0.0000 
      2 OG         22.5900    6.2600   14.6200 O.3       1 SER1        0.0000 
      3 OG         23.2000    7.4600   15.3000 O.3       1 SER1        0.0000 
      4 OG         23.6900    7.9600   13.9800 O.3       1 SER1        0.0000 
      5 OG         23.3900    9.7300   11.1400 O.3       1 SER1        0.0000 
      6 OG         23.8700   10.2300    9.8200 O.3       1 SER1        0.0000 
      7 OG         23.0800   11.5000    8.3100 O.3       1 SER1        0.0000 
      8 OG         23.5700   12.0000    6.9800 O.3       1 SER1        0.0000 
      9 OG         23.8000    8.6500   15.9800 O.3       1 SER1        0.0000 
     10 OG         25.0900    7.8900   16.1600 O.3       1 SER1        0.0000 
     11 OG         23.0100    9.9100   14.4700 O.3       1 SER1        0.0000 
     12 OG         24.2900    9.1500   14.6500 O.3       1 SER1        0.0000 
     13 OG         25.5800    8.4000   14.8400 O.3       1 SER1        0.0000 
     14 OG         23.5000   10.4200   13.1400 O.3       1 SER1        0.0000 
     15 OG         23.9900   10.9200   11.8200 O.3       1 SER1        0.0000 
     16 OG         25.2700   10.1600   12.0000 O.3       1 SER1        0.0000 
     17 OG         25.7600   10.6700   10.6800 O.3       1 SER1        0.0000 
     18 OG         22.9000   13.9500    7.4800 O.3       1 SER1        0.0000 
     19 OG         24.1800   13.1900    7.6600 O.3       1 SER1        0.0000 
     20 OG         22.0300   13.6300   12.1300 O.3       1 SER1        0.0000 
     21 OG         23.6200   15.8300   10.1600 O.3       1 SER1        0.0000 
     22 OG         24.9000   15.0700   10.3400 O.3       1 SER1        0.0000 
     23 OG         26.1800   14.3200   10.5300 O.3       1 SER1        0.0000 
     24 OG         24.1100   16.3400    8.8300 O.3       1 SER1        0.0000 
     25 OG         25.3900   15.5800    9.0200 O.3       1 SER1        0.0000 
     26 OG         26.6700   14.8200    9.2000 O.3       1 SER1        0.0000 
     27 OG         28.0700   14.7500   11.3900 O.3       1 SER1        0.0000 
     28 OG         28.5600   15.2600   10.0700 O.3       1 SER1        0.0000 
     29 OG         27.7700   16.5200    8.5600 O.3       1 SER1        0.0000 
     30 OG         30.3300   15.0000    8.9300 O.3       1 SER1        0.0000 
     31 OG         29.6600   16.9500    9.4200 O.3       1 SER1        0.0000 
     32 OG         30.9400   16.2000    9.6000 O.3       1 SER1        0.0000 
     33 N          21.6100    5.2500   17.2700 N.am      2 ALA2        0.0000 
     34 N          22.1000    5.7600   15.9500 N.am      2 ALA2        0.0000 
     35 O          22.7100    6.9500   16.6300 O.2       2 ALA2        0.0000 
     36 O          22.4100    8.7200   13.7900 O.2       2 ALA2        0.0000 
     37 O          22.9000    9.2200   12.4700 O.2       2 ALA2        0.0000 
     38 O          24.3600   10.7400    8.4900 O.2       2 ALA2        0.0000 
     39 O          24.8500   11.2400    7.1700 O.2       2 ALA2        0.0000 
     40 O          19.2800    8.1400   20.9100 O.2       2 ALA2        0.0000 
     41 N          20.5600    7.3900   21.0900 N.am      2 ALA2        0.0000 
     42 O          21.8500    6.6300   21.2800 O.2       2 ALA2        0.0000 
     43 O          23.1300    5.8700   21.4600 O.2       2 ALA2        0.0000 
     44 O          22.8300    7.6400   18.6300 O.2       2 ALA2        0.0000 
     45 O          23.3100    8.1400   17.3000 O.2       2 ALA2        0.0000 
     46 O          26.0700    8.9000   13.5100 O.2       2 ALA2        0.0000 
     47 O          24.9700   11.9300    9.1700 O.2       2 ALA2        0.0000 
     48 O          26.2500   11.1700    9.3600 O.2       2 ALA2        0.0000 
     49 O          25.4600   12.4400    7.8500 O.2       2 ALA2        0.0000 
     50 O          26.7400   11.6800    8.0300 O.2       2 ALA2        0.0000 
     51 N          21.1700    8.5800   21.7700 N.am      2 ALA2        0.0000 
     52 O          23.7300    7.0700   22.1400 O.2       2 ALA2        0.0000 
     53 O          20.3800    9.8400   20.2600 O.2       2 ALA2        0.0000 
     54 O          21.6600    9.0800   20.4500 O.2       2 ALA2        0.0000 
     55 O          22.9400    8.3300   20.6300 O.2       2 ALA2        0.0000 
     56 O          23.9200    9.3400   17.9800 O.2       2 ALA2        0.0000 
     57 O          24.4100    9.8400   16.6600 O.2       2 ALA2        0.0000 
     58 O          25.3900   10.8500   14.0100 O.2       2 ALA2        0.0000 
     59 O          23.3200   12.8700   12.3100 O.2       2 ALA2        0.0000 
     60 O          25.8800   11.3600   12.6800 O.2       2 ALA2        0.0000 
     61 O          27.1600   10.6000   12.8700 O.2       2 ALA2        0.0000 
     62 O          27.6500   11.1100   11.5400 O.2       2 ALA2        0.0000 
     63 O          28.1400   11.6100   10.2200 O.2       2 ALA2        0.0000 
     64 O          26.9800   13.0500   12.0400 O.2       2 ALA2        0.0000 
     65 O          28.2600   12.3000   12.2200 O.2       2 ALA2        0.0000 
     66 N          27.5800   14.2500   12.7200 N.am      2 ALA2        0.0000 
     67 N          28.8600   13.4900   12.9000 N.am      2 ALA2        0.0000 
     68 N          29.3500   14.0000   11.5800 N.am      2 ALA2        0.0000 
     69 NZ         24.1100    6.8800   18.8100 N.4       3 LYS4        0.0000 
     70 NZ         24.6000    7.3900   17.4900 N.4       3 LYS4        0.0000 
     71 NZ         27.2300   12.1800    6.7100 N.4       3 LYS4        0.0000 
     72 NZ         24.2200    7.5700   20.8200 N.4       3 LYS4        0.0000 
     73 NZ         27.3500   12.8700    8.7100 N.4       3 LYS4        0.0000 
     74 NZ         27.8400   13.3800    7.3800 N.4       3 LYS4        0.0000 
     75 NZ         27.9500   14.0600    9.3900 N.4       3 LYS4        0.0000 
     76 NZ         29.2400   13.3100    9.5700 N.4       3 LYS4        0.0000 
     77 NZ         28.4400   14.5700    8.0600 N.4       3 LYS4        0.0000 
     78 CZ         20.3300    6.0100   17.0900 C.ar      4 PHE5        0.0000 
     79 CZ         20.8200    6.5200   15.7600 C.ar      4 PHE5        0.0000 
     80 CZ         20.4500    6.7000   19.0900 C.ar      4 PHE5        0.0000 
     81 CZ         20.9400    7.2000   17.7700 C.ar      4 PHE5        0.0000 
     82 CZ         21.4300    7.7100   16.4400 C.ar      4 PHE5        0.0000 
     83 CZ         21.9200    8.2100   15.1200 C.ar      4 PHE5        0.0000 
     84 CZ         24.1800    8.4700   12.6500 C.ar      4 PHE5        0.0000 
     85 CZ         19.7700    8.6500   19.5800 C.ar      4 PHE5        0.0000 
     86 CZ         21.0500    7.8900   19.7700 C.ar      4 PHE5        0.0000 
     87 CZ         21.5400    8.4000   18.4400 C.ar      4 PHE5        0.0000 
     88 CZ         24.4100   14.5700   11.6700 C.ar      4 PHE5        0.0000 
     89 CA         21.3100    7.0200   14.4400 C.3       5 GLY6        0.0000 
     90 CA         23.0800    6.7700   13.3000 C.3       5 GLY6        0.0000 
     91 CA         22.2200    6.4500   17.9500 C.3       5 GLY6        0.0000 
     92 CA         20.0700    6.8800   22.4200 C.3       5 GLY6        0.0000 
     93 CA         22.3400    7.1300   19.9500 C.3       5 GLY6        0.0000 
     94 CA         23.6200    6.3800   20.1400 C.3       5 GLY6        0.0000 
     95 CA         22.0300    8.9000   17.1200 C.3       5 GLY6        0.0000 
     96 CA         22.5200    9.4100   15.7900 C.3       5 GLY6        0.0000 
     97 CA         23.2000   12.1800   10.3100 C.3       5 GLY6        0.0000 
     98 CA         23.6900   12.6900    8.9800 C.3       5 GLY6        0.0000 
     99 CA         27.5300   10.4200    9.5400 C.3       5 GLY6        0.0000 
    100 CA         22.4500    7.8200   21.9600 C.3       5 GLY6        0.0000 
    101 CA         23.1300   10.6000   16.4700 C.3       5 GLY6        0.0000 
    102 CA         24.9000   10.3500   15.3300 C.3       5 GLY6        0.0000 
    103 CA         24.6000   12.1100   12.5000 C.3       5 GLY6        0.0000 
    104 CA         22.5200   14.1300   10.8000 C.3       5 GLY6        0.0000 
    105 CA         23.8100   13.3800   10.9900 C.3       5 GLY6        0.0000 
    106 CA         23.0100   14.6400    9.4800 C.3       5 GLY6        0.0000 
    107 CA         26.5600   14.1300    7.2000 C.3       5 GLY6        0.0000 
    108 CA         23.1300   15.3300   11.4800 C.3       5 GLY6        0.0000 
    109 CA         25.6900   13.8100   11.8500 C.3       5 GLY6        0.0000 
    110 CA         29.5400   11.5400   12.4100 C.3       5 GLY6        0.0000 
    111 DU         24.7800    9.6600   13.3300 H         6 CUB7        0.0000 
    112 DU         24.4800   11.4300   10.4900 H         6 CUB7        0.0000 
    113 DU         25.0900   12.6200   11.1700 H         6 CUB7        0.0000 
    114 DU         26.3700   11.8600   11.3600 H         6 CUB7        0.0000 
    115 DU         24.3000   13.8800    9.6600 H         6 CUB7        0.0000 
    116 DU         25.5800   13.1200    9.8500 H         6 CUB7        0.0000 
    117 DU         26.8600   12.3700   10.0300 H         6 CUB7        0.0000 
    118 DU         23.5000   15.1400    8.1500 H         6 CUB7        0.0000 
    119 DU         24.7900   14.3900    8.3400 H         6 CUB7        0.0000 
    120 DU         26.0700   13.6300    8.5200 H         6 CUB7        0.0000 
    121 DU         25.2700   14.8900    7.0100 H         6 CUB7        0.0000 
    122 DU         27.4700   13.5600   10.7100 H         6 CUB7        0.0000 
    123 DU         28.7500   12.8000   10.9000 H         6 CUB7        0.0000 
    124 DU         25.8800   16.0800    7.6900 H         6 CUB7        0.0000 
    125 DU         27.1600   15.3300    7.8800 H         6 CUB7        0.0000 
    126 DU         29.0500   15.7600    8.7400 H         6 CUB7        0.0000 
@<TRIPOS>BOND
@<TRIPOS>SUBSTRUCTURE
     1 SER1        1 GROUP   
     2 ALA2       33 GROUP   
     3 LYS4       69 GROUP   
     4 PHE5       78 GROUP   
     5 GLY6       89 GROUP   
     6 CUB7      111 GROUP   
@<TRIPOS>SET

