#    Name: 6kvj_1_UDX
#    Modification time : Fri May 22 19:27:33 2020

@<TRIPOS>MOLECULE
6kvj_1_UDX
   34    36     1     0     0
SMALL
NO_CHARGES


@<TRIPOS>ATOM
      1 C1'        25.8070   12.0310   11.4110 C.3       1 UDX801      0.0000 
      2 C2'        26.2090   13.4850   11.4560 C.3       1 UDX801      0.0000 
      3 O2'        25.5380   14.0580   10.3470 O.3       1 UDX801      0.0000 
      4 C3'        27.6920   13.7020   11.2010 C.3       1 UDX801      0.0000 
      5 O3'        28.2830   14.6510   12.0530 O.3       1 UDX801      0.0000 
      6 C4'        28.4550   12.4310   11.3500 C.3       1 UDX801      0.0000 
      7 O4'        29.7030   12.7250   10.8130 O.3       1 UDX801      0.0000 
      8 C5'        27.8650   11.3800   10.4420 C.3       1 UDX801      0.0000 
      9 O5'        26.4540   11.5240   10.2430 O.3       1 UDX801      0.0000 
     10 PB         23.8260   10.3960   11.4250 P.3       1 UDX801      0.0000 
     11 O1B        22.6080   10.2980   12.1820 O.co2     1 UDX801      0.0000 
     12 O2B        23.7400    9.9480   10.0790 O.co2     1 UDX801      0.0000 
     13 O3B        24.3980   11.8310   11.3620 O.3       1 UDX801      0.0000 
     14 O3A        24.9860    9.4950   11.9860 O.3       1 UDX801      0.0000 
     15 PA         25.7510    9.2500   13.3310 P.3       1 UDX801      0.0000 
     16 O1A        25.7970    7.8380   13.5060 O.co2     1 UDX801      0.0000 
     17 O2A        26.9630    9.9860   13.1650 O.co2     1 UDX801      0.0000 
     18 O5D        24.9710    9.8220   14.5180 O.3       1 UDX801      0.0000 
     19 C5D        23.7900    9.1970   14.8990 C.3       1 UDX801      0.0000 
     20 C4D        23.5450    9.2250   16.3790 C.3       1 UDX801      0.0000 
     21 O4D        22.2800    8.6420   16.5750 O.3       1 UDX801      0.0000 
     22 C3D        24.4960    8.3470   17.1420 C.3       1 UDX801      0.0000 
     23 O3D        25.1180    9.1420   18.1340 O.3       1 UDX801      0.0000 
     24 C2D        23.6510    7.2520   17.7370 C.3       1 UDX801      0.0000 
     25 O2D        23.9920    6.8840   19.0560 O.3       1 UDX801      0.0000 
     26 C1D        22.2900    7.8560   17.7210 C.3       1 UDX801      0.0000 
     27 N1         21.2980    6.8380   17.5940 N.am      1 UDX801      0.0000 
     28 C6         21.1330    6.2070   16.4590 C.2       1 UDX801      0.0000 
     29 C2         20.5050    6.5100   18.6830 C.2       1 UDX801      0.0000 
     30 O2         20.6260    7.0880   19.7500 O.2       1 UDX801      0.0000 
     31 N3         19.5830    5.5950   18.5690 N.am      1 UDX801      0.0000 
     32 C4         19.3980    4.9470   17.4360 C.2       1 UDX801      0.0000 
     33 O4         18.5480    4.0990   17.3420 O.2       1 UDX801      0.0000 
     34 C5         20.1710    5.2300   16.3480 C.2       1 UDX801      0.0000 
@<TRIPOS>BOND
     1    1    2 1    
     2    1    9 1    
     3    1   13 1    
     4    2    3 1    
     5    2    4 1    
     6    4    5 1    
     7    4    6 1    
     8    6    7 1    
     9    6    8 1    
    10    8    9 1    
    11   10   11 ar   
    12   10   12 ar   
    13   10   13 1    
    14   10   14 1    
    15   14   15 1    
    16   15   16 ar   
    17   15   17 ar   
    18   15   18 1    
    19   18   19 1    
    20   19   20 1    
    21   20   21 1    
    22   20   22 1    
    23   21   26 1    
    24   22   23 1    
    25   22   24 1    
    26   24   25 1    
    27   24   26 1    
    28   26   27 1    
    29   27   28 1    
    30   27   29 1    
    31   28   34 2    
    32   29   30 2    
    33   29   31 1    
    34   31   32 1    
    35   32   33 2    
    36   32   34 1    
@<TRIPOS>SUBSTRUCTURE
     1 UDX801      1 GROUP   
@<TRIPOS>SET

