#    Name: 6pvi_1_FAD
#    Modification time : Fri May 22 19:35:28 2020

@<TRIPOS>MOLECULE
6pvi_1_FAD
   53    58     1     0     1
SMALL
NO_CHARGES


@<TRIPOS>ATOM
      1 PA        -12.0530  -16.6190   15.4600 P.3       1 FAD502      0.0000 
      2 O1A       -11.0570  -15.6890   14.8750 O.co2     1 FAD502      0.0000 
      3 O2A       -11.8600  -17.0560   16.9060 O.co2     1 FAD502      0.0000 
      4 O5B       -12.0960  -17.9710   14.6650 O.3       1 FAD502      0.0000 
      5 C5B       -12.4320  -18.0080   13.2580 C.3       1 FAD502      0.0000 
      6 C4B       -11.9490  -19.3230   12.6850 C.3       1 FAD502      0.0000 
      7 O4B       -12.4680  -19.5120   11.3510 O.3       1 FAD502      0.0000 
      8 C3B       -10.4290  -19.5160   12.5910 C.3       1 FAD502      0.0000 
      9 O3B       -10.1510  -20.8080   13.1070 O.3       1 FAD502      0.0000 
     10 C2B       -10.1550  -19.4750   11.0840 C.3       1 FAD502      0.0000 
     11 O2B        -9.1670  -20.4020   10.6540 O.3       1 FAD502      0.0000 
     12 C1B       -11.4460  -20.0670   10.5490 C.3       1 FAD502      0.0000 
     13 N9A       -11.7320  -19.7740    9.1520 N.pl3     1 FAD502      0.0000 
     14 C8A       -11.6560  -18.5710    8.5000 C.2       1 FAD502      0.0000 
     15 N7A       -12.0380  -18.6190    7.2460 N.2       1 FAD502      0.0000 
     16 C5A       -12.3790  -19.9540    7.0610 C.ar      1 FAD502      0.0000 
     17 C6A       -12.8500  -20.6740    5.9370 C.ar      1 FAD502      0.0000 
     18 N6A       -13.0820  -20.1300    4.7420 N.pl3     1 FAD502      0.0000 
     19 N1A       -13.0850  -21.9940    6.0970 N.ar      1 FAD502      0.0000 
     20 C2A       -12.8550  -22.5510    7.2860 C.ar      1 FAD502      0.0000 
     21 N3A       -12.4060  -21.9810    8.4070 N.ar      1 FAD502      0.0000 
     22 C4A       -12.1840  -20.6740    8.2220 C.ar      1 FAD502      0.0000 
     23 N1         -8.6320  -13.4570   21.2100 N.2       1 FAD502      0.0000 
     24 C2         -8.1960  -13.1240   22.4620 C.2       1 FAD502      0.0000 
     25 O2         -8.8320  -12.3620   23.1990 O.2       1 FAD502      0.0000 
     26 N3         -7.0110  -13.6440   22.9300 N.am      1 FAD502      0.0000 
     27 C4         -6.1840  -14.5040   22.2560 C.2       1 FAD502      0.0000 
     28 O4         -5.1490  -14.9070   22.7810 O.2       1 FAD502      0.0000 
     29 C4X        -6.6580  -14.8640   20.9380 C.2       1 FAD502      0.0000 
     30 N5         -5.9290  -15.6780   20.2300 N.2       1 FAD502      0.0000 
     31 C5X        -6.3710  -16.0190   18.9730 C.ar      1 FAD502      0.0000 
     32 C6         -5.6030  -16.9010   18.2100 C.ar      1 FAD502      0.0000 
     33 C7         -6.0130  -17.2870   16.9380 C.ar      1 FAD502      0.0000 
     34 C7M        -5.1590  -18.2360   16.1360 C.3       1 FAD502      0.0000 
     35 C8         -7.2180  -16.7890   16.4150 C.ar      1 FAD502      0.0000 
     36 C8M        -7.6900  -17.1930   15.0430 C.3       1 FAD502      0.0000 
     37 C9         -7.9870  -15.9110   17.1750 C.ar      1 FAD502      0.0000 
     38 C9A        -7.5820  -15.5350   18.4490 C.ar      1 FAD502      0.0000 
     39 N10        -8.3470  -14.6580   19.2490 N.pl3     1 FAD502      0.0000 
     40 C10        -7.9050  -14.2950   20.5030 C.2       1 FAD502      0.0000 
     41 C1'        -9.6060  -14.0830   18.7430 C.3       1 FAD502      0.0000 
     42 C2'       -10.8490  -14.6130   19.4480 C.3       1 FAD502      0.0000 
     43 O2'       -10.9930  -16.0140   19.2190 O.3       1 FAD502      0.0000 
     44 C3'       -12.0750  -13.8790   18.9100 C.3       1 FAD502      0.0000 
     45 O3'       -11.8850  -12.4770   19.0680 O.3       1 FAD502      0.0000 
     46 C4'       -13.3990  -14.3020   19.5540 C.3       1 FAD502      0.0000 
     47 O4'       -13.2110  -14.5990   20.9380 O.3       1 FAD502      0.0000 
     48 C5'       -14.0350  -15.4680   18.8280 C.3       1 FAD502      0.0000 
     49 O5'       -14.3830  -15.0430   17.4950 O.3       1 FAD502      0.0000 
     50 P         -14.7350  -16.0750   16.3610 P.3       1 FAD502      0.0000 
     51 O1P       -15.9620  -15.4370   15.7000 O.co2     1 FAD502      0.0000 
     52 O2P       -14.8140  -17.3970   16.9270 O.co2     1 FAD502      0.0000 
     53 O3P       -13.5090  -15.9880   15.3250 O.3       1 FAD502      0.0000 
@<TRIPOS>BOND
     1    1    2 ar   
     2    1    3 ar   
     3    1    4 1    
     4    1   53 1    
     5    4    5 1    
     6    5    6 1    
     7    6    7 1    
     8    6    8 1    
     9    7   12 1    
    10    8    9 1    
    11    8   10 1    
    12   10   11 1    
    13   10   12 1    
    14   12   13 1    
    15   13   14 1    
    16   13   22 1    
    17   14   15 2    
    18   15   16 1    
    19   16   17 ar   
    20   16   22 ar   
    21   17   18 1    
    22   17   19 ar   
    23   19   20 ar   
    24   20   21 ar   
    25   21   22 ar   
    26   23   24 1    
    27   23   40 2    
    28   24   25 2    
    29   24   26 am   
    30   26   27 am   
    31   27   28 2    
    32   27   29 1    
    33   29   30 2    
    34   29   40 1    
    35   30   31 1    
    36   31   32 ar   
    37   31   38 ar   
    38   32   33 ar   
    39   33   34 1    
    40   33   35 ar   
    41   35   36 1    
    42   35   37 ar   
    43   37   38 ar   
    44   38   39 1    
    45   39   40 1    
    46   39   41 1    
    47   41   42 1    
    48   42   43 1    
    49   42   44 1    
    50   44   45 1    
    51   44   46 1    
    52   46   47 1    
    53   46   48 1    
    54   48   49 1    
    55   49   50 1    
    56   50   51 ar   
    57   50   52 ar   
    58   50   53 1    
@<TRIPOS>SUBSTRUCTURE
     1 FAD502      1 GROUP   
@<TRIPOS>SET
ATOM$ORANGE STATIC     ATOMS   COLORGROUP SYSTEM 
54 5 5 6 6 8 8 10 10 12 12 14 14 16 16 17 17 20 \
20 22 22 24 24 27 27 29 29 31 31 32 32 33 33 34 34 35 \
35 36 36 37 37 38 38 40 40 41 41 42 42 44 44 46 46 48 \
48 

