#    Name: 6cmz_7_FAD
#    Modification time : Fri May 22 19:29:38 2020

@<TRIPOS>MOLECULE
6cmz_7_FAD
   53    58     1     0     1
SMALL
NO_CHARGES


@<TRIPOS>ATOM
      1 PA          9.2840   60.2980   21.5330 P.3       1 FAD502      0.0000 
      2 O1A         7.8700   59.9150   21.1950 O.co2     1 FAD502      0.0000 
      3 O2A        10.3890   59.4400   20.9800 O.co2     1 FAD502      0.0000 
      4 O5B         9.5360   61.8070   21.0370 O.3       1 FAD502      0.0000 
      5 C5B        10.8290   62.4040   21.0770 C.3       1 FAD502      0.0000 
      6 C4B        10.9530   63.3870   19.9190 C.3       1 FAD502      0.0000 
      7 O4B        12.0020   64.3250   20.1700 O.3       1 FAD502      0.0000 
      8 C3B        11.2860   62.7080   18.6000 C.3       1 FAD502      0.0000 
      9 O3B        10.2780   63.0410   17.6460 O.3       1 FAD502      0.0000 
     10 C2B        12.6400   63.2510   18.1750 C.3       1 FAD502      0.0000 
     11 O2B        12.6850   63.5110   16.7640 O.3       1 FAD502      0.0000 
     12 C1B        12.7820   64.5270   18.9840 C.3       1 FAD502      0.0000 
     13 N9A        14.1650   64.8930   19.3810 N.pl3     1 FAD502      0.0000 
     14 C8A        15.0380   64.1480   20.0860 C.2       1 FAD502      0.0000 
     15 N7A        16.1980   64.8270   20.2870 N.2       1 FAD502      0.0000 
     16 C5A        16.0650   66.0300   19.7110 C.ar      1 FAD502      0.0000 
     17 C6A        16.9100   67.2360   19.5470 C.ar      1 FAD502      0.0000 
     18 N6A        18.1610   67.2740   20.0590 N.pl3     1 FAD502      0.0000 
     19 N1A        16.3940   68.2860   18.8700 N.ar      1 FAD502      0.0000 
     20 C2A        15.1450   68.2610   18.3530 C.ar      1 FAD502      0.0000 
     21 N3A        14.3270   67.1950   18.4680 N.ar      1 FAD502      0.0000 
     22 C4A        14.7240   66.0730   19.1230 C.ar      1 FAD502      0.0000 
     23 N1          3.3910   53.3140   24.0430 N.2       1 FAD502      0.0000 
     24 C2          2.1110   53.1870   24.4640 C.2       1 FAD502      0.0000 
     25 O2          1.7620   53.8560   25.4570 O.2       1 FAD502      0.0000 
     26 N3          1.2260   52.3720   23.8480 N.am      1 FAD502      0.0000 
     27 C4          1.5680   51.6340   22.7710 C.2       1 FAD502      0.0000 
     28 O4          0.7420   50.8840   22.2130 O.2       1 FAD502      0.0000 
     29 C4X         2.9500   51.7200   22.2520 C.2       1 FAD502      0.0000 
     30 N5          3.3690   51.0080   21.1850 N.2       1 FAD502      0.0000 
     31 C5X         4.6400   51.1150   20.7360 C.ar      1 FAD502      0.0000 
     32 C6          5.0340   50.3730   19.6220 C.ar      1 FAD502      0.0000 
     33 C7          6.3360   50.4640   19.1350 C.ar      1 FAD502      0.0000 
     34 C7M         6.7380   49.6500   17.9340 C.3       1 FAD502      0.0000 
     35 C8          7.3100   51.3660   19.8140 C.ar      1 FAD502      0.0000 
     36 C8M         8.7350   51.5250   19.3570 C.3       1 FAD502      0.0000 
     37 C9          6.9180   52.1030   20.9180 C.ar      1 FAD502      0.0000 
     38 C9A         5.6130   52.0260   21.4150 C.ar      1 FAD502      0.0000 
     39 N10         5.1830   52.7700   22.5420 N.pl3     1 FAD502      0.0000 
     40 C10         3.8590   52.6310   22.9730 C.2       1 FAD502      0.0000 
     41 C1'         6.0440   53.6750   23.3040 C.3       1 FAD502      0.0000 
     42 C2'         5.8060   55.1180   22.9010 C.3       1 FAD502      0.0000 
     43 O2'         5.9260   55.2480   21.4780 O.3       1 FAD502      0.0000 
     44 C3'         6.8180   55.9960   23.6110 C.3       1 FAD502      0.0000 
     45 O3'         6.8490   55.6590   25.0030 O.3       1 FAD502      0.0000 
     46 C4'         6.4730   57.4720   23.4620 C.3       1 FAD502      0.0000 
     47 O4'         6.5280   57.8320   22.0780 O.3       1 FAD502      0.0000 
     48 C5'         7.4370   58.3390   24.2590 C.3       1 FAD502      0.0000 
     49 O5'         7.2250   59.6980   23.9240 O.3       1 FAD502      0.0000 
     50 P           8.3590   60.7780   24.2290 P.3       1 FAD502      0.0000 
     51 O1P         7.7630   62.1410   23.9600 O.co2     1 FAD502      0.0000 
     52 O2P         8.9630   60.4970   25.5750 O.co2     1 FAD502      0.0000 
     53 O3P         9.4940   60.4180   23.1310 O.3       1 FAD502      0.0000 
@<TRIPOS>BOND
     1    1    2 ar   
     2    1    3 ar   
     3    1    4 1    
     4    1   53 1    
     5    4    5 1    
     6    5    6 1    
     7    6    7 1    
     8    6    8 1    
     9    7   12 1    
    10    8    9 1    
    11    8   10 1    
    12   10   11 1    
    13   10   12 1    
    14   12   13 1    
    15   13   14 1    
    16   13   22 1    
    17   14   15 2    
    18   15   16 1    
    19   16   17 ar   
    20   16   22 ar   
    21   17   18 1    
    22   17   19 ar   
    23   19   20 ar   
    24   20   21 ar   
    25   21   22 ar   
    26   23   24 1    
    27   23   40 2    
    28   24   25 2    
    29   24   26 am   
    30   26   27 am   
    31   27   28 2    
    32   27   29 1    
    33   29   30 2    
    34   29   40 1    
    35   30   31 1    
    36   31   32 ar   
    37   31   38 ar   
    38   32   33 ar   
    39   33   34 1    
    40   33   35 ar   
    41   35   36 1    
    42   35   37 ar   
    43   37   38 ar   
    44   38   39 1    
    45   39   40 1    
    46   39   41 1    
    47   41   42 1    
    48   42   43 1    
    49   42   44 1    
    50   44   45 1    
    51   44   46 1    
    52   46   47 1    
    53   46   48 1    
    54   48   49 1    
    55   49   50 1    
    56   50   51 ar   
    57   50   52 ar   
    58   50   53 1    
@<TRIPOS>SUBSTRUCTURE
     1 FAD502      1 GROUP   
@<TRIPOS>SET
ATOM$ORANGE STATIC     ATOMS   COLORGROUP SYSTEM 
54 5 5 6 6 8 8 10 10 12 12 14 14 16 16 17 17 20 \
20 22 22 24 24 27 27 29 29 31 31 32 32 33 33 34 34 35 \
35 36 36 37 37 38 38 40 40 41 41 42 42 44 44 46 46 48 \
48 

