#    Name: 6cmz_3_FAD
#    Modification time : Fri May 22 19:29:23 2020

@<TRIPOS>MOLECULE
6cmz_3_FAD
   53    58     1     0     1
SMALL
NO_CHARGES


@<TRIPOS>ATOM
      1 PA        -30.4220  -11.6340   18.3260 P.3       1 FAD501      0.0000 
      2 O1A       -28.9800  -11.3050   18.0750 O.co2     1 FAD501      0.0000 
      3 O2A       -31.4910  -10.7970   17.6700 O.co2     1 FAD501      0.0000 
      4 O5B       -30.6250  -13.1680   17.8650 O.3       1 FAD501      0.0000 
      5 C5B       -31.9210  -13.7140   17.6540 C.3       1 FAD501      0.0000 
      6 C4B       -31.8520  -14.7290   16.5280 C.3       1 FAD501      0.0000 
      7 O4B       -32.9280  -15.6510   16.6890 O.3       1 FAD501      0.0000 
      8 C3B       -31.9960  -14.1240   15.1390 C.3       1 FAD501      0.0000 
      9 O3B       -30.8820  -14.5060   14.3400 O.3       1 FAD501      0.0000 
     10 C2B       -33.2730  -14.7060   14.5700 C.3       1 FAD501      0.0000 
     11 O2B       -33.1320  -15.0640   13.1960 O.3       1 FAD501      0.0000 
     12 C1B       -33.5240  -15.9290   15.4250 C.3       1 FAD501      0.0000 
     13 N9A       -34.9500  -16.2470   15.6620 N.pl3     1 FAD501      0.0000 
     14 C8A       -35.8730  -15.4610   16.2430 C.2       1 FAD501      0.0000 
     15 N7A       -37.0660  -16.1000   16.3210 N.2       1 FAD501      0.0000 
     16 C5A       -36.9050  -17.3250   15.7900 C.ar      1 FAD501      0.0000 
     17 C6A       -37.7530  -18.5160   15.5540 C.ar      1 FAD501      0.0000 
     18 N6A       -39.0540  -18.5230   15.9100 N.pl3     1 FAD501      0.0000 
     19 N1A       -37.1830  -19.5950   14.9740 N.ar      1 FAD501      0.0000 
     20 C2A       -35.8830  -19.6140   14.6110 C.ar      1 FAD501      0.0000 
     21 N3A       -35.0570  -18.5650   14.7950 N.ar      1 FAD501      0.0000 
     22 C4A       -35.5050  -17.4180   15.3670 C.ar      1 FAD501      0.0000 
     23 N1        -24.9050   -4.5230   21.2530 N.2       1 FAD501      0.0000 
     24 C2        -23.6800   -4.3570   21.8220 C.2       1 FAD501      0.0000 
     25 O2        -23.4240   -4.9590   22.8820 O.2       1 FAD501      0.0000 
     26 N3        -22.7300   -3.5690   21.2870 N.am      1 FAD501      0.0000 
     27 C4        -22.9290   -2.8920   20.1490 C.2       1 FAD501      0.0000 
     28 O4        -22.0160   -2.1760   19.6920 O.2       1 FAD501      0.0000 
     29 C4X       -24.2370   -3.0120   19.4530 C.2       1 FAD501      0.0000 
     30 N5        -24.5150   -2.3650   18.2990 N.2       1 FAD501      0.0000 
     31 C5X       -25.7130   -2.4950   17.6790 C.ar      1 FAD501      0.0000 
     32 C6        -25.9390   -1.7970   16.4930 C.ar      1 FAD501      0.0000 
     33 C7        -27.1600   -1.8990   15.8210 C.ar      1 FAD501      0.0000 
     34 C7M       -27.3800   -1.1360   14.5360 C.3       1 FAD501      0.0000 
     35 C8        -28.2290   -2.7690   16.3860 C.ar      1 FAD501      0.0000 
     36 C8M       -29.5680   -2.9290   15.7150 C.3       1 FAD501      0.0000 
     37 C9        -28.0070   -3.4610   17.5720 C.ar      1 FAD501      0.0000 
     38 C9A       -26.7840   -3.3680   18.2570 C.ar      1 FAD501      0.0000 
     39 N10       -26.5140   -4.0590   19.4760 N.pl3     1 FAD501      0.0000 
     40 C10       -25.2480   -3.8940   20.0920 C.2       1 FAD501      0.0000 
     41 C1'       -27.4890   -4.9320   20.1440 C.3       1 FAD501      0.0000 
     42 C2'       -27.1720   -6.3990   19.9160 C.3       1 FAD501      0.0000 
     43 O2'       -27.1730   -6.6530   18.5110 O.3       1 FAD501      0.0000 
     44 C3'       -28.2170   -7.2500   20.6120 C.3       1 FAD501      0.0000 
     45 O3'       -28.2480   -6.9340   22.0150 O.3       1 FAD501      0.0000 
     46 C4'       -27.9230   -8.7290   20.4190 C.3       1 FAD501      0.0000 
     47 O4'       -28.0530   -9.0730   19.0340 O.3       1 FAD501      0.0000 
     48 C5'       -28.8810   -9.5750   21.2320 C.3       1 FAD501      0.0000 
     49 O5'       -28.6130  -10.9310   20.9350 O.3       1 FAD501      0.0000 
     50 P         -29.7680  -12.0220   21.0850 P.3       1 FAD501      0.0000 
     51 O1P       -29.1220  -13.3570   20.8740 O.co2     1 FAD501      0.0000 
     52 O2P       -30.5210  -11.7620   22.3560 O.co2     1 FAD501      0.0000 
     53 O3P       -30.7740  -11.6560   19.8900 O.3       1 FAD501      0.0000 
@<TRIPOS>BOND
     1    1    2 ar   
     2    1    3 ar   
     3    1    4 1    
     4    1   53 1    
     5    4    5 1    
     6    5    6 1    
     7    6    7 1    
     8    6    8 1    
     9    7   12 1    
    10    8    9 1    
    11    8   10 1    
    12   10   11 1    
    13   10   12 1    
    14   12   13 1    
    15   13   14 1    
    16   13   22 1    
    17   14   15 2    
    18   15   16 1    
    19   16   17 ar   
    20   16   22 ar   
    21   17   18 1    
    22   17   19 ar   
    23   19   20 ar   
    24   20   21 ar   
    25   21   22 ar   
    26   23   24 1    
    27   23   40 2    
    28   24   25 2    
    29   24   26 am   
    30   26   27 am   
    31   27   28 2    
    32   27   29 1    
    33   29   30 2    
    34   29   40 1    
    35   30   31 1    
    36   31   32 ar   
    37   31   38 ar   
    38   32   33 ar   
    39   33   34 1    
    40   33   35 ar   
    41   35   36 1    
    42   35   37 ar   
    43   37   38 ar   
    44   38   39 1    
    45   39   40 1    
    46   39   41 1    
    47   41   42 1    
    48   42   43 1    
    49   42   44 1    
    50   44   45 1    
    51   44   46 1    
    52   46   47 1    
    53   46   48 1    
    54   48   49 1    
    55   49   50 1    
    56   50   51 ar   
    57   50   52 ar   
    58   50   53 1    
@<TRIPOS>SUBSTRUCTURE
     1 FAD501      1 GROUP   
@<TRIPOS>SET
ATOM$ORANGE STATIC     ATOMS   COLORGROUP SYSTEM 
54 5 5 6 6 8 8 10 10 12 12 14 14 16 16 17 17 20 \
20 22 22 24 24 27 27 29 29 31 31 32 32 33 33 34 34 35 \
35 36 36 37 37 38 38 40 40 41 41 42 42 44 44 46 46 48 \
48 

