#    Name: 6cmz_1_FAD
#    Modification time : Fri May 22 19:29:07 2020

@<TRIPOS>MOLECULE
6cmz_1_FAD
   53    58     1     0     1
SMALL
NO_CHARGES


@<TRIPOS>ATOM
      1 PA         14.3390   13.5170   33.4200 P.3       1 FAD502      0.0000 
      2 O1A        12.9690   13.4500   32.8080 O.co2     1 FAD502      0.0000 
      3 O2A        15.5320   13.3740   32.5110 O.co2     1 FAD502      0.0000 
      4 O5B        14.4540   14.9420   34.1560 O.3       1 FAD502      0.0000 
      5 C5B        15.6610   15.3360   34.8010 C.3       1 FAD502      0.0000 
      6 C4B        15.7000   16.8530   34.8950 C.3       1 FAD502      0.0000 
      7 O4B        16.7120   17.2610   35.8180 O.3       1 FAD502      0.0000 
      8 C3B        16.0240   17.5390   33.5740 C.3       1 FAD502      0.0000 
      9 O3B        14.9940   18.4890   33.3040 O.3       1 FAD502      0.0000 
     10 C2B        17.3670   18.2280   33.7850 C.3       1 FAD502      0.0000 
     11 O2B        17.4880   19.4830   33.1030 O.3       1 FAD502      0.0000 
     12 C1B        17.3950   18.4000   35.2940 C.3       1 FAD502      0.0000 
     13 N9A        18.7410   18.4790   35.9100 N.pl3     1 FAD502      0.0000 
     14 C8A        19.7410   17.5810   35.8120 C.2       1 FAD502      0.0000 
     15 N7A        20.8160   17.9880   36.5370 N.2       1 FAD502      0.0000 
     16 C5A        20.4940   19.1540   37.1140 C.ar      1 FAD502      0.0000 
     17 C6A        21.1680   20.1180   38.0090 C.ar      1 FAD502      0.0000 
     18 N6A        22.4360   19.8920   38.4300 N.pl3     1 FAD502      0.0000 
     19 N1A        20.4790   21.2230   38.3880 N.ar      1 FAD502      0.0000 
     20 C2A        19.2110   21.4560   37.9700 C.ar      1 FAD502      0.0000 
     21 N3A        18.5430   20.6100   37.1480 N.ar      1 FAD502      0.0000 
     22 C4A        19.1260   19.4710   36.7010 C.ar      1 FAD502      0.0000 
     23 N1          9.0890    6.8620   29.2340 N.2       1 FAD502      0.0000 
     24 C2          7.8190    6.4090   29.2860 C.2       1 FAD502      0.0000 
     25 O2          7.3780    6.0900   30.4090 O.2       1 FAD502      0.0000 
     26 N3          7.0440    6.2870   28.1850 N.am      1 FAD502      0.0000 
     27 C4          7.5020    6.6200   26.9600 C.2       1 FAD502      0.0000 
     28 O4          6.7870    6.5120   25.9480 O.2       1 FAD502      0.0000 
     29 C4X         8.8790    7.1340   26.8180 C.2       1 FAD502      0.0000 
     30 N5          9.4060    7.4910   25.6270 N.2       1 FAD502      0.0000 
     31 C5X        10.6750    7.9540   25.5320 C.ar      1 FAD502      0.0000 
     32 C6         11.1820    8.3170   24.2850 C.ar      1 FAD502      0.0000 
     33 C7         12.4840    8.8030   24.1600 C.ar      1 FAD502      0.0000 
     34 C7M        13.0330    9.1970   22.8120 C.3       1 FAD502      0.0000 
     35 C8         13.3280    8.9360   25.3780 C.ar      1 FAD502      0.0000 
     36 C8M        14.7380    9.4600   25.3020 C.3       1 FAD502      0.0000 
     37 C9         12.8250    8.5780   26.6160 C.ar      1 FAD502      0.0000 
     38 C9A        11.5240    8.0900   26.7530 C.ar      1 FAD502      0.0000 
     39 N10        10.9760    7.7210   28.0180 N.pl3     1 FAD502      0.0000 
     40 C10         9.6640    7.2330   28.0680 C.2       1 FAD502      0.0000 
     41 C1'        11.7230    7.7840   29.2740 C.3       1 FAD502      0.0000 
     42 C2'        11.3650    8.9900   30.1110 C.3       1 FAD502      0.0000 
     43 O2'        11.5650   10.2020   29.3820 O.3       1 FAD502      0.0000 
     44 C3'        12.2570    8.9740   31.3320 C.3       1 FAD502      0.0000 
     45 O3'        12.1630    7.7030   31.9820 O.3       1 FAD502      0.0000 
     46 C4'        11.8450   10.0600   32.2940 C.3       1 FAD502      0.0000 
     47 O4'        11.9360   11.3250   31.6270 O.3       1 FAD502      0.0000 
     48 C5'        12.7420   10.0320   33.5200 C.3       1 FAD502      0.0000 
     49 O5'        12.3520   11.0940   34.3630 O.3       1 FAD502      0.0000 
     50 P          13.3610   11.6660   35.4550 P.3       1 FAD502      0.0000 
     51 O1P        12.5840   12.6580   36.2800 O.co2     1 FAD502      0.0000 
     52 O2P        14.0460   10.4880   36.1060 O.co2     1 FAD502      0.0000 
     53 O3P        14.5140   12.4540   34.6330 O.3       1 FAD502      0.0000 
@<TRIPOS>BOND
     1    1    2 ar   
     2    1    3 ar   
     3    1    4 1    
     4    1   53 1    
     5    4    5 1    
     6    5    6 1    
     7    6    7 1    
     8    6    8 1    
     9    7   12 1    
    10    8    9 1    
    11    8   10 1    
    12   10   11 1    
    13   10   12 1    
    14   12   13 1    
    15   13   14 1    
    16   13   22 1    
    17   14   15 2    
    18   15   16 1    
    19   16   17 ar   
    20   16   22 ar   
    21   17   18 1    
    22   17   19 ar   
    23   19   20 ar   
    24   20   21 ar   
    25   21   22 ar   
    26   23   24 1    
    27   23   40 2    
    28   24   25 2    
    29   24   26 am   
    30   26   27 am   
    31   27   28 2    
    32   27   29 1    
    33   29   30 2    
    34   29   40 1    
    35   30   31 1    
    36   31   32 ar   
    37   31   38 ar   
    38   32   33 ar   
    39   33   34 1    
    40   33   35 ar   
    41   35   36 1    
    42   35   37 ar   
    43   37   38 ar   
    44   38   39 1    
    45   39   40 1    
    46   39   41 1    
    47   41   42 1    
    48   42   43 1    
    49   42   44 1    
    50   44   45 1    
    51   44   46 1    
    52   46   47 1    
    53   46   48 1    
    54   48   49 1    
    55   49   50 1    
    56   50   51 ar   
    57   50   52 ar   
    58   50   53 1    
@<TRIPOS>SUBSTRUCTURE
     1 FAD502      1 GROUP   
@<TRIPOS>SET
ATOM$ORANGE STATIC     ATOMS   COLORGROUP SYSTEM 
54 5 5 6 6 8 8 10 10 12 12 14 14 16 16 17 17 20 \
20 22 22 24 24 27 27 29 29 31 31 32 32 33 33 34 34 35 \
35 36 36 37 37 38 38 40 40 41 41 42 42 44 44 46 46 48 \
48 

