#    Name: 6jat_2_SFG
#    Modification time : Fri May 22 19:25:17 2020

@<TRIPOS>MOLECULE
6jat_2_SFG
   27    29     1     0     0
SMALL
NO_CHARGES


@<TRIPOS>ATOM
      1 N          20.3730  -16.9910  -36.6410 N.4       1 SFG501      0.0000 
      2 CA         19.9890  -18.0710  -35.7490 C.3       1 SFG501      0.0000 
      3 C          20.0950  -19.3990  -36.4370 C.2       1 SFG501      0.0000 
      4 O          20.5480  -19.4670  -37.6020 O.co2     1 SFG501      0.0000 
      5 OXT        19.7100  -20.4000  -35.8030 O.co2     1 SFG501      0.0000 
      6 CB         18.5600  -17.8680  -35.2370 C.3       1 SFG501      0.0000 
      7 CG         18.5610  -17.0200  -33.9690 C.3       1 SFG501      0.0000 
      8 CD         19.2820  -17.7380  -32.8300 C.3       1 SFG501      0.0000 
      9 NE         18.3000  -18.2490  -31.9050 N.4       1 SFG501      0.0000 
     10 C5'        20.1870  -16.7900  -32.0670 C.3       1 SFG501      0.0000 
     11 C4'        21.4990  -16.6280  -32.8100 C.3       1 SFG501      0.0000 
     12 O4'        21.3330  -15.7230  -33.9000 O.3       1 SFG501      0.0000 
     13 C3'        22.5850  -16.0110  -31.9590 C.3       1 SFG501      0.0000 
     14 O3'        23.3080  -17.0410  -31.2860 O.3       1 SFG501      0.0000 
     15 C2'        23.4510  -15.3000  -32.9790 C.3       1 SFG501      0.0000 
     16 O2'        24.4030  -16.2220  -33.5170 O.3       1 SFG501      0.0000 
     17 C1'        22.4970  -14.9220  -34.0870 C.3       1 SFG501      0.0000 
     18 N9         22.0660  -13.5190  -33.9380 N.pl3     1 SFG501      0.0000 
     19 C8         20.8810  -13.1400  -33.4390 C.2       1 SFG501      0.0000 
     20 N7         20.7620  -11.7920  -33.4440 N.2       1 SFG501      0.0000 
     21 C5         21.8850  -11.2880  -33.9620 C.ar      1 SFG501      0.0000 
     22 C6         22.3930   -9.9380  -34.2430 C.ar      1 SFG501      0.0000 
     23 N6         21.6480   -8.8510  -33.9520 N.pl3     1 SFG501      0.0000 
     24 N1         23.6180   -9.8350  -34.7930 N.ar      1 SFG501      0.0000 
     25 C2         24.3580  -10.9230  -35.0770 C.ar      1 SFG501      0.0000 
     26 N3         23.9560  -12.1870  -34.8440 N.ar      1 SFG501      0.0000 
     27 C4         22.7430  -12.4280  -34.2990 C.ar      1 SFG501      0.0000 
@<TRIPOS>BOND
     1   10   11 1    
     2   11   12 1    
     3   11   13 1    
     4   12   17 1    
     5   13   14 1    
     6   13   15 1    
     7   15   16 1    
     8   15   17 1    
     9   17   18 1    
    10   18   19 1    
    11   18   27 1    
    12   19   20 2    
    13   20   21 1    
    14   21   22 ar   
    15   21   27 ar   
    16   22   23 1    
    17   22   24 ar   
    18   24   25 ar   
    19   25   26 ar   
    20   26   27 ar   
    21    1    2 1    
    22    2    3 1    
    23    2    6 1    
    24    3    4 ar   
    25    3    5 ar   
    26    6    7 1    
    27    7    8 1    
    28    8    9 1    
    29    8   10 1    
@<TRIPOS>SUBSTRUCTURE
     1 SFG501      1 GROUP   
@<TRIPOS>SET

