#    Name: 6jat_1_SFG_CAVITY_N1_4
#    Modification time : Fri May 22 19:24:58 2020

@<TRIPOS>MOLECULE
6jat_1_SFG_CAVITY_N1_4
  128     0     7     0     0
SMALL
NO_CHARGES


@<TRIPOS>ATOM
      1 OG         36.7500  -20.9500  -53.6100 O.3       1 SER1        0.0000 
      2 OG         38.9900  -18.0400  -53.7800 O.3       1 SER1        0.0000 
      3 OG         37.7700  -16.3500  -54.1800 O.3       1 SER1        0.0000 
      4 OG         39.3500  -17.4700  -52.4400 O.3       1 SER1        0.0000 
      5 OG         40.7900  -17.8200  -52.6900 O.3       1 SER1        0.0000 
      6 OG         38.1300  -15.7800  -52.8400 O.3       1 SER1        0.0000 
      7 O          32.4300  -19.9000  -52.8900 O.2       2 ALA2        0.0000 
      8 N          32.6500  -18.5600  -53.5200 N.am      2 ALA2        0.0000 
      9 N          34.0900  -18.9100  -53.7600 N.am      2 ALA2        0.0000 
     10 N          35.5300  -19.2600  -54.0000 N.am      2 ALA2        0.0000 
     11 N          38.4100  -19.9600  -54.4900 N.am      2 ALA2        0.0000 
     12 N          37.1900  -18.2700  -54.8800 N.am      2 ALA2        0.0000 
     13 N          38.6300  -18.6200  -55.1200 N.am      2 ALA2        0.0000 
     14 N          37.4100  -16.9300  -55.5100 N.am      2 ALA2        0.0000 
     15 N          32.5800  -20.6700  -50.9200 N.am      2 ALA2        0.0000 
     16 O          32.8000  -19.3300  -51.5500 O.2       2 ALA2        0.0000 
     17 N          33.0200  -17.9900  -52.1800 N.am      2 ALA2        0.0000 
     18 N          34.6700  -17.0000  -53.0600 N.am      2 ALA2        0.0000 
     19 N          36.1100  -17.3500  -53.3000 N.am      2 ALA2        0.0000 
     20 N          34.8200  -17.7600  -51.0900 N.am      2 ALA2        0.0000 
     21 N          36.2600  -18.1100  -51.3300 N.am      2 ALA2        0.0000 
     22 N          40.5700  -19.1600  -52.0500 N.am      2 ALA2        0.0000 
     23 N          33.6000  -16.0700  -51.4800 N.am      2 ALA2        0.0000 
     24 N          35.0400  -16.4200  -51.7200 N.am      2 ALA2        0.0000 
     25 N          36.4800  -16.7700  -51.9600 N.am      2 ALA2        0.0000 
     26 N          37.9100  -17.1200  -52.2000 N.am      2 ALA2        0.0000 
     27 O          31.3800  -11.3500  -52.9000 O.2       2 ALA2        0.0000 
     28 N          34.9600  -18.5300  -49.1200 N.am      2 ALA2        0.0000 
     29 N          36.4000  -18.8800  -49.3600 N.am      2 ALA2        0.0000 
     30 N          33.7400  -16.8400  -49.5100 N.am      2 ALA2        0.0000 
     31 N          35.1800  -17.1900  -49.7500 N.am      2 ALA2        0.0000 
     32 N          36.6200  -17.5400  -49.9900 N.am      2 ALA2        0.0000 
     33 N          38.0600  -17.8900  -50.2300 N.am      2 ALA2        0.0000 
     34 N          39.5000  -18.2400  -50.4700 N.am      2 ALA2        0.0000 
     35 N          40.9400  -18.5900  -50.7100 N.am      2 ALA2        0.0000 
     36 N          32.5200  -15.1500  -49.9000 N.am      2 ALA2        0.0000 
     37 N          33.9600  -15.5000  -50.1400 N.am      2 ALA2        0.0000 
     38 N          31.3000  -13.4600  -50.3000 N.am      2 ALA2        0.0000 
     39 N          32.7400  -13.8100  -50.5400 N.am      2 ALA2        0.0000 
     40 N          34.1800  -14.1600  -50.7800 N.am      2 ALA2        0.0000 
     41 N          35.6200  -14.5100  -51.0200 N.am      2 ALA2        0.0000 
     42 N          37.0600  -14.8600  -51.2600 N.am      2 ALA2        0.0000 
     43 N          31.5200  -12.1200  -50.9300 N.am      2 ALA2        0.0000 
     44 N          32.9600  -12.4700  -51.1700 N.am      2 ALA2        0.0000 
     45 N          37.2800  -13.5200  -51.8900 N.am      2 ALA2        0.0000 
     46 N          31.7400  -10.7800  -51.5600 N.am      2 ALA2        0.0000 
     47 N          33.1800  -11.1300  -51.8000 N.am      2 ALA2        0.0000 
     48 O          37.5000  -12.1700  -52.5300 O.2       2 ALA2        0.0000 
     49 N          31.9600   -9.4400  -52.2000 N.am      2 ALA2        0.0000 
     50 N          33.4000   -9.7900  -52.4400 N.am      2 ALA2        0.0000 
     51 O          36.7600  -18.3100  -48.0200 O.2       2 ALA2        0.0000 
     52 N          38.2000  -18.6600  -48.2600 N.am      2 ALA2        0.0000 
     53 N          39.6400  -19.0100  -48.5000 N.am      2 ALA2        0.0000 
     54 N          31.8800  -11.5500  -49.5900 N.am      2 ALA2        0.0000 
     55 N          32.1000  -10.2100  -50.2300 N.am      2 ALA2        0.0000 
     56 N          33.5400  -10.5500  -50.4700 N.am      2 ALA2        0.0000 
     57 OD1        37.1100  -20.3800  -52.2700 O.co2     3 ASP3        0.0000 
     58 OD1        37.3300  -19.0400  -52.9100 O.co2     3 ASP3        0.0000 
     59 OD1        38.7700  -19.3800  -53.1500 O.co2     3 ASP3        0.0000 
     60 OD1        40.2100  -19.7300  -53.3900 O.co2     3 ASP3        0.0000 
     61 OD1        37.4800  -19.8000  -50.9300 O.co2     3 ASP3        0.0000 
     62 OD1        39.1300  -18.8100  -51.8100 O.co2     3 ASP3        0.0000 
     63 OD1        36.1800  -20.2200  -48.7200 O.co2     3 ASP3        0.0000 
     64 OD1        37.6200  -20.5700  -48.9600 O.co2     3 ASP3        0.0000 
     65 OD1        39.0600  -20.9200  -49.2000 O.co2     3 ASP3        0.0000 
     66 OD1        39.2800  -19.5800  -49.8400 O.co2     3 ASP3        0.0000 
     67 OD1        40.7200  -19.9300  -50.0800 O.co2     3 ASP3        0.0000 
     68 OD1        34.8900  -20.6400  -46.5100 O.co2     3 ASP3        0.0000 
     69 OD1        36.5400  -19.6500  -47.3800 O.co2     3 ASP3        0.0000 
     70 OD1        37.9800  -20.0000  -47.6300 O.co2     3 ASP3        0.0000 
     71 OD1        39.4200  -20.3500  -47.8700 O.co2     3 ASP3        0.0000 
     72 NZ         31.3600  -18.9800  -51.3100 N.4       4 LYS4        0.0000 
     73 NZ         31.7200  -18.4100  -49.9700 N.4       4 LYS4        0.0000 
     74 NZ         31.9400  -17.0700  -50.6100 N.4       4 LYS4        0.0000 
     75 NZ         33.3800  -17.4200  -50.8500 N.4       4 LYS4        0.0000 
     76 NZ         32.1600  -15.7300  -51.2400 N.4       4 LYS4        0.0000 
     77 NZ         32.3200   -8.8600  -50.8600 N.4       4 LYS4        0.0000 
     78 NZ         33.7600   -9.2100  -51.1000 N.4       4 LYS4        0.0000 
     79 NZ         35.2000   -9.5600  -51.3400 N.4       4 LYS4        0.0000 
     80 NZ         33.9800   -7.8700  -51.7400 N.4       4 LYS4        0.0000 
     81 NZ         35.4200   -8.2200  -51.9800 N.4       4 LYS4        0.0000 
     82 NZ         37.2200   -8.0000  -50.8800 N.4       4 LYS4        0.0000 
     83 CZ         33.8700  -20.2500  -53.1300 C.ar      5 PHE5        0.0000 
     84 CZ         35.3100  -20.6000  -53.3700 C.ar      5 PHE5        0.0000 
     85 CZ         34.0200  -21.0200  -51.1600 C.ar      5 PHE5        0.0000 
     86 CZ         34.2400  -19.6800  -51.7900 C.ar      5 PHE5        0.0000 
     87 CZ         35.6700  -20.0300  -52.0300 C.ar      5 PHE5        0.0000 
     88 CZ         40.4300  -18.3900  -54.0200 C.ar      5 PHE5        0.0000 
     89 CZ         36.3300  -16.0000  -53.9300 C.ar      5 PHE5        0.0000 
     90 CZ         37.9900  -15.0100  -54.8100 C.ar      5 PHE5        0.0000 
     91 CZ         35.2600  -15.0800  -52.3600 C.ar      5 PHE5        0.0000 
     92 CZ         36.6900  -15.4300  -52.6000 C.ar      5 PHE5        0.0000 
     93 CZ         35.4700  -13.7400  -52.9900 C.ar      5 PHE5        0.0000 
     94 CZ         36.9100  -14.0900  -53.2300 C.ar      5 PHE5        0.0000 
     95 CZ         37.1300  -12.7500  -53.8700 C.ar      5 PHE5        0.0000 
     96 CZ         34.6200  -11.4800  -52.0500 C.ar      5 PHE5        0.0000 
     97 CZ         36.0600  -11.8300  -52.2900 C.ar      5 PHE5        0.0000 
     98 CZ         34.8400  -10.1300  -52.6800 C.ar      5 PHE5        0.0000 
     99 CZ         36.2800  -10.4800  -52.9200 C.ar      5 PHE5        0.0000 
    100 CZ         35.0600   -8.7900  -53.3100 C.ar      5 PHE5        0.0000 
    101 CZ         36.8600   -8.5700  -52.2200 C.ar      5 PHE5        0.0000 
    102 CZ         35.6400   -6.8800  -52.6100 C.ar      5 PHE5        0.0000 
    103 CZ         37.4400   -6.6500  -51.5100 C.ar      5 PHE5        0.0000 
    104 CA         36.9700  -19.6100  -54.2400 C.3       6 GLY6        0.0000 
    105 CA         35.4600  -21.3700  -51.4000 C.3       6 GLY6        0.0000 
    106 CA         34.3800  -20.4500  -49.8200 C.3       6 GLY6        0.0000 
    107 CA         35.8200  -20.8000  -50.0600 C.3       6 GLY6        0.0000 
    108 CA         32.3800  -14.3800  -51.8700 C.3       6 GLY6        0.0000 
    109 CA         33.8200  -14.7300  -52.1200 C.3       6 GLY6        0.0000 
    110 CA         31.1600  -12.6900  -52.2700 C.3       6 GLY6        0.0000 
    111 CA         34.4000  -12.8200  -51.4100 C.3       6 GLY6        0.0000 
    112 CA         35.8400  -13.1700  -51.6500 C.3       6 GLY6        0.0000 
    113 CA         35.1100  -19.3000  -47.1400 C.3       6 GLY6        0.0000 
    114 CA         35.3200  -17.9600  -47.7800 C.3       6 GLY6        0.0000 
    115 CA         34.7600  -12.2400  -50.0700 C.3       6 GLY6        0.0000 
    116 CA         34.9800  -10.9000  -50.7100 C.3       6 GLY6        0.0000 
    117 CA         36.6400   -9.9100  -51.5800 C.3       6 GLY6        0.0000 
    118 CA         35.4700  -18.7300  -45.8100 C.3       6 GLY6        0.0000 
    119 DU         34.4500  -18.3400  -52.4300 H         7 CUB7        0.0000 
    120 DU         35.8900  -18.6900  -52.6700 H         7 CUB7        0.0000 
    121 DU         37.5500  -17.6900  -53.5400 H         7 CUB7        0.0000 
    122 DU         33.1600  -18.7600  -50.2100 H         7 CUB7        0.0000 
    123 DU         34.6000  -19.1100  -50.4500 H         7 CUB7        0.0000 
    124 DU         36.0400  -19.4500  -50.6900 H         7 CUB7        0.0000 
    125 DU         37.7000  -18.4600  -51.5700 H         7 CUB7        0.0000 
    126 DU         34.7400  -19.8700  -48.4800 H         7 CUB7        0.0000 
    127 DU         33.5200  -18.1800  -48.8700 H         7 CUB7        0.0000 
    128 DU         37.8400  -19.2300  -49.6000 H         7 CUB7        0.0000 
@<TRIPOS>BOND
@<TRIPOS>SUBSTRUCTURE
     1 SER1        1 GROUP   
     2 ALA2        7 GROUP   
     3 ASP3       57 GROUP   
     4 LYS4       72 GROUP   
     5 PHE5       83 GROUP   
     6 GLY6      104 GROUP   
     7 CUB7      119 GROUP   
@<TRIPOS>SET

