#    Name: 6jat_1_SFG_CAVITY_N1_6
#    Modification time : Fri May 22 19:24:58 2020

@<TRIPOS>MOLECULE
6jat_1_SFG_CAVITY_N1_6
  183     0     7     0     0
SMALL
NO_CHARGES


@<TRIPOS>ATOM
      1 OG         36.7500  -20.9500  -53.6100 O.3       1 SER1        0.0000 
      2 OG         38.9900  -18.0400  -53.7800 O.3       1 SER1        0.0000 
      3 OG         37.7700  -16.3500  -54.1800 O.3       1 SER1        0.0000 
      4 OG         39.3500  -17.4700  -52.4400 O.3       1 SER1        0.0000 
      5 OG         40.7900  -17.8200  -52.6900 O.3       1 SER1        0.0000 
      6 OG         38.1300  -15.7800  -52.8400 O.3       1 SER1        0.0000 
      7 OG         39.4600   -5.0900  -51.0500 O.3       1 SER1        0.0000 
      8 O          32.4300  -19.9000  -52.8900 O.2       2 ALA2        0.0000 
      9 N          32.6500  -18.5600  -53.5200 N.am      2 ALA2        0.0000 
     10 N          34.0900  -18.9100  -53.7600 N.am      2 ALA2        0.0000 
     11 N          35.5300  -19.2600  -54.0000 N.am      2 ALA2        0.0000 
     12 N          38.4100  -19.9600  -54.4900 N.am      2 ALA2        0.0000 
     13 N          37.1900  -18.2700  -54.8800 N.am      2 ALA2        0.0000 
     14 N          38.6300  -18.6200  -55.1200 N.am      2 ALA2        0.0000 
     15 N          37.4100  -16.9300  -55.5100 N.am      2 ALA2        0.0000 
     16 N          32.5800  -20.6700  -50.9200 N.am      2 ALA2        0.0000 
     17 O          32.8000  -19.3300  -51.5500 O.2       2 ALA2        0.0000 
     18 N          33.0200  -17.9900  -52.1800 N.am      2 ALA2        0.0000 
     19 N          34.6700  -17.0000  -53.0600 N.am      2 ALA2        0.0000 
     20 N          36.1100  -17.3500  -53.3000 N.am      2 ALA2        0.0000 
     21 N          32.7200  -21.4400  -48.9400 N.am      2 ALA2        0.0000 
     22 N          32.9400  -20.1000  -49.5800 N.am      2 ALA2        0.0000 
     23 N          34.8200  -17.7600  -51.0900 N.am      2 ALA2        0.0000 
     24 N          36.2600  -18.1100  -51.3300 N.am      2 ALA2        0.0000 
     25 N          40.5700  -19.1600  -52.0500 N.am      2 ALA2        0.0000 
     26 N          33.6000  -16.0700  -51.4800 N.am      2 ALA2        0.0000 
     27 N          35.0400  -16.4200  -51.7200 N.am      2 ALA2        0.0000 
     28 N          36.4800  -16.7700  -51.9600 N.am      2 ALA2        0.0000 
     29 N          37.9100  -17.1200  -52.2000 N.am      2 ALA2        0.0000 
     30 O          29.9400  -11.0000  -52.6600 O.2       2 ALA2        0.0000 
     31 O          31.3800  -11.3500  -52.9000 O.2       2 ALA2        0.0000 
     32 N          33.0800  -20.8700  -47.6100 N.am      2 ALA2        0.0000 
     33 N          34.9600  -18.5300  -49.1200 N.am      2 ALA2        0.0000 
     34 N          36.4000  -18.8800  -49.3600 N.am      2 ALA2        0.0000 
     35 N          33.7400  -16.8400  -49.5100 N.am      2 ALA2        0.0000 
     36 N          35.1800  -17.1900  -49.7500 N.am      2 ALA2        0.0000 
     37 N          36.6200  -17.5400  -49.9900 N.am      2 ALA2        0.0000 
     38 N          38.0600  -17.8900  -50.2300 N.am      2 ALA2        0.0000 
     39 N          39.5000  -18.2400  -50.4700 N.am      2 ALA2        0.0000 
     40 N          40.9400  -18.5900  -50.7100 N.am      2 ALA2        0.0000 
     41 N          32.5200  -15.1500  -49.9000 N.am      2 ALA2        0.0000 
     42 N          33.9600  -15.5000  -50.1400 N.am      2 ALA2        0.0000 
     43 N          31.3000  -13.4600  -50.3000 N.am      2 ALA2        0.0000 
     44 N          32.7400  -13.8100  -50.5400 N.am      2 ALA2        0.0000 
     45 N          34.1800  -14.1600  -50.7800 N.am      2 ALA2        0.0000 
     46 N          35.6200  -14.5100  -51.0200 N.am      2 ALA2        0.0000 
     47 N          37.0600  -14.8600  -51.2600 N.am      2 ALA2        0.0000 
     48 N          31.5200  -12.1200  -50.9300 N.am      2 ALA2        0.0000 
     49 N          32.9600  -12.4700  -51.1700 N.am      2 ALA2        0.0000 
     50 N          37.2800  -13.5200  -51.8900 N.am      2 ALA2        0.0000 
     51 N          31.7400  -10.7800  -51.5600 N.am      2 ALA2        0.0000 
     52 N          33.1800  -11.1300  -51.8000 N.am      2 ALA2        0.0000 
     53 O          37.5000  -12.1700  -52.5300 O.2       2 ALA2        0.0000 
     54 N          30.5200   -9.0900  -51.9600 N.am      2 ALA2        0.0000 
     55 N          31.9600   -9.4400  -52.2000 N.am      2 ALA2        0.0000 
     56 N          33.4000   -9.7900  -52.4400 N.am      2 ALA2        0.0000 
     57 O          36.7600  -18.3100  -48.0200 O.2       2 ALA2        0.0000 
     58 N          38.2000  -18.6600  -48.2600 N.am      2 ALA2        0.0000 
     59 N          39.6400  -19.0100  -48.5000 N.am      2 ALA2        0.0000 
     60 N          31.2300  -15.5700  -47.6900 N.am      2 ALA2        0.0000 
     61 N          32.6700  -15.9200  -47.9300 N.am      2 ALA2        0.0000 
     62 N          34.1000  -16.2700  -48.1700 N.am      2 ALA2        0.0000 
     63 N          31.4500  -14.2300  -48.3200 N.am      2 ALA2        0.0000 
     64 N          31.8800  -11.5500  -49.5900 N.am      2 ALA2        0.0000 
     65 N          32.1000  -10.2100  -50.2300 N.am      2 ALA2        0.0000 
     66 N          33.5400  -10.5500  -50.4700 N.am      2 ALA2        0.0000 
     67 O          34.4200   -5.1900  -53.0000 O.2       2 ALA2        0.0000 
     68 OD1        37.1100  -20.3800  -52.2700 O.co2     3 ASP3        0.0000 
     69 OD1        37.3300  -19.0400  -52.9100 O.co2     3 ASP3        0.0000 
     70 OD1        38.7700  -19.3800  -53.1500 O.co2     3 ASP3        0.0000 
     71 OD1        40.2100  -19.7300  -53.3900 O.co2     3 ASP3        0.0000 
     72 OD1        37.4800  -19.8000  -50.9300 O.co2     3 ASP3        0.0000 
     73 OD1        39.1300  -18.8100  -51.8100 O.co2     3 ASP3        0.0000 
     74 OD1        36.1800  -20.2200  -48.7200 O.co2     3 ASP3        0.0000 
     75 OD1        37.6200  -20.5700  -48.9600 O.co2     3 ASP3        0.0000 
     76 OD1        39.0600  -20.9200  -49.2000 O.co2     3 ASP3        0.0000 
     77 OD1        39.2800  -19.5800  -49.8400 O.co2     3 ASP3        0.0000 
     78 OD1        40.7200  -19.9300  -50.0800 O.co2     3 ASP3        0.0000 
     79 OD1        34.6700  -21.9800  -45.8700 O.co2     3 ASP3        0.0000 
     80 OD1        34.8900  -20.6400  -46.5100 O.co2     3 ASP3        0.0000 
     81 OD1        36.5400  -19.6500  -47.3800 O.co2     3 ASP3        0.0000 
     82 OD1        37.9800  -20.0000  -47.6300 O.co2     3 ASP3        0.0000 
     83 OD1        39.4200  -20.3500  -47.8700 O.co2     3 ASP3        0.0000 
     84 OD1        30.0100  -13.8800  -48.0800 O.co2     3 ASP3        0.0000 
     85 OD1        30.4500  -11.2000  -49.3500 O.co2     3 ASP3        0.0000 
     86 OD1        30.6600   -9.8600  -49.9900 O.co2     3 ASP3        0.0000 
     87 OD1        31.0300   -9.2800  -48.6500 O.co2     3 ASP3        0.0000 
     88 NZ         31.3600  -18.9800  -51.3100 N.4       4 LYS4        0.0000 
     89 NZ         30.0600  -19.4000  -49.1000 N.4       4 LYS4        0.0000 
     90 NZ         31.5000  -19.7500  -49.3400 N.4       4 LYS4        0.0000 
     91 NZ         31.7200  -18.4100  -49.9700 N.4       4 LYS4        0.0000 
     92 NZ         31.9400  -17.0700  -50.6100 N.4       4 LYS4        0.0000 
     93 NZ         33.3800  -17.4200  -50.8500 N.4       4 LYS4        0.0000 
     94 NZ         32.1600  -15.7300  -51.2400 N.4       4 LYS4        0.0000 
     95 NZ         32.0800  -17.8400  -48.6300 N.4       4 LYS4        0.0000 
     96 NZ         30.8600  -16.1400  -49.0300 N.4       4 LYS4        0.0000 
     97 NZ         32.3000  -16.4900  -49.2700 N.4       4 LYS4        0.0000 
     98 NZ         31.0800  -14.8000  -49.6600 N.4       4 LYS4        0.0000 
     99 NZ         30.7400   -7.7500  -52.5900 N.4       4 LYS4        0.0000 
    100 NZ         30.8800   -8.5200  -50.6200 N.4       4 LYS4        0.0000 
    101 NZ         32.3200   -8.8600  -50.8600 N.4       4 LYS4        0.0000 
    102 NZ         33.7600   -9.2100  -51.1000 N.4       4 LYS4        0.0000 
    103 NZ         35.2000   -9.5600  -51.3400 N.4       4 LYS4        0.0000 
    104 NZ         32.5400   -7.5200  -51.4900 N.4       4 LYS4        0.0000 
    105 NZ         33.9800   -7.8700  -51.7400 N.4       4 LYS4        0.0000 
    106 NZ         35.4200   -8.2200  -51.9800 N.4       4 LYS4        0.0000 
    107 NZ         34.2000   -6.5300  -52.3700 N.4       4 LYS4        0.0000 
    108 NZ         37.2200   -8.0000  -50.8800 N.4       4 LYS4        0.0000 
    109 NZ         33.1200   -5.6100  -50.7900 N.4       4 LYS4        0.0000 
    110 NZ         34.5600   -5.9600  -51.0300 N.4       4 LYS4        0.0000 
    111 NZ         36.0000   -6.3100  -51.2700 N.4       4 LYS4        0.0000 
    112 NZ         36.3600   -5.7300  -49.9400 N.4       4 LYS4        0.0000 
    113 NZ         37.8000   -6.0800  -50.1800 N.4       4 LYS4        0.0000 
    114 NZ         38.1700   -5.5100  -48.8400 N.4       4 LYS4        0.0000 
    115 CZ         33.8700  -20.2500  -53.1300 C.ar      5 PHE5        0.0000 
    116 CZ         35.3100  -20.6000  -53.3700 C.ar      5 PHE5        0.0000 
    117 CZ         34.0200  -21.0200  -51.1600 C.ar      5 PHE5        0.0000 
    118 CZ         34.2400  -19.6800  -51.7900 C.ar      5 PHE5        0.0000 
    119 CZ         35.6700  -20.0300  -52.0300 C.ar      5 PHE5        0.0000 
    120 CZ         40.4300  -18.3900  -54.0200 C.ar      5 PHE5        0.0000 
    121 CZ         36.3300  -16.0000  -53.9300 C.ar      5 PHE5        0.0000 
    122 CZ         37.9900  -15.0100  -54.8100 C.ar      5 PHE5        0.0000 
    123 CZ         35.2600  -15.0800  -52.3600 C.ar      5 PHE5        0.0000 
    124 CZ         36.6900  -15.4300  -52.6000 C.ar      5 PHE5        0.0000 
    125 CZ         35.4700  -13.7400  -52.9900 C.ar      5 PHE5        0.0000 
    126 CZ         36.9100  -14.0900  -53.2300 C.ar      5 PHE5        0.0000 
    127 CZ         37.1300  -12.7500  -53.8700 C.ar      5 PHE5        0.0000 
    128 CZ         34.6200  -11.4800  -52.0500 C.ar      5 PHE5        0.0000 
    129 CZ         36.0600  -11.8300  -52.2900 C.ar      5 PHE5        0.0000 
    130 CZ         34.8400  -10.1300  -52.6800 C.ar      5 PHE5        0.0000 
    131 CZ         36.2800  -10.4800  -52.9200 C.ar      5 PHE5        0.0000 
    132 CZ         35.0600   -8.7900  -53.3100 C.ar      5 PHE5        0.0000 
    133 CZ         36.8600   -8.5700  -52.2200 C.ar      5 PHE5        0.0000 
    134 CZ         35.6400   -6.8800  -52.6100 C.ar      5 PHE5        0.0000 
    135 CZ         35.8600   -5.5400  -53.2500 C.ar      5 PHE5        0.0000 
    136 CZ         35.2500  -20.0700  -45.1700 C.ar      5 PHE5        0.0000 
    137 CZ         37.4400   -6.6500  -51.5100 C.ar      5 PHE5        0.0000 
    138 CZ         36.2200   -4.9600  -51.9100 C.ar      5 PHE5        0.0000 
    139 CZ         37.6600   -5.3100  -52.1500 C.ar      5 PHE5        0.0000 
    140 CZ         39.2400   -6.4300  -50.4200 C.ar      5 PHE5        0.0000 
    141 CA         36.9700  -19.6100  -54.2400 C.3       6 GLY6        0.0000 
    142 CA         31.1400  -20.3200  -50.6700 C.3       6 GLY6        0.0000 
    143 CA         35.4600  -21.3700  -51.4000 C.3       6 GLY6        0.0000 
    144 CA         34.1600  -21.7900  -49.1800 C.3       6 GLY6        0.0000 
    145 CA         34.3800  -20.4500  -49.8200 C.3       6 GLY6        0.0000 
    146 CA         35.8200  -20.8000  -50.0600 C.3       6 GLY6        0.0000 
    147 CA         30.9400  -14.0400  -51.6300 C.3       6 GLY6        0.0000 
    148 CA         32.3800  -14.3800  -51.8700 C.3       6 GLY6        0.0000 
    149 CA         33.8200  -14.7300  -52.1200 C.3       6 GLY6        0.0000 
    150 CA         29.7200  -12.3400  -52.0300 C.3       6 GLY6        0.0000 
    151 CA         31.1600  -12.6900  -52.2700 C.3       6 GLY6        0.0000 
    152 CA         34.5200  -21.2200  -47.8500 C.3       6 GLY6        0.0000 
    153 CA         29.8600  -13.1100  -50.0500 C.3       6 GLY6        0.0000 
    154 CA         30.0800  -11.7700  -50.6900 C.3       6 GLY6        0.0000 
    155 CA         34.4000  -12.8200  -51.4100 C.3       6 GLY6        0.0000 
    156 CA         35.8400  -13.1700  -51.6500 C.3       6 GLY6        0.0000 
    157 CA         33.6700  -18.9500  -46.9000 C.3       6 GLY6        0.0000 
    158 CA         35.1100  -19.3000  -47.1400 C.3       6 GLY6        0.0000 
    159 CA         33.8900  -17.6100  -47.5400 C.3       6 GLY6        0.0000 
    160 CA         35.3200  -17.9600  -47.7800 C.3       6 GLY6        0.0000 
    161 CA         34.7600  -12.2400  -50.0700 C.3       6 GLY6        0.0000 
    162 CA         34.9800  -10.9000  -50.7100 C.3       6 GLY6        0.0000 
    163 CA         36.6400   -9.9100  -51.5800 C.3       6 GLY6        0.0000 
    164 CA         34.0300  -18.3800  -45.5600 C.3       6 GLY6        0.0000 
    165 CA         35.4700  -18.7300  -45.8100 C.3       6 GLY6        0.0000 
    166 CA         31.2500   -7.9400  -49.2800 C.3       6 GLY6        0.0000 
    167 DU         34.4500  -18.3400  -52.4300 H         7 CUB7        0.0000 
    168 DU         35.8900  -18.6900  -52.6700 H         7 CUB7        0.0000 
    169 DU         37.5500  -17.6900  -53.5400 H         7 CUB7        0.0000 
    170 DU         33.1600  -18.7600  -50.2100 H         7 CUB7        0.0000 
    171 DU         34.6000  -19.1100  -50.4500 H         7 CUB7        0.0000 
    172 DU         36.0400  -19.4500  -50.6900 H         7 CUB7        0.0000 
    173 DU         37.7000  -18.4600  -51.5700 H         7 CUB7        0.0000 
    174 DU         31.8600  -19.1800  -48.0000 H         7 CUB7        0.0000 
    175 DU         33.3000  -19.5300  -48.2400 H         7 CUB7        0.0000 
    176 DU         34.7400  -19.8700  -48.4800 H         7 CUB7        0.0000 
    177 DU         33.5200  -18.1800  -48.8700 H         7 CUB7        0.0000 
    178 DU         37.8400  -19.2300  -49.6000 H         7 CUB7        0.0000 
    179 DU         30.3000  -10.4300  -51.3200 H         7 CUB7        0.0000 
    180 DU         33.4500  -20.2900  -46.2700 H         7 CUB7        0.0000 
    181 DU         32.4500  -17.2600  -47.3000 H         7 CUB7        0.0000 
    182 DU         33.8100  -19.7200  -44.9300 H         7 CUB7        0.0000 
    183 DU         38.0200   -4.7400  -50.8100 H         7 CUB7        0.0000 
@<TRIPOS>BOND
@<TRIPOS>SUBSTRUCTURE
     1 SER1        1 GROUP   
     2 ALA2        8 GROUP   
     3 ASP3       68 GROUP   
     4 LYS4       88 GROUP   
     5 PHE5      115 GROUP   
     6 GLY6      141 GROUP   
     7 CUB7      167 GROUP   
@<TRIPOS>SET

