#    Name: 6jat_1_SFG
#    Modification time : Fri May 22 19:24:56 2020

@<TRIPOS>MOLECULE
6jat_1_SFG
   27    29     1     0     0
SMALL
NO_CHARGES


@<TRIPOS>ATOM
      1 N          38.4650  -17.7130  -49.4800 N.4       1 SFG501      0.0000 
      2 CA         38.9750  -18.9390  -50.0530 C.3       1 SFG501      0.0000 
      3 C          38.8230  -20.0580  -49.0730 C.2       1 SFG501      0.0000 
      4 O          38.4580  -19.7900  -47.9060 O.co2     1 SFG501      0.0000 
      5 OXT        39.0520  -21.2200  -49.4690 O.co2     1 SFG501      0.0000 
      6 CB         40.4350  -18.7650  -50.4670 C.3       1 SFG501      0.0000 
      7 CG         40.5330  -18.1160  -51.8470 C.3       1 SFG501      0.0000 
      8 CD         39.7940  -18.9560  -52.8840 C.3       1 SFG501      0.0000 
      9 NE         40.7640  -19.6420  -53.7020 N.4       1 SFG501      0.0000 
     10 C5'        38.8970  -18.0900  -53.7610 C.3       1 SFG501      0.0000 
     11 C4'        37.5270  -17.9500  -53.1090 C.3       1 SFG501      0.0000 
     12 O4'        37.5660  -16.9980  -52.0340 O.3       1 SFG501      0.0000 
     13 C3'        36.4500  -17.4580  -54.0510 C.3       1 SFG501      0.0000 
     14 O3'        35.7770  -18.5690  -54.6460 O.3       1 SFG501      0.0000 
     15 C2'        35.5130  -16.7340  -53.1170 C.3       1 SFG501      0.0000 
     16 O2'        34.6760  -17.7270  -52.5270 O.3       1 SFG501      0.0000 
     17 C1'        36.3940  -16.1860  -52.0120 C.3       1 SFG501      0.0000 
     18 N9         36.8580  -14.7930  -52.2500 N.pl3     1 SFG501      0.0000 
     19 C8         38.0680  -14.4700  -52.7450 C.2       1 SFG501      0.0000 
     20 N7         38.2330  -13.1270  -52.8380 N.2       1 SFG501      0.0000 
     21 C5         37.1050  -12.5590  -52.3850 C.ar      1 SFG501      0.0000 
     22 C6         36.6250  -11.1710  -52.2080 C.ar      1 SFG501      0.0000 
     23 N6         37.4200  -10.1280  -52.5450 N.pl3     1 SFG501      0.0000 
     24 N1         35.3800  -10.9900  -51.7080 N.ar      1 SFG501      0.0000 
     25 C2         34.6140  -12.0450  -51.3740 C.ar      1 SFG501      0.0000 
     26 N3         34.9810  -13.3360  -51.5010 N.ar      1 SFG501      0.0000 
     27 C4         36.2000  -13.6560  -51.9930 C.ar      1 SFG501      0.0000 
@<TRIPOS>BOND
     1    1    2 1    
     2    2    3 1    
     3    2    6 1    
     4    3    4 ar   
     5    3    5 ar   
     6    6    7 1    
     7    7    8 1    
     8    8    9 1    
     9    8   10 1    
    10   10   11 1    
    11   11   12 1    
    12   11   13 1    
    13   12   17 1    
    14   13   14 1    
    15   13   15 1    
    16   15   16 1    
    17   15   17 1    
    18   17   18 1    
    19   18   19 1    
    20   18   27 1    
    21   19   20 2    
    22   20   21 1    
    23   21   22 ar   
    24   21   27 ar   
    25   22   23 1    
    26   22   24 ar   
    27   24   25 ar   
    28   25   26 ar   
    29   26   27 ar   
@<TRIPOS>SUBSTRUCTURE
     1 SFG501      1 GROUP   
@<TRIPOS>SET

