#    Name: 6jat_2_SFG_CAVITY_N1_6
#    Modification time : Fri May 22 19:25:18 2020

@<TRIPOS>MOLECULE
6jat_2_SFG_CAVITY_N1_6
  110     0     7     0     0
SMALL
NO_CHARGES


@<TRIPOS>ATOM
      1 OG         21.9400  -19.8500  -31.5600 O.3       1 SER1        0.0000 
      2 OG         19.5000  -16.4700  -32.3500 O.3       1 SER1        0.0000 
      3 OG         19.8700  -15.9000  -31.0100 O.3       1 SER1        0.0000 
      4 N          19.8500  -18.5400  -36.6000 N.am      2 ALA2        0.0000 
      5 O          21.5100  -17.5400  -37.4800 O.2       2 ALA2        0.0000 
      6 N          18.7800  -17.6100  -35.0300 N.am      2 ALA2        0.0000 
      7 N          20.2200  -17.9600  -35.2700 N.am      2 ALA2        0.0000 
      8 N          25.9700  -19.3600  -36.2300 N.am      2 ALA2        0.0000 
      9 N          27.4100  -19.7100  -36.4700 N.am      2 ALA2        0.0000 
     10 N          20.4400  -16.6200  -35.9000 N.am      2 ALA2        0.0000 
     11 N          21.8700  -16.9700  -36.1400 N.am      2 ALA2        0.0000 
     12 N          23.3100  -17.3200  -36.3800 N.am      2 ALA2        0.0000 
     13 N          24.7500  -17.6700  -36.6200 N.am      2 ALA2        0.0000 
     14 N          24.9700  -16.3300  -37.2600 N.am      2 ALA2        0.0000 
     15 O          26.6300  -15.3300  -38.1300 O.2       2 ALA2        0.0000 
     16 N          26.8500  -13.9900  -38.7700 N.am      2 ALA2        0.0000 
     17 N          26.1200  -20.1300  -34.2600 N.am      2 ALA2        0.0000 
     18 N          19.1400  -17.0400  -33.6900 N.am      2 ALA2        0.0000 
     19 N          20.5800  -17.3900  -33.9300 N.am      2 ALA2        0.0000 
     20 N          20.8000  -16.0500  -34.5600 N.am      2 ALA2        0.0000 
     21 N          22.2400  -16.4000  -34.8000 N.am      2 ALA2        0.0000 
     22 N          23.6800  -16.7500  -35.0500 N.am      2 ALA2        0.0000 
     23 N          25.3300  -15.7500  -35.9200 N.am      2 ALA2        0.0000 
     24 N          25.5500  -14.4100  -36.5500 N.am      2 ALA2        0.0000 
     25 O          26.7000  -18.2100  -33.5600 O.2       2 ALA2        0.0000 
     26 N          21.1600  -15.4800  -33.2300 N.am      2 ALA2        0.0000 
     27 N          25.4800  -16.5200  -33.9500 N.am      2 ALA2        0.0000 
     28 N          21.3800  -14.1300  -33.8600 N.am      2 ALA2        0.0000 
     29 N          22.8200  -14.4800  -34.1000 N.am      2 ALA2        0.0000 
     30 N          24.2600  -14.8300  -34.3400 N.am      2 ALA2        0.0000 
     31 N          25.7000  -15.1800  -34.5800 N.am      2 ALA2        0.0000 
     32 N          21.0900  -17.5900  -30.6200 N.am      2 ALA2        0.0000 
     33 N          21.3100  -16.2400  -31.2500 N.am      2 ALA2        0.0000 
     34 N          22.7400  -16.5900  -31.4900 N.am      2 ALA2        0.0000 
     35 N          24.1800  -16.9400  -31.7400 N.am      2 ALA2        0.0000 
     36 N          25.6200  -17.2900  -31.9800 N.am      2 ALA2        0.0000 
     37 N          24.4000  -15.6000  -32.3700 N.am      2 ALA2        0.0000 
     38 N          21.6700  -15.6700  -29.9200 N.am      2 ALA2        0.0000 
     39 OD1        24.6600  -22.4200  -39.6100 O.co2     3 ASP3        0.0000 
     40 OD1        23.4400  -20.7300  -40.0000 O.co2     3 ASP3        0.0000 
     41 OD1        24.8800  -21.0800  -40.2400 O.co2     3 ASP3        0.0000 
     42 OD1        23.8100  -20.1600  -38.6700 O.co2     3 ASP3        0.0000 
     43 OD1        21.0700  -20.2300  -36.2100 O.co2     3 ASP3        0.0000 
     44 OD1        21.2900  -18.8900  -36.8500 O.co2     3 ASP3        0.0000 
     45 OD1        22.7300  -19.2300  -37.0900 O.co2     3 ASP3        0.0000 
     46 OD1        24.1700  -19.5800  -37.3300 O.co2     3 ASP3        0.0000 
     47 OD1        18.5600  -18.9600  -34.3900 O.co2     3 ASP3        0.0000 
     48 OD1        21.4400  -19.6500  -34.8700 O.co2     3 ASP3        0.0000 
     49 OD1        18.9200  -18.3800  -33.0500 O.co2     3 ASP3        0.0000 
     50 OD1        20.3600  -18.7300  -33.2900 O.co2     3 ASP3        0.0000 
     51 OD1        21.8000  -19.0800  -33.5400 O.co2     3 ASP3        0.0000 
     52 OD1        20.5100  -19.5000  -31.3200 O.co2     3 ASP3        0.0000 
     53 OD1        20.7200  -18.1600  -31.9600 O.co2     3 ASP3        0.0000 
     54 NZ         27.6300  -18.3700  -37.1100 N.4       4 LYS4        0.0000 
     55 NZ         27.8500  -17.0200  -37.7400 N.4       4 LYS4        0.0000 
     56 NZ         26.5500  -17.4400  -35.5300 N.4       4 LYS4        0.0000 
     57 NZ         26.7700  -16.1000  -36.1600 N.4       4 LYS4        0.0000 
     58 NZ         26.9900  -14.7600  -36.8000 N.4       4 LYS4        0.0000 
     59 NZ         28.4300  -15.1100  -37.0400 N.4       4 LYS4        0.0000 
     60 NZ         26.9200  -16.8700  -34.1900 N.4       4 LYS4        0.0000 
     61 NZ         27.1400  -15.5300  -34.8200 N.4       4 LYS4        0.0000 
     62 CZ         23.6600  -19.3900  -40.6400 C.ar      5 PHE5        0.0000 
     63 CZ         23.2400  -19.4300  -33.7800 C.ar      5 PHE5        0.0000 
     64 CZ         24.6800  -19.7800  -34.0200 C.ar      5 PHE5        0.0000 
     65 CZ         19.2900  -17.8100  -31.7200 C.ar      5 PHE5        0.0000 
     66 CZ         23.6000  -18.8600  -32.4400 C.ar      5 PHE5        0.0000 
     67 CZ         25.0400  -19.2100  -32.6800 C.ar      5 PHE5        0.0000 
     68 CZ         21.5300  -14.9000  -31.8900 C.ar      5 PHE5        0.0000 
     69 CZ         22.9600  -15.2500  -32.1300 C.ar      5 PHE5        0.0000 
     70 CZ         21.7400  -13.5600  -32.5200 C.ar      5 PHE5        0.0000 
     71 CZ         23.1800  -13.9100  -32.7600 C.ar      5 PHE5        0.0000 
     72 CZ         24.6200  -14.2600  -33.0000 C.ar      5 PHE5        0.0000 
     73 CA         24.4500  -23.7600  -38.9800 C.3       6 GLY6        0.0000 
     74 CA         25.0300  -21.8500  -38.2700 C.3       6 GLY6        0.0000 
     75 CA         24.0300  -18.8200  -39.3000 C.3       6 GLY6        0.0000 
     76 CA         25.6800  -17.8200  -40.1700 C.3       6 GLY6        0.0000 
     77 CA         22.5100  -20.5800  -36.4500 C.3       6 GLY6        0.0000 
     78 CA         23.9500  -20.9300  -36.6900 C.3       6 GLY6        0.0000 
     79 CA         25.3900  -21.2700  -36.9300 C.3       6 GLY6        0.0000 
     80 CA         22.9500  -17.8900  -37.7200 C.3       6 GLY6        0.0000 
     81 CA         24.3900  -18.2400  -37.9600 C.3       6 GLY6        0.0000 
     82 CA         26.0500  -17.2500  -38.8400 C.3       6 GLY6        0.0000 
     83 CA         22.8800  -20.0000  -35.1100 C.3       6 GLY6        0.0000 
     84 CA         24.3100  -20.3500  -35.3600 C.3       6 GLY6        0.0000 
     85 CA         25.1900  -14.9900  -37.8900 C.3       6 GLY6        0.0000 
     86 CA         26.3400  -18.7900  -34.8900 C.3       6 GLY6        0.0000 
     87 CA         27.7700  -19.1300  -35.1300 C.3       6 GLY6        0.0000 
     88 CA         22.1600  -18.5100  -32.2000 C.3       6 GLY6        0.0000 
     89 CA         22.5300  -17.9300  -30.8600 C.3       6 GLY6        0.0000 
     90 CA         23.9600  -18.2800  -31.1000 C.3       6 GLY6        0.0000 
     91 DU         25.1000  -19.7400  -40.8800 H         7 CUB7        0.0000 
     92 DU         25.2500  -20.5100  -38.9100 H         7 CUB7        0.0000 
     93 DU         25.4700  -19.1600  -39.5400 H         7 CUB7        0.0000 
     94 DU         25.6100  -19.9300  -37.5700 H         7 CUB7        0.0000 
     95 DU         25.8300  -18.5900  -38.2000 H         7 CUB7        0.0000 
     96 DU         21.6600  -18.3100  -35.5100 H         7 CUB7        0.0000 
     97 DU         23.0900  -18.6600  -35.7500 H         7 CUB7        0.0000 
     98 DU         24.5300  -19.0100  -35.9900 H         7 CUB7        0.0000 
     99 DU         26.1900  -18.0200  -36.8600 H         7 CUB7        0.0000 
    100 DU         26.4100  -16.6800  -37.5000 H         7 CUB7        0.0000 
    101 DU         22.0200  -17.7400  -34.1700 H         7 CUB7        0.0000 
    102 DU         23.4600  -18.0900  -34.4100 H         7 CUB7        0.0000 
    103 DU         24.9000  -18.4400  -34.6500 H         7 CUB7        0.0000 
    104 DU         25.1200  -17.1000  -35.2900 H         7 CUB7        0.0000 
    105 DU         20.9400  -16.8200  -32.5900 H         7 CUB7        0.0000 
    106 DU         22.3800  -17.1700  -32.8300 H         7 CUB7        0.0000 
    107 DU         23.8200  -17.5100  -33.0700 H         7 CUB7        0.0000 
    108 DU         25.2600  -17.8600  -33.3100 H         7 CUB7        0.0000 
    109 DU         22.6000  -15.8200  -33.4700 H         7 CUB7        0.0000 
    110 DU         24.0400  -16.1700  -33.7100 H         7 CUB7        0.0000 
@<TRIPOS>BOND
@<TRIPOS>SUBSTRUCTURE
     1 SER1        1 GROUP   
     2 ALA2        4 GROUP   
     3 ASP3       39 GROUP   
     4 LYS4       54 GROUP   
     5 PHE5       62 GROUP   
     6 GLY6       73 GROUP   
     7 CUB7       91 GROUP   
@<TRIPOS>SET

