#    Name: 6oo5_4_6EU
#    Modification time : Fri May 22 19:44:49 2020

@<TRIPOS>MOLECULE
6oo5_4_6EU
   46    52     1     0     0
SMALL
NO_CHARGES


@<TRIPOS>ATOM
      1 CBT       122.6730  120.0240  149.7850           1 6EU1001     0.0000 
      2 OAH       123.6050  119.0130  150.0650           1 6EU1001     0.0000 
      3 CBQ       123.8200  118.8470  151.4370           1 6EU1001     0.0000 
      4 CBO       124.6350  119.7570  152.1330           1 6EU1001     0.0000 
      5 CBS       123.2170  117.7790  152.1120           1 6EU1001     0.0000 
      6 OAI       122.4070  116.8820  151.4020           1 6EU1001     0.0000 
      7 CBR       123.4210  117.6190  153.4580           1 6EU1001     0.0000 
      8 CBP       124.2420  118.5220  154.1580           1 6EU1001     0.0000 
      9 CBN       124.8460  119.5970  153.4720           1 6EU1001     0.0000 
     10 CBM       125.7520  120.6140  154.2340           1 6EU1001     0.0000 
     11 CBK       126.9460  119.9580  154.9390           1 6EU1001     0.0000 
     12 OAG       128.0350  120.0200  154.4720           1 6EU1001     0.0000 
     13 OAF       126.7400  119.2640  156.1840           1 6EU1001     0.0000 
     14 CBC       127.0230  120.0460  157.3310           1 6EU1001     0.0000 
     15 CAX       127.7250  119.0620  158.3170           1 6EU1001     0.0000 
     16 CAS       129.1620  118.5980  157.8190           1 6EU1001     0.0000 
     17 CAK       129.3150  116.9570  157.5430           1 6EU1001     0.0000 
     18 CAU       126.8230  117.9090  158.8220           1 6EU1001     0.0000 
     19 CAR       127.4130  117.0210  159.8990           1 6EU1001     0.0000 
     20 OAD       126.8320  115.7750  159.8590           1 6EU1001     0.0000 
     21 CAZ       127.0590  117.6720  161.2480           1 6EU1001     0.0000 
     22 OAE       126.3450  118.5730  161.4240           1 6EU1001     0.0000 
     23 CBA       127.8590  116.8970  162.2510           1 6EU1001     0.0000 
     24 CBF       127.3220  116.3260  163.5690           1 6EU1001     0.0000 
     25 CAW       129.0340  116.3460  161.4750           1 6EU1001     0.0000 
     26 CAO       128.8990  116.9240  160.0480           1 6EU1001     0.0000 
     27 CAJ       129.7390  116.2090  158.8400           1 6EU1001     0.0000 
     28 OAA       131.4550  116.5930  158.9560           1 6EU1001     0.0000 
     29 CAN       129.7200  114.7300  158.7470           1 6EU1001     0.0000 
     30 CAT       130.8470  114.0430  159.6100           1 6EU1001     0.0000 
     31 CAP       130.0550  114.2130  157.2780           1 6EU1001     0.0000 
     32 CAM       130.9090  115.3510  156.4060           1 6EU1001     0.0000 
     33 CAV       131.0770  114.9720  154.9780           1 6EU1001     0.0000 
     34 CBB       130.5430  113.7840  154.4960           1 6EU1001     0.0000 
     35 CBD       131.8470  115.9050  154.0260           1 6EU1001     0.0000 
     36 OAC       131.9620  115.5520  156.9120           1 6EU1001     0.0000 
     37 CAL       130.2260  116.8440  156.5110           1 6EU1001     0.0000 
     38 OAB       131.2460  117.5740  156.8730           1 6EU1001     0.0000 
     39 CAQ       132.0620  116.7680  157.5790           1 6EU1001     0.0000 
     40 CAY       133.4820  117.3560  157.6510           1 6EU1001     0.0000 
     41 CBE       133.3550  118.8250  158.2180           1 6EU1001     0.0000 
     42 CBG       133.2930  119.8940  157.3550           1 6EU1001     0.0000 
     43 CBI       133.1780  121.1900  157.8600           1 6EU1001     0.0000 
     44 CBL       133.1280  121.3950  159.2430           1 6EU1001     0.0000 
     45 CBJ       133.1930  120.3300  160.1130           1 6EU1001     0.0000 
     46 CBH       133.3100  119.0390  159.6110           1 6EU1001     0.0000 
@<TRIPOS>BOND
     1    1    2 du   
     2    2    3 du   
     3    3    4 du   
     4    3    5 du   
     5    4    9 du   
     6    5    6 du   
     7    5    7 du   
     8    7    8 du   
     9    8    9 du   
    10    9   10 du   
    11   10   11 du   
    12   11   12 du   
    13   11   13 du   
    14   13   14 du   
    15   14   15 du   
    16   15   16 du   
    17   15   18 du   
    18   16   17 du   
    19   17   27 du   
    20   17   37 du   
    21   18   19 du   
    22   19   20 du   
    23   19   21 du   
    24   19   26 du   
    25   21   22 du   
    26   21   23 du   
    27   23   24 du   
    28   23   25 du   
    29   25   26 du   
    30   26   27 du   
    31   27   28 du   
    32   27   29 du   
    33   28   39 du   
    34   29   30 du   
    35   29   31 du   
    36   31   32 du   
    37   32   33 du   
    38   32   36 du   
    39   32   37 du   
    40   33   34 du   
    41   33   35 du   
    42   36   39 du   
    43   37   38 du   
    44   38   39 du   
    45   39   40 du   
    46   40   41 du   
    47   41   42 du   
    48   41   46 du   
    49   42   43 du   
    50   43   44 du   
    51   44   45 du   
    52   45   46 du   
@<TRIPOS>SUBSTRUCTURE
     1 6EU1001     1 GROUP   
@<TRIPOS>SET

