#    Name: 6oo5_3_6EU
#    Modification time : Fri May 22 19:44:37 2020

@<TRIPOS>MOLECULE
6oo5_3_6EU
   46    52     1     0     0
SMALL
NO_CHARGES


@<TRIPOS>ATOM
      1 CBT       119.0980  151.0340  149.4650           1 6EU1001     0.0000 
      2 OAH       118.9550  152.3850  149.8230           1 6EU1001     0.0000 
      3 CBQ       118.9140  152.6370  151.2050           1 6EU1001     0.0000 
      4 CBO       119.8080  151.9890  152.0860           1 6EU1001     0.0000 
      5 CBS       117.9860  153.5640  151.7040           1 6EU1001     0.0000 
      6 OAI       117.1070  154.2100  150.8240           1 6EU1001     0.0000 
      7 CBR       117.9320  153.8370  153.0430           1 6EU1001     0.0000 
      8 CBP       118.8170  153.1870  153.9220           1 6EU1001     0.0000 
      9 CBN       119.7570  152.2550  153.4240           1 6EU1001     0.0000 
     10 CBM       120.7350  151.5360  154.4000           1 6EU1001     0.0000 
     11 CBK       120.0750  150.4080  155.1860           1 6EU1001     0.0000 
     12 OAG       119.8090  149.3850  154.6420           1 6EU1001     0.0000 
     13 OAF       119.7740  150.5770  156.5850           1 6EU1001     0.0000 
     14 CBC       120.1380  149.4390  157.3420           1 6EU1001     0.0000 
     15 CAX       118.8480  148.7960  157.9540           1 6EU1001     0.0000 
     16 CAS       118.2110  147.5550  157.1850           1 6EU1001     0.0000 
     17 CAK       116.6030  147.1880  157.4430           1 6EU1001     0.0000 
     18 CAU       117.8900  149.7180  158.7510           1 6EU1001     0.0000 
     19 CAR       117.0790  149.0220  159.8270           1 6EU1001     0.0000 
     20 OAD       115.7680  149.4220  159.7130           1 6EU1001     0.0000 
     21 CAZ       117.5410  149.5690  161.1990           1 6EU1001     0.0000 
     22 OAE       117.8410  150.6710  161.4240           1 6EU1001     0.0000 
     23 CBA       117.5040  148.4300  162.1750           1 6EU1001     0.0000 
     24 CBF       117.5440  148.5430  163.7040           1 6EU1001     0.0000 
     25 CAW       117.1790  147.1820  161.3930           1 6EU1001     0.0000 
     26 CAO       117.2710  147.5280  159.8910           1 6EU1001     0.0000 
     27 CAJ       116.3730  146.6060  158.8730           1 6EU1001     0.0000 
     28 OAA       117.0680  144.9950  158.6770           1 6EU1001     0.0000 
     29 CAN       114.9490  146.3570  159.2510           1 6EU1001     0.0000 
     30 CAT       114.7030  145.0930  160.1720           1 6EU1001     0.0000 
     31 CAP       114.0170  146.0850  157.9890           1 6EU1001     0.0000 
     32 CAM       114.9110  145.4360  156.7480           1 6EU1001     0.0000 
     33 CAV       114.0890  145.2390  155.5350           1 6EU1001     0.0000 
     34 CBB       113.0210  146.0920  155.2820           1 6EU1001     0.0000 
     35 CBD       114.4300  144.0880  154.5730           1 6EU1001     0.0000 
     36 OAC       115.3880  144.4110  157.0860           1 6EU1001     0.0000 
     37 CAL       116.2640  146.3150  156.4210           1 6EU1001     0.0000 
     38 OAB       117.1790  145.3710  156.4060           1 6EU1001     0.0000 
     39 CAQ       116.7630  144.4390  157.2930           1 6EU1001     0.0000 
     40 CAY       117.3940  143.0520  157.0820           1 6EU1001     0.0000 
     41 CBE       117.4500  142.3690  158.5000           1 6EU1001     0.0000 
     42 CBG       118.6590  142.2240  159.1340           1 6EU1001     0.0000 
     43 CBI       118.7060  141.6190  160.3930           1 6EU1001     0.0000 
     44 CBL       117.5260  141.1700  161.0000           1 6EU1001     0.0000 
     45 CBJ       116.3140  141.3180  160.3670           1 6EU1001     0.0000 
     46 CBH       116.2610  141.9180  159.1120           1 6EU1001     0.0000 
@<TRIPOS>BOND
     1    1    2 du   
     2    2    3 du   
     3    3    4 du   
     4    3    5 du   
     5    4    9 du   
     6    5    6 du   
     7    5    7 du   
     8    7    8 du   
     9    8    9 du   
    10    9   10 du   
    11   10   11 du   
    12   11   12 du   
    13   11   13 du   
    14   13   14 du   
    15   14   15 du   
    16   15   16 du   
    17   15   18 du   
    18   16   17 du   
    19   17   27 du   
    20   17   37 du   
    21   18   19 du   
    22   19   20 du   
    23   19   21 du   
    24   19   26 du   
    25   21   22 du   
    26   21   23 du   
    27   23   24 du   
    28   23   25 du   
    29   25   26 du   
    30   26   27 du   
    31   27   28 du   
    32   27   29 du   
    33   28   39 du   
    34   29   30 du   
    35   29   31 du   
    36   31   32 du   
    37   32   33 du   
    38   32   36 du   
    39   32   37 du   
    40   33   34 du   
    41   33   35 du   
    42   36   39 du   
    43   37   38 du   
    44   38   39 du   
    45   39   40 du   
    46   40   41 du   
    47   41   42 du   
    48   41   46 du   
    49   42   43 du   
    50   43   44 du   
    51   44   45 du   
    52   45   46 du   
@<TRIPOS>SUBSTRUCTURE
     1 6EU1001     1 GROUP   
@<TRIPOS>SET

