#    Name: 6oo5_2_6EU
#    Modification time : Fri May 22 19:44:26 2020

@<TRIPOS>MOLECULE
6oo5_2_6EU
   46    52     1     0     0
SMALL
NO_CHARGES


@<TRIPOS>ATOM
      1 CBT       153.8410  156.5500  149.7790           1 6EU1001     0.0000 
      2 OAH       152.9080  157.5590  150.0580           1 6EU1001     0.0000 
      3 CBQ       152.6940  157.7270  151.4300           1 6EU1001     0.0000 
      4 CBO       151.8780  156.8180  152.1290           1 6EU1001     0.0000 
      5 CBS       153.2980  158.7960  152.1040           1 6EU1001     0.0000 
      6 OAI       154.1070  159.6910  151.3940           1 6EU1001     0.0000 
      7 CBR       153.0940  158.9570  153.4500           1 6EU1001     0.0000 
      8 CBP       152.2730  158.0550  154.1510           1 6EU1001     0.0000 
      9 CBN       151.6680  156.9790  153.4670           1 6EU1001     0.0000 
     10 CBM       150.7610  155.9640  154.2290           1 6EU1001     0.0000 
     11 CBK       149.5700  156.6220  154.9360           1 6EU1001     0.0000 
     12 OAG       148.4800  156.5620  154.4710           1 6EU1001     0.0000 
     13 OAF       149.7790  157.3150  156.1810           1 6EU1001     0.0000 
     14 CBC       149.4930  156.5320  157.3270           1 6EU1001     0.0000 
     15 CAX       148.7900  157.5160  158.3120           1 6EU1001     0.0000 
     16 CAS       147.3540  157.9780  157.8140           1 6EU1001     0.0000 
     17 CAK       147.1980  159.6190  157.5370           1 6EU1001     0.0000 
     18 CAU       149.6910  158.6700  158.8160           1 6EU1001     0.0000 
     19 CAR       149.1000  159.5580  159.8930           1 6EU1001     0.0000 
     20 OAD       149.6810  160.8060  159.8500           1 6EU1001     0.0000 
     21 CAZ       149.4570  158.9100  161.2420           1 6EU1001     0.0000 
     22 OAE       150.1730  158.0110  161.4190           1 6EU1001     0.0000 
     23 CBA       148.6560  159.6820  162.2460           1 6EU1001     0.0000 
     24 CBF       149.1930  160.2560  163.5610           1 6EU1001     0.0000 
     25 CAW       147.4790  160.2310  161.4690           1 6EU1001     0.0000 
     26 CAO       147.6140  159.6530  160.0420           1 6EU1001     0.0000 
     27 CAJ       146.7730  160.3670  158.8340           1 6EU1001     0.0000 
     28 OAA       145.0580  159.9810  158.9490           1 6EU1001     0.0000 
     29 CAN       146.7920  161.8450  158.7400           1 6EU1001     0.0000 
     30 CAT       145.6640  162.5320  159.6030           1 6EU1001     0.0000 
     31 CAP       146.4570  162.3610  157.2700           1 6EU1001     0.0000 
     32 CAM       145.6030  161.2230  156.3990           1 6EU1001     0.0000 
     33 CAV       145.4360  161.6010  154.9710           1 6EU1001     0.0000 
     34 CBB       145.9710  162.7890  154.4880           1 6EU1001     0.0000 
     35 CBD       144.6690  160.6660  154.0180           1 6EU1001     0.0000 
     36 OAC       144.5520  161.0230  156.9050           1 6EU1001     0.0000 
     37 CAL       146.2870  159.7300  156.5050           1 6EU1001     0.0000 
     38 OAB       145.2680  159.0000  156.8660           1 6EU1001     0.0000 
     39 CAQ       144.4510  159.8060  157.5720           1 6EU1001     0.0000 
     40 CAY       143.0310  159.2170  157.6440           1 6EU1001     0.0000 
     41 CBE       143.1560  157.7490  158.2150           1 6EU1001     0.0000 
     42 CBG       143.2210  156.6790  157.3550           1 6EU1001     0.0000 
     43 CBI       143.3340  155.3830  157.8630           1 6EU1001     0.0000 
     44 CBL       143.3810  155.1830  159.2460           1 6EU1001     0.0000 
     45 CBJ       143.3120  156.2490  160.1140           1 6EU1001     0.0000 
     46 CBH       143.1970  157.5400  159.6090           1 6EU1001     0.0000 
@<TRIPOS>BOND
     1    1    2 du   
     2    2    3 du   
     3    3    4 du   
     4    3    5 du   
     5    4    9 du   
     6    5    6 du   
     7    5    7 du   
     8    7    8 du   
     9    8    9 du   
    10    9   10 du   
    11   10   11 du   
    12   11   12 du   
    13   11   13 du   
    14   13   14 du   
    15   14   15 du   
    16   15   16 du   
    17   15   18 du   
    18   16   17 du   
    19   17   27 du   
    20   17   37 du   
    21   18   19 du   
    22   19   20 du   
    23   19   21 du   
    24   19   26 du   
    25   21   22 du   
    26   21   23 du   
    27   23   24 du   
    28   23   25 du   
    29   25   26 du   
    30   26   27 du   
    31   27   28 du   
    32   27   29 du   
    33   28   39 du   
    34   29   30 du   
    35   29   31 du   
    36   31   32 du   
    37   32   33 du   
    38   32   36 du   
    39   32   37 du   
    40   33   34 du   
    41   33   35 du   
    42   36   39 du   
    43   37   38 du   
    44   38   39 du   
    45   39   40 du   
    46   40   41 du   
    47   41   42 du   
    48   41   46 du   
    49   42   43 du   
    50   43   44 du   
    51   44   45 du   
    52   45   46 du   
@<TRIPOS>SUBSTRUCTURE
     1 6EU1001     1 GROUP   
@<TRIPOS>SET

