#    Name: 6oo5_1_6EU
#    Modification time : Fri May 22 19:44:14 2020

@<TRIPOS>MOLECULE
6oo5_1_6EU
   46    52     1     0     0
SMALL
NO_CHARGES


@<TRIPOS>ATOM
      1 CBT       157.4150  125.5390  149.4600           1 6EU1001     0.0000 
      2 OAH       157.5560  124.1890  149.8190           1 6EU1001     0.0000 
      3 CBQ       157.5970  123.9390  151.2020           1 6EU1001     0.0000 
      4 CBO       156.7060  124.5880  152.0830           1 6EU1001     0.0000 
      5 CBS       158.5260  123.0140  151.7010           1 6EU1001     0.0000 
      6 OAI       159.4060  122.3660  150.8220           1 6EU1001     0.0000 
      7 CBR       158.5830  122.7410  153.0400           1 6EU1001     0.0000 
      8 CBP       157.6990  123.3940  153.9190           1 6EU1001     0.0000 
      9 CBN       156.7580  124.3250  153.4210           1 6EU1001     0.0000 
     10 CBM       155.7800  125.0440  154.3980           1 6EU1001     0.0000 
     11 CBK       156.4410  126.1740  155.1830           1 6EU1001     0.0000 
     12 OAG       156.7060  127.1960  154.6360           1 6EU1001     0.0000 
     13 OAF       156.7430  126.0070  156.5830           1 6EU1001     0.0000 
     14 CBC       156.3780  127.1430  157.3420           1 6EU1001     0.0000 
     15 CAX       157.6690  127.7870  157.9530           1 6EU1001     0.0000 
     16 CAS       158.3060  129.0270  157.1800           1 6EU1001     0.0000 
     17 CAK       159.9150  129.3930  157.4380           1 6EU1001     0.0000 
     18 CAU       158.6280  126.8650  158.7480           1 6EU1001     0.0000 
     19 CAR       159.4400  127.5610  159.8230           1 6EU1001     0.0000 
     20 OAD       160.7500  127.1600  159.7100           1 6EU1001     0.0000 
     21 CAZ       158.9770  127.0140  161.1960           1 6EU1001     0.0000 
     22 OAE       158.6760  125.9120  161.4200           1 6EU1001     0.0000 
     23 CBA       159.0140  128.1540  162.1710           1 6EU1001     0.0000 
     24 CBF       158.9770  128.0400  163.7000           1 6EU1001     0.0000 
     25 CAW       159.3400  129.4020  161.3880           1 6EU1001     0.0000 
     26 CAO       159.2480  129.0550  159.8860           1 6EU1001     0.0000 
     27 CAJ       160.1450  129.9760  158.8680           1 6EU1001     0.0000 
     28 OAA       159.4510  131.5870  158.6730           1 6EU1001     0.0000 
     29 CAN       161.5700  130.2240  159.2450           1 6EU1001     0.0000 
     30 CAT       161.8170  131.4890  160.1670           1 6EU1001     0.0000 
     31 CAP       162.5020  130.4970  157.9840           1 6EU1001     0.0000 
     32 CAM       161.6070  131.1470  156.7430           1 6EU1001     0.0000 
     33 CAV       162.4270  131.3430  155.5300           1 6EU1001     0.0000 
     34 CBB       163.4960  130.4910  155.2760           1 6EU1001     0.0000 
     35 CBD       162.0850  132.4940  154.5680           1 6EU1001     0.0000 
     36 OAC       161.1300  132.1720  157.0810           1 6EU1001     0.0000 
     37 CAL       160.2530  130.2670  156.4160           1 6EU1001     0.0000 
     38 OAB       159.3390  131.2110  156.4020           1 6EU1001     0.0000 
     39 CAQ       159.7550  132.1430  157.2890           1 6EU1001     0.0000 
     40 CAY       159.1240  133.5300  157.0790           1 6EU1001     0.0000 
     41 CBE       159.0670  134.2130  158.4970           1 6EU1001     0.0000 
     42 CBG       157.8580  134.3550  159.1310           1 6EU1001     0.0000 
     43 CBI       157.8100  134.9600  160.3900           1 6EU1001     0.0000 
     44 CBL       158.9900  135.4100  160.9980           1 6EU1001     0.0000 
     45 CBJ       160.2030  135.2630  160.3650           1 6EU1001     0.0000 
     46 CBH       160.2560  134.6640  159.1090           1 6EU1001     0.0000 
@<TRIPOS>BOND
     1    1    2 du   
     2    2    3 du   
     3    3    4 du   
     4    3    5 du   
     5    4    9 du   
     6    5    6 du   
     7    5    7 du   
     8    7    8 du   
     9    8    9 du   
    10    9   10 du   
    11   10   11 du   
    12   11   12 du   
    13   11   13 du   
    14   13   14 du   
    15   14   15 du   
    16   15   16 du   
    17   15   18 du   
    18   16   17 du   
    19   17   27 du   
    20   17   37 du   
    21   18   19 du   
    22   19   20 du   
    23   19   21 du   
    24   19   26 du   
    25   21   22 du   
    26   21   23 du   
    27   23   24 du   
    28   23   25 du   
    29   25   26 du   
    30   26   27 du   
    31   27   28 du   
    32   27   29 du   
    33   28   39 du   
    34   29   30 du   
    35   29   31 du   
    36   31   32 du   
    37   32   33 du   
    38   32   36 du   
    39   32   37 du   
    40   33   34 du   
    41   33   35 du   
    42   36   39 du   
    43   37   38 du   
    44   38   39 du   
    45   39   40 du   
    46   40   41 du   
    47   41   42 du   
    48   41   46 du   
    49   42   43 du   
    50   43   44 du   
    51   44   45 du   
    52   45   46 du   
@<TRIPOS>SUBSTRUCTURE
     1 6EU1001     1 GROUP   
@<TRIPOS>SET

