#    Name: 5yz8_6_ANP
#    Modification time : Fri May 22 19:24:19 2020

@<TRIPOS>MOLECULE
5yz8_6_ANP
   31    33     1     0     1
SMALL
NO_CHARGES


@<TRIPOS>ATOM
      1 PG        -54.2740   22.9450  -37.5380 P.3       1 ANP301      0.0000 
      2 O1G       -53.4140   23.4670  -38.6670 O.co2     1 ANP301      0.0000 
      3 O2G       -53.4690   22.5920  -36.3050 O.co2     1 ANP301      0.0000 
      4 O3G       -55.5000   23.7860  -37.2610 O.co2     1 ANP301      0.0000 
      5 PB        -55.9810   20.4290  -37.2020 P.3       1 ANP301      0.0000 
      6 O1B       -56.9730   21.3330  -36.5120 O.co2     1 ANP301      0.0000 
      7 O2B       -55.1770   19.4760  -36.3610 O.co2     1 ANP301      0.0000 
      8 N3B       -54.9540   21.4580  -38.1630 N.3       1 ANP301      0.0000 
      9 PA        -58.3430   19.7770  -38.5710 P.3       1 ANP301      0.0000 
     10 O1A       -58.4690   21.1200  -39.2460 O.co2     1 ANP301      0.0000 
     11 O2A       -59.1460   19.5070  -37.3150 O.co2     1 ANP301      0.0000 
     12 O3A       -56.7770   19.5250  -38.2690 O.3       1 ANP301      0.0000 
     13 O5'       -58.6610   18.6130  -39.6130 O.3       1 ANP301      0.0000 
     14 C5'       -58.6220   18.8810  -41.0010 C.3       1 ANP301      0.0000 
     15 C4'       -58.0620   17.6620  -41.7070 C.3       1 ANP301      0.0000 
     16 O4'       -59.1050   16.7030  -41.8600 O.3       1 ANP301      0.0000 
     17 C3'       -57.5260   18.0280  -43.0800 C.3       1 ANP301      0.0000 
     18 O3'       -56.1050   17.8730  -43.1210 O.3       1 ANP301      0.0000 
     19 C2'       -58.2490   17.1120  -44.0400 C.3       1 ANP301      0.0000 
     20 O2'       -57.3470   16.2230  -44.7000 O.3       1 ANP301      0.0000 
     21 C1'       -59.2600   16.3160  -43.2210 C.3       1 ANP301      0.0000 
     22 N9        -60.6550   16.5600  -43.6870 N.pl3     1 ANP301      0.0000 
     23 C8        -61.3220   17.7280  -43.6280 C.2       1 ANP301      0.0000 
     24 N7        -62.5710   17.5990  -44.1460 N.2       1 ANP301      0.0000 
     25 C5        -62.7150   16.3280  -44.5480 C.ar      1 ANP301      0.0000 
     26 C6        -63.7890   15.5190  -45.1790 C.ar      1 ANP301      0.0000 
     27 N6        -64.9850   16.0740  -45.4880 N.pl3     1 ANP301      0.0000 
     28 N1        -63.5390   14.2070  -45.4290 N.ar      1 ANP301      0.0000 
     29 C2        -62.3580   13.6340  -45.1180 C.ar      1 ANP301      0.0000 
     30 N3        -61.3360   14.3190  -44.5510 N.ar      1 ANP301      0.0000 
     31 C4        -61.4500   15.6420  -44.2420 C.ar      1 ANP301      0.0000 
@<TRIPOS>BOND
     1    1    2 ar   
     2    1    3 ar   
     3    1    4 ar   
     4    1    8 1    
     5    5    6 ar   
     6    5    7 ar   
     7    5    8 1    
     8    5   12 1    
     9    9   10 ar   
    10    9   11 ar   
    11    9   12 1    
    12    9   13 1    
    13   13   14 1    
    14   14   15 1    
    15   15   16 1    
    16   15   17 1    
    17   16   21 1    
    18   17   18 1    
    19   17   19 1    
    20   19   20 1    
    21   19   21 1    
    22   21   22 1    
    23   22   23 1    
    24   22   31 1    
    25   23   24 2    
    26   24   25 1    
    27   25   26 ar   
    28   25   31 ar   
    29   26   27 1    
    30   26   28 ar   
    31   28   29 ar   
    32   29   30 ar   
    33   30   31 ar   
@<TRIPOS>SUBSTRUCTURE
     1 ANP301      1 GROUP   
@<TRIPOS>SET
ATOM$ORANGE STATIC     ATOMS   COLORGROUP SYSTEM 
20 14 14 15 15 17 17 19 19 21 21 23 23 25 25 26 26 29 \
29 31 31 

