#    Name: 5yz8_3_ANP
#    Modification time : Fri May 22 19:23:59 2020

@<TRIPOS>MOLECULE
5yz8_3_ANP
   31    33     1     0     1
SMALL
NO_CHARGES


@<TRIPOS>ATOM
      1 PG         -5.7030   17.3730  -22.7340 P.3       1 ANP301      0.0000 
      2 O1G        -6.5710   17.6850  -23.9310 O.co2     1 ANP301      0.0000 
      3 O2G        -4.5990   18.3870  -22.5150 O.co2     1 ANP301      0.0000 
      4 O3G        -6.4780   17.0290  -21.4810 O.co2     1 ANP301      0.0000 
      5 PB         -3.9190   15.8460  -24.5810 P.3       1 ANP301      0.0000 
      6 O1B        -4.8270   15.6590  -25.7590 O.co2     1 ANP301      0.0000 
      7 O2B        -2.9500   16.9940  -24.5630 O.co2     1 ANP301      0.0000 
      8 N3B        -4.8490   15.9040  -23.1240 N.3       1 ANP301      0.0000 
      9 PA         -1.6840   14.3990  -23.7220 P.3       1 ANP301      0.0000 
     10 O1A        -0.5360   14.3720  -24.6940 O.co2     1 ANP301      0.0000 
     11 O2A        -1.6390   15.3770  -22.5830 O.co2     1 ANP301      0.0000 
     12 O3A        -3.0340   14.5260  -24.5720 O.3       1 ANP301      0.0000 
     13 O5'        -2.0410   12.9690  -23.1060 O.3       1 ANP301      0.0000 
     14 C5'        -1.1550   11.8840  -23.2370 C.3       1 ANP301      0.0000 
     15 C4'        -1.9110   10.5790  -23.0920 C.3       1 ANP301      0.0000 
     16 O4'        -0.9860    9.5910  -23.5070 O.3       1 ANP301      0.0000 
     17 C3'        -2.3430   10.2280  -21.6750 C.3       1 ANP301      0.0000 
     18 O3'        -3.7690   10.2560  -21.5270 O.3       1 ANP301      0.0000 
     19 C2'        -1.8170    8.8320  -21.4520 C.3       1 ANP301      0.0000 
     20 O2'        -2.8450    7.8560  -21.6090 O.3       1 ANP301      0.0000 
     21 C1'        -0.7930    8.5780  -22.5370 C.3       1 ANP301      0.0000 
     22 N9          0.5950    8.5830  -22.0030 N.pl3     1 ANP301      0.0000 
     23 C8          1.2190    9.6020  -21.3750 C.2       1 ANP301      0.0000 
     24 N7          2.4780    9.2470  -21.0090 N.2       1 ANP301      0.0000 
     25 C5          2.6670    7.9790  -21.4110 C.ar      1 ANP301      0.0000 
     26 C6          3.7690    6.9880  -21.3510 C.ar      1 ANP301      0.0000 
     27 N6          4.9410    7.3070  -20.7720 N.pl3     1 ANP301      0.0000 
     28 N1          3.5730    5.7600  -21.8920 N.ar      1 ANP301      0.0000 
     29 C2          2.4040    5.4240  -22.4820 C.ar      1 ANP301      0.0000 
     30 N3          1.3570    6.2750  -22.5710 N.ar      1 ANP301      0.0000 
     31 C4          1.4260    7.5410  -22.0680 C.ar      1 ANP301      0.0000 
@<TRIPOS>BOND
     1    1    2 ar   
     2    1    3 ar   
     3    1    4 ar   
     4    1    8 1    
     5    5    6 ar   
     6    5    7 ar   
     7    5    8 1    
     8    5   12 1    
     9    9   10 ar   
    10    9   11 ar   
    11    9   12 1    
    12    9   13 1    
    13   13   14 1    
    14   14   15 1    
    15   15   16 1    
    16   15   17 1    
    17   16   21 1    
    18   17   18 1    
    19   17   19 1    
    20   19   20 1    
    21   19   21 1    
    22   21   22 1    
    23   22   23 1    
    24   22   31 1    
    25   23   24 2    
    26   24   25 1    
    27   25   26 ar   
    28   25   31 ar   
    29   26   27 1    
    30   26   28 ar   
    31   28   29 ar   
    32   29   30 ar   
    33   30   31 ar   
@<TRIPOS>SUBSTRUCTURE
     1 ANP301      1 GROUP   
@<TRIPOS>SET
ATOM$ORANGE STATIC     ATOMS   COLORGROUP SYSTEM 
20 14 14 15 15 17 17 19 19 21 21 23 23 25 25 26 26 29 \
29 31 31 

