#    Name: 5yz8_5_ANP
#    Modification time : Fri May 22 19:24:12 2020

@<TRIPOS>MOLECULE
5yz8_5_ANP
   31    33     1     0     1
SMALL
NO_CHARGES


@<TRIPOS>ATOM
      1 PG        -49.3370   14.0980  -14.1850 P.3       1 ANP301      0.0000 
      2 O1G       -49.9740   14.5650  -15.4740 O.co2     1 ANP301      0.0000 
      3 O2G       -49.9210   14.7210  -12.9350 O.co2     1 ANP301      0.0000 
      4 O3G       -47.8270   14.0870  -14.1910 O.co2     1 ANP301      0.0000 
      5 PB        -49.0950   11.3460  -12.9890 P.3       1 ANP301      0.0000 
      6 O1B       -47.7530   10.8930  -13.4950 O.co2     1 ANP301      0.0000 
      7 O2B       -49.1840   12.0010  -11.6420 O.co2     1 ANP301      0.0000 
      8 N3B       -49.8140   12.4260  -14.1240 N.3       1 ANP301      0.0000 
      9 PA        -51.3680    9.8930  -12.1230 P.3       1 ANP301      0.0000 
     10 O1A       -52.0760   11.2110  -11.9990 O.co2     1 ANP301      0.0000 
     11 O2A       -51.0580    9.1270  -10.8650 O.co2     1 ANP301      0.0000 
     12 O3A       -50.0070   10.0280  -12.9690 O.3       1 ANP301      0.0000 
     13 O5'       -52.2170    9.0360  -13.1740 O.3       1 ANP301      0.0000 
     14 C5'       -52.3960    7.6460  -12.9960 C.3       1 ANP301      0.0000 
     15 C4'       -52.7380    6.9750  -14.3120 C.3       1 ANP301      0.0000 
     16 O4'       -53.2170    5.6840  -13.9560 O.3       1 ANP301      0.0000 
     17 C3'       -53.8390    7.6350  -15.1360 C.3       1 ANP301      0.0000 
     18 O3'       -53.3430    8.3330  -16.2710 O.3       1 ANP301      0.0000 
     19 C2'       -54.7030    6.4830  -15.5980 C.3       1 ANP301      0.0000 
     20 O2'       -54.3110    5.9790  -16.8740 O.3       1 ANP301      0.0000 
     21 C1'       -54.4720    5.3970  -14.5720 C.3       1 ANP301      0.0000 
     22 N9        -55.5790    5.3880  -13.5860 N.pl3     1 ANP301      0.0000 
     23 C8        -56.0250    6.4350  -12.8600 C.2       1 ANP301      0.0000 
     24 N7        -57.0650    6.0670  -12.0750 N.2       1 ANP301      0.0000 
     25 C5        -57.2860    4.7670  -12.3010 C.ar      1 ANP301      0.0000 
     26 C6        -58.2370    3.7600  -11.7890 C.ar      1 ANP301      0.0000 
     27 N6        -59.1370    4.1600  -10.8690 N.pl3     1 ANP301      0.0000 
     28 N1        -58.1610    2.4880  -12.2620 N.ar      1 ANP301      0.0000 
     29 C2        -57.2350    2.1370  -13.1910 C.ar      1 ANP301      0.0000 
     30 N3        -56.3360    3.0130  -13.7010 N.ar      1 ANP301      0.0000 
     31 C4        -56.3100    4.3160  -13.2980 C.ar      1 ANP301      0.0000 
@<TRIPOS>BOND
     1    1    2 ar   
     2    1    3 ar   
     3    1    4 ar   
     4    1    8 1    
     5    5    6 ar   
     6    5    7 ar   
     7    5    8 1    
     8    5   12 1    
     9    9   10 ar   
    10    9   11 ar   
    11    9   12 1    
    12    9   13 1    
    13   13   14 1    
    14   14   15 1    
    15   15   16 1    
    16   15   17 1    
    17   16   21 1    
    18   17   18 1    
    19   17   19 1    
    20   19   20 1    
    21   19   21 1    
    22   21   22 1    
    23   22   23 1    
    24   22   31 1    
    25   23   24 2    
    26   24   25 1    
    27   25   26 ar   
    28   25   31 ar   
    29   26   27 1    
    30   26   28 ar   
    31   28   29 ar   
    32   29   30 ar   
    33   30   31 ar   
@<TRIPOS>SUBSTRUCTURE
     1 ANP301      1 GROUP   
@<TRIPOS>SET
ATOM$ORANGE STATIC     ATOMS   COLORGROUP SYSTEM 
20 14 14 15 15 17 17 19 19 21 21 23 23 25 25 26 26 29 \
29 31 31 

