#    Name: 5yz8_4_ANP
#    Modification time : Fri May 22 19:24:05 2020

@<TRIPOS>MOLECULE
5yz8_4_ANP
   31    33     1     0     1
SMALL
NO_CHARGES


@<TRIPOS>ATOM
      1 PG        -25.0420   11.7110   -6.6440 P.3       1 ANP301      0.0000 
      2 O1G       -24.4460   12.0970   -7.9750 O.co2     1 ANP301      0.0000 
      3 O2G       -26.5200   11.9660   -6.5860 O.co2     1 ANP301      0.0000 
      4 O3G       -24.3390   12.2840   -5.4440 O.co2     1 ANP301      0.0000 
      5 PB        -23.1650    9.3580   -6.5710 P.3       1 ANP301      0.0000 
      6 O1B       -22.6870    9.3050   -7.9920 O.co2     1 ANP301      0.0000 
      7 O2B       -22.3480   10.1710   -5.6050 O.co2     1 ANP301      0.0000 
      8 N3B       -24.7900    9.9840   -6.4990 N.3       1 ANP301      0.0000 
      9 PA        -23.0000    7.3640   -4.5550 P.3       1 ANP301      0.0000 
     10 O1A       -21.5220    7.2980   -4.2390 O.co2     1 ANP301      0.0000 
     11 O2A       -23.9400    8.1790   -3.7020 O.co2     1 ANP301      0.0000 
     12 O3A       -23.1720    7.8230   -6.0920 O.3       1 ANP301      0.0000 
     13 O5'       -23.5170    5.8490   -4.5820 O.3       1 ANP301      0.0000 
     14 C5'       -24.8980    5.5670   -4.4640 C.3       1 ANP301      0.0000 
     15 C4'       -25.1250    4.2250   -5.1250 C.3       1 ANP301      0.0000 
     16 O4'       -24.2740    3.2420   -4.5340 O.3       1 ANP301      0.0000 
     17 C3'       -26.5560    3.7610   -4.9650 C.3       1 ANP301      0.0000 
     18 O3'       -27.2360    3.8700   -6.2190 O.3       1 ANP301      0.0000 
     19 C2'       -26.4690    2.3250   -4.4790 C.3       1 ANP301      0.0000 
     20 O2'       -26.9860    1.3830   -5.4290 O.3       1 ANP301      0.0000 
     21 C1'       -24.9930    2.0460   -4.2460 C.3       1 ANP301      0.0000 
     22 N9        -24.7760    1.6440   -2.8380 N.pl3     1 ANP301      0.0000 
     23 C8        -24.7280    2.4710   -1.7760 C.2       1 ANP301      0.0000 
     24 N7        -24.5240    1.7670   -0.6300 N.2       1 ANP301      0.0000 
     25 C5        -24.4430    0.4680   -0.9590 C.ar      1 ANP301      0.0000 
     26 C6        -24.2370   -0.8130   -0.2400 C.ar      1 ANP301      0.0000 
     27 N6        -24.0680   -0.8450    1.0950 N.pl3     1 ANP301      0.0000 
     28 N1        -24.2170   -1.9580   -0.9590 N.ar      1 ANP301      0.0000 
     29 C2        -24.3830   -1.9580   -2.2980 C.ar      1 ANP301      0.0000 
     30 N3        -24.5780   -0.8290   -3.0210 N.ar      1 ANP301      0.0000 
     31 C4        -24.6120    0.3910   -2.4190 C.ar      1 ANP301      0.0000 
@<TRIPOS>BOND
     1    1    2 ar   
     2    1    3 ar   
     3    1    4 ar   
     4    1    8 1    
     5    5    6 ar   
     6    5    7 ar   
     7    5    8 1    
     8    5   12 1    
     9    9   10 ar   
    10    9   11 ar   
    11    9   12 1    
    12    9   13 1    
    13   13   14 1    
    14   14   15 1    
    15   15   16 1    
    16   15   17 1    
    17   16   21 1    
    18   17   18 1    
    19   17   19 1    
    20   19   20 1    
    21   19   21 1    
    22   21   22 1    
    23   22   23 1    
    24   22   31 1    
    25   23   24 2    
    26   24   25 1    
    27   25   26 ar   
    28   25   31 ar   
    29   26   27 1    
    30   26   28 ar   
    31   28   29 ar   
    32   29   30 ar   
    33   30   31 ar   
@<TRIPOS>SUBSTRUCTURE
     1 ANP301      1 GROUP   
@<TRIPOS>SET
ATOM$ORANGE STATIC     ATOMS   COLORGROUP SYSTEM 
20 14 14 15 15 17 17 19 19 21 21 23 23 25 25 26 26 29 \
29 31 31 

