#    Name: 5yz8_1_ANP
#    Modification time : Fri May 22 19:23:48 2020

@<TRIPOS>MOLECULE
5yz8_1_ANP
   31    33     1     0     1
SMALL
NO_CHARGES


@<TRIPOS>ATOM
      1 PG        -34.9160   28.6380  -53.4770 P.3       1 ANP301      0.0000 
      2 O1G       -35.5300   29.9040  -54.0220 O.co2     1 ANP301      0.0000 
      3 O2G       -35.6060   28.1000  -52.2440 O.co2     1 ANP301      0.0000 
      4 O3G       -33.4130   28.7130  -53.3600 O.co2     1 ANP301      0.0000 
      5 PB        -36.7840   26.8110  -54.9950 P.3       1 ANP301      0.0000 
      6 O1B       -37.6710   28.0100  -55.1790 O.co2     1 ANP301      0.0000 
      7 O2B       -37.1470   25.8260  -53.9240 O.co2     1 ANP301      0.0000 
      8 N3B       -35.1990   27.4330  -54.7050 N.3       1 ANP301      0.0000 
      9 PA        -36.9170   26.6390  -57.8140 P.3       1 ANP301      0.0000 
     10 O1A       -38.3780   26.4940  -58.1360 O.co2     1 ANP301      0.0000 
     11 O2A       -36.2300   27.9790  -57.8550 O.co2     1 ANP301      0.0000 
     12 O3A       -36.6990   25.9750  -56.3660 O.3       1 ANP301      0.0000 
     13 O5'       -36.0510   25.6940  -58.7780 O.3       1 ANP301      0.0000 
     14 C5'       -36.5710   24.4500  -59.2080 C.3       1 ANP301      0.0000 
     15 C4'       -35.4910   23.5120  -59.7340 C.3       1 ANP301      0.0000 
     16 O4'       -35.9670   22.9240  -60.9460 O.3       1 ANP301      0.0000 
     17 C3'       -34.1260   24.1140  -60.0720 C.3       1 ANP301      0.0000 
     18 O3'       -33.2140   24.0980  -58.9800 O.3       1 ANP301      0.0000 
     19 C2'       -33.6340   23.2060  -61.1770 C.3       1 ANP301      0.0000 
     20 O2'       -32.9300   22.0750  -60.6750 O.3       1 ANP301      0.0000 
     21 C1'       -34.8950   22.7170  -61.8530 C.3       1 ANP301      0.0000 
     22 N9        -35.1230   23.4870  -63.0900 N.pl3     1 ANP301      0.0000 
     23 C8        -35.1160   24.8330  -63.2160 C.2       1 ANP301      0.0000 
     24 N7        -35.3450   25.1930  -64.4970 N.2       1 ANP301      0.0000 
     25 C5        -35.5080   24.0610  -65.1900 C.ar      1 ANP301      0.0000 
     26 C6        -35.7840   23.7440  -66.5910 C.ar      1 ANP301      0.0000 
     27 N6        -35.9200   24.7840  -67.4280 N.pl3     1 ANP301      0.0000 
     28 N1        -35.8920   22.4430  -66.9540 N.ar      1 ANP301      0.0000 
     29 C2        -35.7470   21.4410  -66.0560 C.ar      1 ANP301      0.0000 
     30 N3        -35.4870   21.6640  -64.7520 N.ar      1 ANP301      0.0000 
     31 C4        -35.3640   22.9330  -64.2730 C.ar      1 ANP301      0.0000 
@<TRIPOS>BOND
     1    1    2 ar   
     2    1    3 ar   
     3    1    4 ar   
     4    1    8 1    
     5    5    6 ar   
     6    5    7 ar   
     7    5    8 1    
     8    5   12 1    
     9    9   10 ar   
    10    9   11 ar   
    11    9   12 1    
    12    9   13 1    
    13   13   14 1    
    14   14   15 1    
    15   15   16 1    
    16   15   17 1    
    17   16   21 1    
    18   17   18 1    
    19   17   19 1    
    20   19   20 1    
    21   19   21 1    
    22   21   22 1    
    23   22   23 1    
    24   22   31 1    
    25   23   24 2    
    26   24   25 1    
    27   25   26 ar   
    28   25   31 ar   
    29   26   27 1    
    30   26   28 ar   
    31   28   29 ar   
    32   29   30 ar   
    33   30   31 ar   
@<TRIPOS>SUBSTRUCTURE
     1 ANP301      1 GROUP   
@<TRIPOS>SET
ATOM$ORANGE STATIC     ATOMS   COLORGROUP SYSTEM 
20 14 14 15 15 17 17 19 19 21 21 23 23 25 25 26 26 29 \
29 31 31 

