#    Name: 5yz8_2_ANP
#    Modification time : Fri May 22 19:23:54 2020

@<TRIPOS>MOLECULE
5yz8_2_ANP
   31    33     1     0     1
SMALL
NO_CHARGES


@<TRIPOS>ATOM
      1 PG        -10.4400   25.6780  -46.3090 P.3       1 ANP301      0.0000 
      2 O1G        -9.9880   26.9320  -47.0090 O.co2     1 ANP301      0.0000 
      3 O2G        -9.5960   25.3250  -45.1060 O.co2     1 ANP301      0.0000 
      4 O3G       -11.9370   25.6380  -46.0940 O.co2     1 ANP301      0.0000 
      5 PB        -10.8160   24.3610  -48.9990 P.3       1 ANP301      0.0000 
      6 O1B       -10.6260   25.7270  -49.6060 O.co2     1 ANP301      0.0000 
      7 O2B       -12.1980   23.7750  -48.9750 O.co2     1 ANP301      0.0000 
      8 N3B       -10.0970   24.3870  -47.4210 N.3       1 ANP301      0.0000 
      9 PA         -8.7330   23.8690  -50.7850 P.3       1 ANP301      0.0000 
     10 O1A        -9.3990   24.3600  -52.0350 O.co2     1 ANP301      0.0000 
     11 O2A        -7.7990   24.7430  -50.0010 O.co2     1 ANP301      0.0000 
     12 O3A        -9.9000   23.3370  -49.8230 O.3       1 ANP301      0.0000 
     13 O5'        -7.9690   22.5140  -51.1270 O.3       1 ANP301      0.0000 
     14 C5'        -6.9680   22.0440  -50.2400 C.3       1 ANP301      0.0000 
     15 C4'        -7.0430   20.5320  -50.2250 C.3       1 ANP301      0.0000 
     16 O4'        -6.7580   20.0270  -51.5310 O.3       1 ANP301      0.0000 
     17 C3'        -6.0320   19.9520  -49.2480 C.3       1 ANP301      0.0000 
     18 O3'        -6.6940   19.4570  -48.0910 O.3       1 ANP301      0.0000 
     19 C2'        -5.3300   18.8490  -50.0160 C.3       1 ANP301      0.0000 
     20 O2'        -5.6580   17.5320  -49.5610 O.3       1 ANP301      0.0000 
     21 C1'        -5.7910   18.9820  -51.4590 C.3       1 ANP301      0.0000 
     22 N9         -4.6250   19.2850  -52.3160 N.pl3     1 ANP301      0.0000 
     23 C8         -3.9160   20.4260  -52.3290 C.2       1 ANP301      0.0000 
     24 N7         -2.9120   20.3450  -53.2410 N.2       1 ANP301      0.0000 
     25 C5         -2.9810   19.1370  -53.8200 C.ar      1 ANP301      0.0000 
     26 C6         -2.2330   18.3970  -54.8620 C.ar      1 ANP301      0.0000 
     27 N6         -1.1750   18.9630  -55.4790 N.pl3     1 ANP301      0.0000 
     28 N1         -2.6410   17.1420  -55.1810 N.ar      1 ANP301      0.0000 
     29 C2         -3.6990   16.5530  -54.5750 C.ar      1 ANP301      0.0000 
     30 N3         -4.4250   17.1650  -53.6160 N.ar      1 ANP301      0.0000 
     31 C4         -4.1160   18.4330  -53.2050 C.ar      1 ANP301      0.0000 
@<TRIPOS>BOND
     1    1    2 ar   
     2    1    3 ar   
     3    1    4 ar   
     4    1    8 1    
     5    5    6 ar   
     6    5    7 ar   
     7    5    8 1    
     8    5   12 1    
     9    9   10 ar   
    10    9   11 ar   
    11    9   12 1    
    12    9   13 1    
    13   13   14 1    
    14   14   15 1    
    15   15   16 1    
    16   15   17 1    
    17   16   21 1    
    18   17   18 1    
    19   17   19 1    
    20   19   20 1    
    21   19   21 1    
    22   21   22 1    
    23   22   23 1    
    24   22   31 1    
    25   23   24 2    
    26   24   25 1    
    27   25   26 ar   
    28   25   31 ar   
    29   26   27 1    
    30   26   28 ar   
    31   28   29 ar   
    32   29   30 ar   
    33   30   31 ar   
@<TRIPOS>SUBSTRUCTURE
     1 ANP301      1 GROUP   
@<TRIPOS>SET
ATOM$ORANGE STATIC     ATOMS   COLORGROUP SYSTEM 
20 14 14 15 15 17 17 19 19 21 21 23 23 25 25 26 26 29 \
29 31 31 

