#    Name: 6bwj_2_6EU
#    Modification time : Fri May 22 19:35:38 2020

@<TRIPOS>MOLECULE
6bwj_2_6EU
   86    92     1     0     0
SMALL
NO_CHARGES


@<TRIPOS>ATOM
      1 CBT       -40.5130  -19.3510   15.1240           1 6EU803      0.0000 
      2 OAH       -39.7580  -20.5370   15.0510           1 6EU803      0.0000 
      3 CBQ       -38.3540  -20.4000   15.0740           1 6EU803      0.0000 
      4 CBO       -37.6960  -19.4830   14.2200           1 6EU803      0.0000 
      5 CBS       -37.5910  -21.2060   15.9400           1 6EU803      0.0000 
      6 OAI       -38.2290  -22.1230   16.7830           1 6EU803      0.0000 
      7 CBR       -36.2220  -21.0940   15.9680           1 6EU803      0.0000 
      8 CBP       -35.5730  -20.1750   15.1240           1 6EU803      0.0000 
      9 CBN       -36.3350  -19.3680   14.2530           1 6EU803      0.0000 
     10 CBM       -35.6110  -18.3550   13.3200           1 6EU803      0.0000 
     11 CBK       -34.4010  -19.0060   12.6470           1 6EU803      0.0000 
     12 OAG       -34.5490  -20.0060   12.0290           1 6EU803      0.0000 
     13 OAF       -33.0870  -18.4210   12.7780           1 6EU803      0.0000 
     14 CBC       -32.3800  -18.3200   11.5520           1 6EU803      0.0000 
     15 CAX       -31.8270  -19.7430   11.1900           1 6EU803      0.0000 
     16 CAS       -32.5560  -20.5890   10.0460           1 6EU803      0.0000 
     17 CAK       -31.9740  -22.0710    9.5160           1 6EU803      0.0000 
     18 CAU       -30.7470  -20.4170   12.0750           1 6EU803      0.0000 
     19 CAR       -29.7790  -21.2860   11.2800           1 6EU803      0.0000 
     20 OAD       -30.0650  -22.6250   11.4610           1 6EU803      0.0000 
     21 CAZ       -28.3550  -21.0360   11.8520           1 6EU803      0.0000 
     22 OAE       -28.0860  -20.7090   12.9380           1 6EU803      0.0000 
     23 CBA       -27.3830  -21.2850   10.7390           1 6EU803      0.0000 
     24 CBF       -25.8540  -21.3010   10.8850           1 6EU803      0.0000 
     25 CAW       -28.1700  -21.1800    9.4470           1 6EU803      0.0000 
     26 CAO       -29.6580  -20.9660    9.8150           1 6EU803      0.0000 
     27 CAJ       -30.6130  -21.8750    8.8550           1 6EU803      0.0000 
     28 OAA       -30.7810  -21.2050    7.5760           1 6EU803      0.0000 
     29 CAN       -29.9570  -23.2390    8.6390           1 6EU803      0.0000 
     30 CAT       -29.0080  -23.2490    7.3740           1 6EU803      0.0000 
     31 CAP       -30.9600  -24.3660    8.4970           1 6EU803      0.0000 
     32 CAM       -32.1750  -23.8900    7.7340           1 6EU803      0.0000 
     33 CAV       -33.1220  -24.9800    7.3260           1 6EU803      0.0000 
     34 CBB       -32.6380  -26.1790    6.7990           1 6EU803      0.0000 
     35 CBD       -34.6480  -24.7970    7.4600           1 6EU803      0.0000 
     36 OAC       -31.6660  -23.1360    6.6220           1 6EU803      0.0000 
     37 CAL       -32.8890  -22.5910    8.4870           1 6EU803      0.0000 
     38 OAB       -33.0180  -21.6430    7.5700           1 6EU803      0.0000 
     39 CAQ       -31.8850  -21.7570    6.8380           1 6EU803      0.0000 
     40 CAY       -32.0530  -21.0230    5.4900           1 6EU803      0.0000 
     41 CBE       -30.6970  -20.3300    5.0870           1 6EU803      0.0000 
     42 CBG       -30.6130  -18.9600    5.0460           1 6EU803      0.0000 
     43 CBI       -29.4050  -18.3520    4.6880           1 6EU803      0.0000 
     44 CBL       -28.2870  -19.1390    4.3740           1 6EU803      0.0000 
     45 CBJ       -28.3710  -20.5120    4.4150           1 6EU803      0.0000 
     46 CBH       -29.5730  -21.1210    4.7710           1 6EU803      0.0000 
     47 H1        -41.0260  -19.3550   15.9110           1 6EU803      0.0000 
     48 H2        -41.0810  -19.2940   14.3790           1 6EU803      0.0000 
     49 H3        -39.9320  -18.6130   15.1320           1 6EU803      0.0000 
     50 HBS       -38.1920  -18.9490   13.6440           1 6EU803      0.0000 
     51 HAI       -37.7020  -22.7370   16.9780           1 6EU803      0.0000 
     52 HBU       -35.7250  -21.6250   16.5460           1 6EU803      0.0000 
     53 HBT       -34.6470  -20.0970   15.1430           1 6EU803      0.0000 
     54 H4        -35.3240  -17.6190   13.8270           1 6EU803      0.0000 
     55 H5        -36.2110  -18.0610   12.6590           1 6EU803      0.0000 
     56 H6        -31.6670  -17.7160   11.6490           1 6EU803      0.0000 
     57 H7        -32.9580  -18.0210   10.8750           1 6EU803      0.0000 
     58 H8        -33.3300  -20.2470    9.6610           1 6EU803      0.0000 
     59 H9        -31.9090  -22.6740   10.2320           1 6EU803      0.0000 
     60 H10       -31.1750  -20.9510   12.7170           1 6EU803      0.0000 
     61 H11       -30.2560  -19.7480   12.5140           1 6EU803      0.0000 
     62 HAD       -30.7170  -22.7020   11.9720           1 6EU803      0.0000 
     63 H12       -25.5770  -20.5310   11.3470           1 6EU803      0.0000 
     64 H13       -25.5920  -22.0660   11.3630           1 6EU803      0.0000 
     65 H14       -25.4590  -21.3140   10.0330           1 6EU803      0.0000 
     66 H15       -27.8110  -21.1440    8.5900           1 6EU803      0.0000 
     67 H16       -29.8750  -20.0620    9.6850           1 6EU803      0.0000 
     68 H17       -29.4280  -23.4210    9.3930           1 6EU803      0.0000 
     69 H18       -28.1940  -23.6600    7.5980           1 6EU803      0.0000 
     70 H19       -29.4190  -23.7290    6.6800           1 6EU803      0.0000 
     71 H20       -28.8480  -22.3670    7.0940           1 6EU803      0.0000 
     72 H21       -30.5630  -25.0790    8.0330           1 6EU803      0.0000 
     73 H22       -31.2240  -24.6570    9.3500           1 6EU803      0.0000 
     74 H24       -31.7220  -26.3100    6.7070           1 6EU803      0.0000 
     75 H25       -33.2310  -26.8490    6.5460           1 6EU803      0.0000 
     76 H27       -34.8400  -24.3500    8.2630           1 6EU803      0.0000 
     77 H28       -35.0640  -25.6390    7.4620           1 6EU803      0.0000 
     78 H29       -34.9680  -24.2920    6.7360           1 6EU803      0.0000 
     79 H30       -33.7200  -22.8250    8.8560           1 6EU803      0.0000 
     80 H31       -32.2970  -21.6410    4.8270           1 6EU803      0.0000 
     81 H32       -32.7240  -20.3710    5.5720           1 6EU803      0.0000 
     82 HBL       -31.3540  -18.4390    5.2550           1 6EU803      0.0000 
     83 HBN       -29.3430  -17.4260    4.6580           1 6EU803      0.0000 
     84 HBP       -27.4870  -18.7310    4.1360           1 6EU803      0.0000 
     85 HBO       -27.6290  -21.0300    4.2060           1 6EU803      0.0000 
     86 HBM       -29.6340  -22.0480    4.8010           1 6EU803      0.0000 
@<TRIPOS>BOND
     1    1    2 du   
     2    2    3 du   
     3    1   47 1    
     4    1   48 1    
     5    1   49 1    
     6    3    4 du   
     7    3    5 du   
     8    4    9 du   
     9    5    6 du   
    10    4   50 1    
    11    5    7 du   
    12    6   51 1    
    13    7    8 du   
    14    8    9 du   
    15    7   52 1    
    16    9   10 du   
    17    8   53 1    
    18   10   11 du   
    19   11   12 du   
    20   10   54 1    
    21   10   55 1    
    22   11   13 du   
    23   13   14 du   
    24   14   15 du   
    25   15   16 du   
    26   14   56 1    
    27   14   57 1    
    28   15   18 du   
    29   16   17 du   
    30   17   27 du   
    31   16   58 1    
    32   17   37 du   
    33   18   19 du   
    34   17   59 1    
    35   19   20 du   
    36   18   60 1    
    37   18   61 1    
    38   19   21 du   
    39   19   26 du   
    40   20   62 1    
    41   21   22 du   
    42   21   23 du   
    43   23   24 du   
    44   23   25 du   
    45   25   26 du   
    46   24   63 1    
    47   24   64 1    
    48   24   65 1    
    49   26   27 du   
    50   25   66 1    
    51   27   28 du   
    52   26   67 1    
    53   27   29 du   
    54   28   39 du   
    55   29   30 du   
    56   29   31 du   
    57   31   32 du   
    58   29   68 1    
    59   30   69 1    
    60   30   70 1    
    61   30   71 1    
    62   32   33 du   
    63   31   72 1    
    64   31   73 1    
    65   32   36 du   
    66   32   37 du   
    67   33   34 du   
    68   33   35 du   
    69   36   39 du   
    70   34   74 1    
    71   34   75 1    
    72   35   76 1    
    73   35   77 1    
    74   35   78 1    
    75   37   38 du   
    76   38   39 du   
    77   37   79 1    
    78   39   40 du   
    79   40   41 du   
    80   41   42 du   
    81   40   80 1    
    82   40   81 1    
    83   41   46 du   
    84   42   43 du   
    85   43   44 du   
    86   42   82 1    
    87   44   45 du   
    88   43   83 1    
    89   45   46 du   
    90   44   84 1    
    91   45   85 1    
    92   46   86 1    
@<TRIPOS>SUBSTRUCTURE
     1 6EU803      1 GROUP   
@<TRIPOS>SET

