#    Name: 6d6u_1_Y01
#    Modification time : Fri May 22 19:23:51 2020

@<TRIPOS>MOLECULE
6d6u_1_Y01
   21    24     1     0     0
SMALL
NO_CHARGES


@<TRIPOS>ATOM
      1 CBB       166.6630  122.1950  161.1600 C.3       1 Y01406      0.0000 
      2 CBE       168.1090  121.9270  161.5850 C.3       1 Y01406      0.0000 
      3 CAP       168.3030  122.2730  163.0820 C.3       1 Y01406      0.0000 
      4 CAQ       168.9070  121.0080  163.7510 C.3       1 Y01406      0.0000 
      5 CBG       169.5150  120.2430  162.5690 C.3       1 Y01406      0.0000 
      6 CBI       168.4270  120.4400  161.4800 C.3       1 Y01406      0.0000 
      7 CAE       167.1880  119.6140  161.8290 C.3       1 Y01406      0.0000 
      8 CAU       169.0130  119.9700  160.1620 C.3       1 Y01406      0.0000 
      9 CAS       169.2730  118.4620  160.2960 C.3       1 Y01406      0.0000 
     10 CBF       170.2120  118.1580  161.4590 C.3       1 Y01406      0.0000 
     11 CBD       169.6960  118.7500  162.7760 C.3       1 Y01406      0.0000 
     12 CAK       170.7590  118.5150  163.8570 C.3       1 Y01406      0.0000 
     13 CAI       171.0890  117.0520  163.9260 C.2       1 Y01406      0.0000 
     14 CAZ       170.9860  116.2500  162.9080 C.2       1 Y01406      0.0000 
     15 CAV       171.3720  114.7940  163.0980 C.3       1 Y01406      0.0000 
     16 CBH       170.4030  116.6570  161.5870 C.3       1 Y01406      0.0000 
     17 CAD       169.0370  115.9840  161.4410 C.3       1 Y01406      0.0000 
     18 CAT       171.2930  116.1450  160.4510 C.3       1 Y01406      0.0000 
     19 CAR       171.5160  114.6400  160.6140 Du        1 Y01406      0.0000 
     20 CBC       172.2590  114.3730  161.9240 Du        1 Y01406      0.0000 
     21 OAW       172.5650  112.9580  162.0280 Du        1 Y01406      0.0000 
@<TRIPOS>BOND
     1    1    2 1    
     2    2    3 1    
     3    2    6 1    
     4    3    4 1    
     5    4    5 1    
     6    5    6 1    
     7    5   11 1    
     8    6    7 1    
     9    6    8 1    
    10    8    9 1    
    11    9   10 1    
    12   10   11 1    
    13   10   16 1    
    14   11   12 1    
    15   12   13 1    
    16   13   14 2    
    17   14   15 1    
    18   14   16 1    
    19   15   20 du   
    20   16   17 1    
    21   16   18 1    
    22   18   19 du   
    23   19   20 du   
    24   20   21 du   
@<TRIPOS>SUBSTRUCTURE
     1 Y01406      1 GROUP   
@<TRIPOS>SET

