#    Name: 6d6u_3_Y01
#    Modification time : Fri May 22 19:24:04 2020

@<TRIPOS>MOLECULE
6d6u_3_Y01
   21    24     1     0     0
SMALL
NO_CHARGES


@<TRIPOS>ATOM
      1 CBB       141.3590  115.7580  135.3700 C.3       1 Y01410      0.0000 
      2 CBE       142.4990  114.7360  135.3610 C.3       1 Y01410      0.0000 
      3 CAP       142.7850  114.2400  136.8000 C.3       1 Y01410      0.0000 
      4 CAQ       142.6220  112.6960  136.7730 C.3       1 Y01410      0.0000 
      5 CBG       142.8560  112.3500  135.2980 C.3       1 Y01410      0.0000 
      6 CBI       142.0860  113.4910  134.5820 C.3       1 Y01410      0.0000 
      7 CAE       140.5790  113.2670  134.7210 C.3       1 Y01410      0.0000 
      8 CAU       142.4840  113.4480  133.1190 C.3       1 Y01410      0.0000 
      9 CAS       141.9600  112.1200  132.5520 C.3       1 Y01410      0.0000 
     10 CBF       142.5110  110.9210  133.3180 C.3       1 Y01410      0.0000 
     11 CBD       142.2570  111.0370  134.8270 C.3       1 Y01410      0.0000 
     12 CAK       142.9720  109.8710  135.5210 C.3       1 Y01410      0.0000 
     13 CAI       142.5010  108.5760  134.9260 C.2       1 Y01410      0.0000 
     14 CAZ       142.0440  108.4760  133.7130 C.2       1 Y01410      0.0000 
     15 CAV       141.5920  107.1110  133.2230 C.3       1 Y01410      0.0000 
     16 CBH       141.8980  109.6410  132.7780 C.3       1 Y01410      0.0000 
     17 CAD       140.4050  109.8860  132.5490 C.3       1 Y01410      0.0000 
     18 CAT       142.5220  109.2900  131.4250 C.3       1 Y01410      0.0000 
     19 CAR       141.9090  107.9870  130.9060 Du        1 Y01410      0.0000 
     20 CBC       142.2450  106.8430  131.8650 Du        1 Y01410      0.0000 
     21 OAW       141.7410  105.5940  131.3220 Du        1 Y01410      0.0000 
@<TRIPOS>BOND
     1    1    2 1    
     2    2    3 1    
     3    2    6 1    
     4    3    4 1    
     5    4    5 1    
     6    5    6 1    
     7    5   11 1    
     8    6    7 1    
     9    6    8 1    
    10    8    9 1    
    11    9   10 1    
    12   10   11 1    
    13   10   16 1    
    14   11   12 1    
    15   12   13 1    
    16   13   14 2    
    17   14   15 1    
    18   14   16 1    
    19   15   20 du   
    20   16   17 1    
    21   16   18 1    
    22   18   19 du   
    23   19   20 du   
    24   20   21 du   
@<TRIPOS>SUBSTRUCTURE
     1 Y01410      1 GROUP   
@<TRIPOS>SET

