#    Name: 6d6u_2_Y01
#    Modification time : Fri May 22 19:23:58 2020

@<TRIPOS>MOLECULE
6d6u_2_Y01
   21    24     1     0     0
SMALL
NO_CHARGES


@<TRIPOS>ATOM
      1 CBB       149.6140  104.9560  144.4280 C.3       1 Y01409      0.0000 
      2 CBE       148.4140  104.4620  145.2400 C.3       1 Y01409      0.0000 
      3 CAP       147.1130  104.5990  144.4120 C.3       1 Y01409      0.0000 
      4 CAQ       146.4830  103.1810  144.3490 C.3       1 Y01409      0.0000 
      5 CBG       147.0750  102.4900  145.5830 C.3       1 Y01409      0.0000 
      6 CBI       148.5490  102.9710  145.5310 C.3       1 Y01409      0.0000 
      7 CAE       149.2810  102.2810  144.3780 C.3       1 Y01409      0.0000 
      8 CAU       149.1930  102.5990  146.8530 C.3       1 Y01409      0.0000 
      9 CAS       149.2040  101.0650  146.9320 C.3       1 Y01409      0.0000 
     10 CBF       147.7980  100.4860  146.8160 C.3       1 Y01409      0.0000 
     11 CBD       147.0860  100.9720  145.5470 C.3       1 Y01409      0.0000 
     12 CAK       145.6430  100.4530  145.5770 C.3       1 Y01409      0.0000 
     13 CAI       145.6520   98.9610  145.7390 C.2       1 Y01409      0.0000 
     14 CAZ       146.6170   98.3140  146.3230 C.2       1 Y01409      0.0000 
     15 CAV       146.5040   96.8040  146.4420 C.3       1 Y01409      0.0000 
     16 CBH       147.8620   98.9690  146.8450 C.3       1 Y01409      0.0000 
     17 CAD       149.0380   98.5240  145.9730 C.3       1 Y01409      0.0000 
     18 CAT       148.1370   98.4860  148.2720 C.3       1 Y01409      0.0000 
     19 CAR       148.1630   96.9560  148.2980 Du        1 Y01409      0.0000 
     20 CBC       146.7920   96.4130  147.8940 Du        1 Y01409      0.0000 
     21 OAW       146.7880   94.9670  148.0160 Du        1 Y01409      0.0000 
@<TRIPOS>BOND
     1    1    2 1    
     2    2    3 1    
     3    2    6 1    
     4    3    4 1    
     5    4    5 1    
     6    5    6 1    
     7    5   11 1    
     8    6    7 1    
     9    6    8 1    
    10    8    9 1    
    11    9   10 1    
    12   10   11 1    
    13   10   16 1    
    14   11   12 1    
    15   12   13 1    
    16   13   14 2    
    17   14   15 1    
    18   14   16 1    
    19   15   20 du   
    20   16   17 1    
    21   16   18 1    
    22   18   19 du   
    23   19   20 du   
    24   20   21 du   
@<TRIPOS>SUBSTRUCTURE
     1 Y01409      1 GROUP   
@<TRIPOS>SET

