#    Name: 6d6u_12_Y01
#    Modification time : Fri May 22 19:24:23 2020

@<TRIPOS>MOLECULE
6d6u_12_Y01
   21    24     1     0     0
SMALL
NO_CHARGES


@<TRIPOS>ATOM
      1 CBB       163.5110  119.4860  156.1770 C.3       1 Y01401      0.0000 
      2 CBE       164.4410  119.2790  157.3750 C.3       1 Y01401      0.0000 
      3 CAP       163.7300  119.6990  158.6860 C.3       1 Y01401      0.0000 
      4 CAQ       163.7500  118.4530  159.6140 C.3       1 Y01401      0.0000 
      5 CBG       164.9390  117.6460  159.0810 C.3       1 Y01401      0.0000 
      6 CBI       164.7590  117.7980  157.5470 C.3       1 Y01401      0.0000 
      7 CAE       163.5730  116.9530  157.0770 C.3       1 Y01401      0.0000 
      8 CAU       166.0380  117.3030  156.8970 C.3       1 Y01401      0.0000 
      9 CAS       166.1420  115.8000  157.1980 C.3       1 Y01401      0.0000 
     10 CBF       166.1320  115.5230  158.6980 C.3       1 Y01401      0.0000 
     11 CBD       164.9210  116.1600  159.3920 C.3       1 Y01401      0.0000 
     12 CAK       165.0760  115.9530  160.9040 C.3       1 Y01401      0.0000 
     13 CAI       165.2390  114.4890  161.1910 C.2       1 Y01401      0.0000 
     14 CAZ       165.7210  113.6440  160.3280 C.2       1 Y01401      0.0000 
     15 CAV       165.8480  112.1870  160.7390 C.3       1 Y01401      0.0000 
     16 CBH       166.1580  114.0240  158.9420 C.3       1 Y01401      0.0000 
     17 CAD       165.2070  113.3610  157.9440 C.3       1 Y01401      0.0000 
     18 CAT       167.5620  113.4750  158.6780 C.3       1 Y01401      0.0000 
     19 CAR       167.5840  111.9710  158.9600 Du        1 Y01401      0.0000 
     20 CBC       167.2740  111.7220  160.4370 Du        1 Y01401      0.0000 
     21 OAW       167.3930  110.3030  160.7230 Du        1 Y01401      0.0000 
@<TRIPOS>BOND
     1    1    2 1    
     2    2    3 1    
     3    2    6 1    
     4    3    4 1    
     5    4    5 1    
     6    5    6 1    
     7    5   11 1    
     8    6    7 1    
     9    6    8 1    
    10    8    9 1    
    11    9   10 1    
    12   10   11 1    
    13   10   16 1    
    14   11   12 1    
    15   12   13 1    
    16   13   14 2    
    17   14   15 1    
    18   14   16 1    
    19   15   20 du   
    20   16   17 1    
    21   16   18 1    
    22   18   19 du   
    23   19   20 du   
    24   20   21 du   
@<TRIPOS>SUBSTRUCTURE
     1 Y01401      1 GROUP   
@<TRIPOS>SET

