#    Name: 6d6u_5_Y01
#    Modification time : Fri May 22 19:24:15 2020

@<TRIPOS>MOLECULE
6d6u_5_Y01
   21    24     1     0     0
SMALL
NO_CHARGES


@<TRIPOS>ATOM
      1 CBB       144.9070  117.4430  143.2830 C.3       1 Y01407      0.0000 
      2 CBE       143.6900  116.5150  143.3210 C.3       1 Y01407      0.0000 
      3 CAP       142.6690  116.9230  142.2300 C.3       1 Y01407      0.0000 
      4 CAQ       142.4270  115.6590  141.3610 C.3       1 Y01407      0.0000 
      5 CBG       142.8250  114.5140  142.2990 C.3       1 Y01407      0.0000 
      6 CBI       144.1000  115.0900  142.9700 C.3       1 Y01407      0.0000 
      7 CAE       145.2520  115.1120  141.9630 C.3       1 Y01407      0.0000 
      8 CAU       144.4450  114.1820  144.1350 C.3       1 Y01407      0.0000 
      9 CAS       144.8120  112.8120  143.5450 C.3       1 Y01407      0.0000 
     10 CBF       143.6720  112.2360  142.7110 C.3       1 Y01407      0.0000 
     11 CBD       143.2120  113.2120  141.6210 C.3       1 Y01407      0.0000 
     12 CAK       141.9800  112.6110  140.9320 C.3       1 Y01407      0.0000 
     13 CAI       142.3090  111.2360  140.4270 C.2       1 Y01407      0.0000 
     14 CAZ       143.2140  110.4770  140.9680 C.2       1 Y01407      0.0000 
     15 CAV       143.4540  109.1020  140.3680 C.3       1 Y01407      0.0000 
     16 CBH       144.1040  110.9180  142.0930 C.3       1 Y01407      0.0000 
     17 CAD       145.5210  111.0900  141.5430 C.3       1 Y01407      0.0000 
     18 CAT       144.1530  109.8270  143.1660 C.3       1 Y01407      0.0000 
     19 CAR       144.5570  108.4990  142.5240 Du        1 Y01407      0.0000 
     20 CBC       143.4960  108.0780  141.5050 Du        1 Y01407      0.0000 
     21 OAW       143.8310  106.7710  140.9700 Du        1 Y01407      0.0000 
@<TRIPOS>BOND
     1    1    2 1    
     2    2    3 1    
     3    2    6 1    
     4    3    4 1    
     5    4    5 1    
     6    5    6 1    
     7    5   11 1    
     8    6    7 1    
     9    6    8 1    
    10    8    9 1    
    11    9   10 1    
    12   10   11 1    
    13   10   16 1    
    14   11   12 1    
    15   12   13 1    
    16   13   14 2    
    17   14   15 1    
    18   14   16 1    
    19   15   20 du   
    20   16   17 1    
    21   16   18 1    
    22   18   19 du   
    23   19   20 du   
    24   20   21 du   
@<TRIPOS>SUBSTRUCTURE
     1 Y01407      1 GROUP   
@<TRIPOS>SET

