#    Name: 6mde_1_MEV_CAVITY_N1_6
#    Modification time : Fri May 22 19:25:17 2020

@<TRIPOS>MOLECULE
6mde_1_MEV_CAVITY_N1_6
   66     0     6     0     0
SMALL
NO_CHARGES


@<TRIPOS>ATOM
      1 OG         22.7000   -9.2500  -14.9700 O.3       1 SER1        0.0000 
      2 OG         23.5000  -10.5000  -14.7100 O.3       1 SER1        0.0000 
      3 OG         20.4800   -6.1800  -10.8400 O.3       1 SER1        0.0000 
      4 OG         23.2400   -8.5000  -13.0600 O.3       1 SER1        0.0000 
      5 OG         24.0400   -9.7500  -12.8000 O.3       1 SER1        0.0000 
      6 OG         20.8200   -4.1000  -10.5700 O.3       1 SER1        0.0000 
      7 OG         20.2300   -4.1800   -9.1900 O.3       1 SER1        0.0000 
      8 OG         21.6100   -5.3500  -10.3000 O.3       1 SER1        0.0000 
      9 OG         21.0200   -5.4300   -8.9300 O.3       1 SER1        0.0000 
     10 O          20.9900  -10.1700  -14.1300 O.2       2 ALA2        0.0000 
     11 O          21.7800  -11.4100  -13.8600 O.2       2 ALA2        0.0000 
     12 N          21.1500   -2.0200  -10.3000 N.am      2 ALA2        0.0000 
     13 N          23.1500   -7.1700   -6.4900 N.am      2 ALA2        0.0000 
     14 N          23.9400   -8.4100   -6.2200 N.am      2 ALA2        0.0000 
     15 N          24.8600   -6.2500   -7.3300 N.am      2 ALA2        0.0000 
     16 O          26.2500   -7.4200   -8.4400 O.2       2 ALA2        0.0000 
     17 N          25.6600   -7.5000   -7.0700 N.am      2 ALA2        0.0000 
     18 NZ         22.9900   -6.5100  -11.4200 N.4       3 LYS4        0.0000 
     19 NZ         24.3700   -7.6700  -12.5300 N.4       3 LYS4        0.0000 
     20 NZ         23.7800   -7.7500  -11.1500 N.4       3 LYS4        0.0000 
     21 NZ         23.5300   -5.7600   -9.5100 N.4       3 LYS4        0.0000 
     22 NZ         24.9100   -6.9200  -10.6200 N.4       3 LYS4        0.0000 
     23 NZ         24.3200   -7.0000   -9.2400 N.4       3 LYS4        0.0000 
     24 NZ         25.4500   -6.1700   -8.7100 N.4       3 LYS4        0.0000 
     25 CZ         19.2700  -11.0800  -13.2800 C.ar      4 PHE5        0.0000 
     26 CZ         22.4500   -7.2600  -13.3300 C.ar      4 PHE5        0.0000 
     27 CA         20.1900   -8.9200  -14.3900 C.3       5 GLY6        0.0000 
     28 CA         19.6000   -9.0000  -13.0100 C.3       5 GLY6        0.0000 
     29 CA         20.4000  -10.2500  -12.7500 C.3       5 GLY6        0.0000 
     30 CA         19.8100  -10.3300  -11.3700 C.3       5 GLY6        0.0000 
     31 CA         21.1900  -11.4900  -12.4800 C.3       5 GLY6        0.0000 
     32 CA         21.3200   -8.0900  -13.8600 C.3       5 GLY6        0.0000 
     33 CA         20.7300   -8.1700  -12.4800 C.3       5 GLY6        0.0000 
     34 CA         21.5300   -9.4200  -12.2200 C.3       5 GLY6        0.0000 
     35 CA         20.9400   -9.5000  -10.8400 C.3       5 GLY6        0.0000 
     36 CA         21.7300  -10.7500  -10.5700 C.3       5 GLY6        0.0000 
     37 CA         21.1400  -10.8300   -9.2000 C.3       5 GLY6        0.0000 
     38 CA         23.7000  -11.8300  -13.0600 C.3       5 GLY6        0.0000 
     39 CA         21.8600   -7.3400  -11.9500 C.3       5 GLY6        0.0000 
     40 CA         21.2700   -7.4200  -10.5700 C.3       5 GLY6        0.0000 
     41 CA         22.0700   -8.6700  -10.3100 C.3       5 GLY6        0.0000 
     42 CA         22.8600   -9.9100  -10.0400 C.3       5 GLY6        0.0000 
     43 CA         22.2700  -10.0000   -8.6600 C.3       5 GLY6        0.0000 
     44 CA         24.2400  -11.0800  -11.1500 C.3       5 GLY6        0.0000 
     45 CA         22.4000   -6.5900  -10.0400 C.3       5 GLY6        0.0000 
     46 CA         21.8100   -6.6700   -8.6600 C.3       5 GLY6        0.0000 
     47 CA         21.2200   -6.7500   -7.2800 C.3       5 GLY6        0.0000 
     48 CA         23.2000   -7.8400   -9.7700 C.3       5 GLY6        0.0000 
     49 CA         22.6100   -7.9200   -8.4000 C.3       5 GLY6        0.0000 
     50 CA         22.0200   -8.0000   -7.0200 C.3       5 GLY6        0.0000 
     51 DU         22.1200   -9.3400  -13.5900 H         6 CUB7        0.0000 
     52 DU         22.9100  -10.5800  -13.3300 H         6 CUB7        0.0000 
     53 DU         22.3200  -10.6600  -11.9500 H         6 CUB7        0.0000 
     54 DU         22.6600   -8.5900  -11.6800 H         6 CUB7        0.0000 
     55 DU         23.4500   -9.8300  -11.4200 H         6 CUB7        0.0000 
     56 DU         24.8300  -10.9900  -12.5300 H         6 CUB7        0.0000 
     57 DU         23.9900   -9.0800   -9.5100 H         6 CUB7        0.0000 
     58 DU         23.4000   -9.1600   -8.1300 H         6 CUB7        0.0000 
     59 DU         22.8100   -9.2500   -6.7600 H         6 CUB7        0.0000 
     60 DU         24.7800  -10.3300   -9.2400 H         6 CUB7        0.0000 
     61 DU         21.9500   -3.2700  -10.0400 H         6 CUB7        0.0000 
     62 DU         22.1500   -4.6000   -8.3900 H         6 CUB7        0.0000 
     63 DU         22.9400   -5.8400   -8.1300 H         6 CUB7        0.0000 
     64 DU         23.7400   -7.0900   -7.8600 H         6 CUB7        0.0000 
     65 DU         25.1200   -8.2500   -8.9800 H         6 CUB7        0.0000 
     66 DU         24.5300   -8.3300   -7.6000 H         6 CUB7        0.0000 
@<TRIPOS>BOND
@<TRIPOS>SUBSTRUCTURE
     1 SER1        1 GROUP   
     2 ALA2       10 GROUP   
     3 LYS4       18 GROUP   
     4 PHE5       25 GROUP   
     5 GLY6       27 GROUP   
     6 CUB7       51 GROUP   
@<TRIPOS>SET

