#    Name: 6mde_1_MEV
#    Modification time : Fri May 22 19:25:16 2020

@<TRIPOS>MOLECULE
6mde_1_MEV
   10     9     1     0     0
SMALL
NO_CHARGES


@<TRIPOS>ATOM
      1 C8         21.0550   -7.9040  -13.2820 C.3       1 MEV401      0.0000 
      2 O8         21.4770   -6.7200  -13.9070 O.3       1 MEV401      0.0000 
      3 C2         21.9000   -9.0490  -13.8390 C.3       1 MEV401      0.0000 
      4 C3         21.5350  -10.4030  -13.2360 C.3       1 MEV401      0.0000 
      5 O7         22.0300  -11.4360  -14.0510 O.3       1 MEV401      0.0000 
      6 C4         22.1570  -10.4960  -11.8460 C.3       1 MEV401      0.0000 
      7 C5         23.6390  -10.8570  -11.9450 C.2       1 MEV401      0.0000 
      8 O3         24.0840  -11.3480  -13.0220 O.co2     1 MEV401      0.0000 
      9 O4         24.4120  -10.6680  -10.9630 O.co2     1 MEV401      0.0000 
     10 C6         20.0200  -10.5090  -13.1340 C.3       1 MEV401      0.0000 
@<TRIPOS>BOND
     1    1    2 1    
     2    1    3 1    
     3    3    4 1    
     4    4    5 1    
     5    4    6 1    
     6    4   10 1    
     7    6    7 1    
     8    7    8 ar   
     9    7    9 ar   
@<TRIPOS>SUBSTRUCTURE
     1 MEV401      1 GROUP   
@<TRIPOS>SET

