#    Name: 6mde_1_MEV_CAVITY_N1_4
#    Modification time : Fri May 22 19:25:17 2020

@<TRIPOS>MOLECULE
6mde_1_MEV_CAVITY_N1_4
   44     0     6     0     0
SMALL
NO_CHARGES


@<TRIPOS>ATOM
      1 OG         22.7000   -9.2500  -14.9700 O.3       1 SER1        0.0000 
      2 OG         23.5000  -10.5000  -14.7100 O.3       1 SER1        0.0000 
      3 OG         20.4800   -6.1800  -10.8400 O.3       1 SER1        0.0000 
      4 OG         23.2400   -8.5000  -13.0600 O.3       1 SER1        0.0000 
      5 OG         24.0400   -9.7500  -12.8000 O.3       1 SER1        0.0000 
      6 OG         21.6100   -5.3500  -10.3000 O.3       1 SER1        0.0000 
      7 O          20.9900  -10.1700  -14.1300 O.2       2 ALA2        0.0000 
      8 O          21.7800  -11.4100  -13.8600 O.2       2 ALA2        0.0000 
      9 NZ         22.9900   -6.5100  -11.4200 N.4       3 LYS4        0.0000 
     10 NZ         24.3700   -7.6700  -12.5300 N.4       3 LYS4        0.0000 
     11 NZ         23.7800   -7.7500  -11.1500 N.4       3 LYS4        0.0000 
     12 NZ         24.9100   -6.9200  -10.6200 N.4       3 LYS4        0.0000 
     13 CZ         19.2700  -11.0800  -13.2800 C.ar      4 PHE5        0.0000 
     14 CZ         22.4500   -7.2600  -13.3300 C.ar      4 PHE5        0.0000 
     15 CA         20.1900   -8.9200  -14.3900 C.3       5 GLY6        0.0000 
     16 CA         19.6000   -9.0000  -13.0100 C.3       5 GLY6        0.0000 
     17 CA         20.4000  -10.2500  -12.7500 C.3       5 GLY6        0.0000 
     18 CA         19.8100  -10.3300  -11.3700 C.3       5 GLY6        0.0000 
     19 CA         21.1900  -11.4900  -12.4800 C.3       5 GLY6        0.0000 
     20 CA         21.3200   -8.0900  -13.8600 C.3       5 GLY6        0.0000 
     21 CA         20.7300   -8.1700  -12.4800 C.3       5 GLY6        0.0000 
     22 CA         21.5300   -9.4200  -12.2200 C.3       5 GLY6        0.0000 
     23 CA         20.9400   -9.5000  -10.8400 C.3       5 GLY6        0.0000 
     24 CA         21.7300  -10.7500  -10.5700 C.3       5 GLY6        0.0000 
     25 CA         21.1400  -10.8300   -9.2000 C.3       5 GLY6        0.0000 
     26 CA         23.7000  -11.8300  -13.0600 C.3       5 GLY6        0.0000 
     27 CA         21.8600   -7.3400  -11.9500 C.3       5 GLY6        0.0000 
     28 CA         21.2700   -7.4200  -10.5700 C.3       5 GLY6        0.0000 
     29 CA         22.0700   -8.6700  -10.3100 C.3       5 GLY6        0.0000 
     30 CA         22.8600   -9.9100  -10.0400 C.3       5 GLY6        0.0000 
     31 CA         22.2700  -10.0000   -8.6600 C.3       5 GLY6        0.0000 
     32 CA         24.2400  -11.0800  -11.1500 C.3       5 GLY6        0.0000 
     33 CA         22.4000   -6.5900  -10.0400 C.3       5 GLY6        0.0000 
     34 CA         23.2000   -7.8400   -9.7700 C.3       5 GLY6        0.0000 
     35 DU         22.1200   -9.3400  -13.5900 H         6 CUB7        0.0000 
     36 DU         22.9100  -10.5800  -13.3300 H         6 CUB7        0.0000 
     37 DU         22.3200  -10.6600  -11.9500 H         6 CUB7        0.0000 
     38 DU         22.6600   -8.5900  -11.6800 H         6 CUB7        0.0000 
     39 DU         23.4500   -9.8300  -11.4200 H         6 CUB7        0.0000 
     40 DU         24.8300  -10.9900  -12.5300 H         6 CUB7        0.0000 
     41 DU         23.9900   -9.0800   -9.5100 H         6 CUB7        0.0000 
     42 DU         23.4000   -9.1600   -8.1300 H         6 CUB7        0.0000 
     43 DU         24.7800  -10.3300   -9.2400 H         6 CUB7        0.0000 
     44 DU         25.1200   -8.2500   -8.9800 H         6 CUB7        0.0000 
@<TRIPOS>BOND
@<TRIPOS>SUBSTRUCTURE
     1 SER1        1 GROUP   
     2 ALA2        7 GROUP   
     3 LYS4        9 GROUP   
     4 PHE5       13 GROUP   
     5 GLY6       15 GROUP   
     6 CUB7       35 GROUP   
@<TRIPOS>SET

