#    Name: 6mde_1_MEV_CAVITY_N1_8
#    Modification time : Fri May 22 19:25:17 2020

@<TRIPOS>MOLECULE
6mde_1_MEV_CAVITY_N1_8
   94     0     6     0     0
SMALL
NO_CHARGES


@<TRIPOS>ATOM
      1 OG         22.7000   -9.2500  -14.9700 O.3       1 SER1        0.0000 
      2 OG         23.5000  -10.5000  -14.7100 O.3       1 SER1        0.0000 
      3 OG         20.4800   -6.1800  -10.8400 O.3       1 SER1        0.0000 
      4 OG         23.2400   -8.5000  -13.0600 O.3       1 SER1        0.0000 
      5 OG         24.0400   -9.7500  -12.8000 O.3       1 SER1        0.0000 
      6 OG         19.4400   -2.9400   -9.4600 O.3       1 SER1        0.0000 
      7 OG         18.8500   -3.0200   -8.0800 O.3       1 SER1        0.0000 
      8 OG         20.8200   -4.1000  -10.5700 O.3       1 SER1        0.0000 
      9 OG         20.2300   -4.1800   -9.1900 O.3       1 SER1        0.0000 
     10 OG         19.6400   -4.2600   -7.8100 O.3       1 SER1        0.0000 
     11 OG         19.0500   -4.3500   -6.4400 O.3       1 SER1        0.0000 
     12 OG         21.6100   -5.3500  -10.3000 O.3       1 SER1        0.0000 
     13 OG         21.0200   -5.4300   -8.9300 O.3       1 SER1        0.0000 
     14 OG         20.4300   -5.5100   -7.5500 O.3       1 SER1        0.0000 
     15 OG         21.6900   -1.2700   -8.3900 O.3       1 SER1        0.0000 
     16 OG         22.4900   -2.5200   -8.1300 O.3       1 SER1        0.0000 
     17 O          20.9900  -10.1700  -14.1300 O.2       2 ALA2        0.0000 
     18 O          21.7800  -11.4100  -13.8600 O.2       2 ALA2        0.0000 
     19 N          16.9200   -2.6000   -8.8800 N.am      2 ALA2        0.0000 
     20 N          18.6400   -1.6900   -9.7200 N.am      2 ALA2        0.0000 
     21 N          20.3600   -0.7800  -10.5700 N.am      2 ALA2        0.0000 
     22 N          19.7700   -0.8600   -9.1900 N.am      2 ALA2        0.0000 
     23 N          21.1500   -2.0200  -10.3000 N.am      2 ALA2        0.0000 
     24 O          22.3500   -5.9200   -6.7500 O.2       2 ALA2        0.0000 
     25 N          23.1500   -7.1700   -6.4900 N.am      2 ALA2        0.0000 
     26 N          23.9400   -8.4100   -6.2200 N.am      2 ALA2        0.0000 
     27 O          21.4900    0.0600  -10.0300 O.2       2 ALA2        0.0000 
     28 O          22.2800   -1.1900   -9.7700 O.2       2 ALA2        0.0000 
     29 O          23.2800   -3.7600   -7.8600 O.2       2 ALA2        0.0000 
     30 O          24.0700   -5.0100   -7.6000 O.2       2 ALA2        0.0000 
     31 O          23.4800   -5.0900   -6.2200 O.2       2 ALA2        0.0000 
     32 N          24.8600   -6.2500   -7.3300 N.am      2 ALA2        0.0000 
     33 O          26.2500   -7.4200   -8.4400 O.2       2 ALA2        0.0000 
     34 N          25.6600   -7.5000   -7.0700 N.am      2 ALA2        0.0000 
     35 N          24.4800   -7.6600   -4.3100 N.am      2 ALA2        0.0000 
     36 NZ         22.9900   -6.5100  -11.4200 N.4       3 LYS4        0.0000 
     37 NZ         24.3700   -7.6700  -12.5300 N.4       3 LYS4        0.0000 
     38 NZ         23.7800   -7.7500  -11.1500 N.4       3 LYS4        0.0000 
     39 NZ         23.5300   -5.7600   -9.5100 N.4       3 LYS4        0.0000 
     40 NZ         24.9100   -6.9200  -10.6200 N.4       3 LYS4        0.0000 
     41 NZ         24.3200   -7.0000   -9.2400 N.4       3 LYS4        0.0000 
     42 NZ         23.0700   -2.4400   -9.5000 N.4       3 LYS4        0.0000 
     43 NZ         23.8700   -3.6800   -9.2400 N.4       3 LYS4        0.0000 
     44 NZ         24.6600   -4.9300   -8.9700 N.4       3 LYS4        0.0000 
     45 NZ         25.4500   -6.1700   -8.7100 N.4       3 LYS4        0.0000 
     46 CZ         19.2700  -11.0800  -13.2800 C.ar      4 PHE5        0.0000 
     47 CZ         22.4500   -7.2600  -13.3300 C.ar      4 PHE5        0.0000 
     48 CA         20.1900   -8.9200  -14.3900 C.3       5 GLY6        0.0000 
     49 CA         19.6000   -9.0000  -13.0100 C.3       5 GLY6        0.0000 
     50 CA         20.4000  -10.2500  -12.7500 C.3       5 GLY6        0.0000 
     51 CA         19.8100  -10.3300  -11.3700 C.3       5 GLY6        0.0000 
     52 CA         21.1900  -11.4900  -12.4800 C.3       5 GLY6        0.0000 
     53 CA         21.3200   -8.0900  -13.8600 C.3       5 GLY6        0.0000 
     54 CA         20.7300   -8.1700  -12.4800 C.3       5 GLY6        0.0000 
     55 CA         21.5300   -9.4200  -12.2200 C.3       5 GLY6        0.0000 
     56 CA         20.9400   -9.5000  -10.8400 C.3       5 GLY6        0.0000 
     57 CA         21.7300  -10.7500  -10.5700 C.3       5 GLY6        0.0000 
     58 CA         21.1400  -10.8300   -9.2000 C.3       5 GLY6        0.0000 
     59 CA         23.7000  -11.8300  -13.0600 C.3       5 GLY6        0.0000 
     60 CA         21.8600   -7.3400  -11.9500 C.3       5 GLY6        0.0000 
     61 CA         21.2700   -7.4200  -10.5700 C.3       5 GLY6        0.0000 
     62 CA         22.0700   -8.6700  -10.3100 C.3       5 GLY6        0.0000 
     63 CA         22.8600   -9.9100  -10.0400 C.3       5 GLY6        0.0000 
     64 CA         22.2700  -10.0000   -8.6600 C.3       5 GLY6        0.0000 
     65 CA         24.2400  -11.0800  -11.1500 C.3       5 GLY6        0.0000 
     66 CA         19.8400   -5.5900   -6.1700 C.3       5 GLY6        0.0000 
     67 CA         22.4000   -6.5900  -10.0400 C.3       5 GLY6        0.0000 
     68 CA         21.8100   -6.6700   -8.6600 C.3       5 GLY6        0.0000 
     69 CA         21.2200   -6.7500   -7.2800 C.3       5 GLY6        0.0000 
     70 CA         23.2000   -7.8400   -9.7700 C.3       5 GLY6        0.0000 
     71 CA         22.6100   -7.9200   -8.4000 C.3       5 GLY6        0.0000 
     72 CA         22.0200   -8.0000   -7.0200 C.3       5 GLY6        0.0000 
     73 DU         22.1200   -9.3400  -13.5900 H         6 CUB7        0.0000 
     74 DU         22.9100  -10.5800  -13.3300 H         6 CUB7        0.0000 
     75 DU         22.3200  -10.6600  -11.9500 H         6 CUB7        0.0000 
     76 DU         22.6600   -8.5900  -11.6800 H         6 CUB7        0.0000 
     77 DU         23.4500   -9.8300  -11.4200 H         6 CUB7        0.0000 
     78 DU         24.8300  -10.9900  -12.5300 H         6 CUB7        0.0000 
     79 DU         23.9900   -9.0800   -9.5100 H         6 CUB7        0.0000 
     80 DU         23.4000   -9.1600   -8.1300 H         6 CUB7        0.0000 
     81 DU         22.8100   -9.2500   -6.7600 H         6 CUB7        0.0000 
     82 DU         24.7800  -10.3300   -9.2400 H         6 CUB7        0.0000 
     83 DU         20.5600   -2.1000   -8.9200 H         6 CUB7        0.0000 
     84 DU         19.9800   -2.1900   -7.5500 H         6 CUB7        0.0000 
     85 DU         21.9500   -3.2700  -10.0400 H         6 CUB7        0.0000 
     86 DU         21.3600   -3.3500   -8.6600 H         6 CUB7        0.0000 
     87 DU         20.7700   -3.4300   -7.2800 H         6 CUB7        0.0000 
     88 DU         22.1500   -4.6000   -8.3900 H         6 CUB7        0.0000 
     89 DU         21.5600   -4.6800   -7.0200 H         6 CUB7        0.0000 
     90 DU         22.9400   -5.8400   -8.1300 H         6 CUB7        0.0000 
     91 DU         21.7600   -6.0100   -5.3800 H         6 CUB7        0.0000 
     92 DU         23.7400   -7.0900   -7.8600 H         6 CUB7        0.0000 
     93 DU         25.1200   -8.2500   -8.9800 H         6 CUB7        0.0000 
     94 DU         24.5300   -8.3300   -7.6000 H         6 CUB7        0.0000 
@<TRIPOS>BOND
@<TRIPOS>SUBSTRUCTURE
     1 SER1        1 GROUP   
     2 ALA2       17 GROUP   
     3 LYS4       36 GROUP   
     4 PHE5       46 GROUP   
     5 GLY6       48 GROUP   
     6 CUB7       73 GROUP   
@<TRIPOS>SET

