#    Name: 6mde_2_MEV
#    Modification time : Fri May 22 19:25:20 2020

@<TRIPOS>MOLECULE
6mde_2_MEV
   10     9     1     0     0
SMALL
NO_CHARGES


@<TRIPOS>ATOM
      1 C8         -1.6750  -25.4590  -34.6510 C.3       1 MEV501      0.0000 
      2 O8         -2.8420  -26.0810  -34.1740 O.3       1 MEV501      0.0000 
      3 C2         -0.5280  -25.8870  -33.7370 C.3       1 MEV501      0.0000 
      4 C3          0.7870  -26.1880  -34.4670 C.3       1 MEV501      0.0000 
      5 O7          1.4940  -27.1670  -33.7560 O.3       1 MEV501      0.0000 
      6 C4          0.5400  -26.6640  -35.9040 C.3       1 MEV501      0.0000 
      7 C5         -0.1160  -28.0400  -36.0290 C.2       1 MEV501      0.0000 
      8 O3         -0.4800  -28.4520  -37.1660 O.co2     1 MEV501      0.0000 
      9 O4         -0.3000  -28.7530  -34.9990 O.co2     1 MEV501      0.0000 
     10 C6          1.6390  -24.9230  -34.5240 C.3       1 MEV501      0.0000 
@<TRIPOS>BOND
     1    1    2 1    
     2    1    3 1    
     3    3    4 1    
     4    4    5 1    
     5    4    6 1    
     6    4   10 1    
     7    6    7 1    
     8    7    8 ar   
     9    7    9 ar   
@<TRIPOS>SUBSTRUCTURE
     1 MEV501      1 GROUP   
@<TRIPOS>SET

