#    Name: 6euh_2_DGJ
#    Modification time : Fri May 22 19:27:02 2020

@<TRIPOS>MOLECULE
6euh_2_DGJ
   11    11     1     0     0
SMALL
NO_CHARGES


@<TRIPOS>ATOM
      1 C1         25.5960  -84.0260   73.4660 C.3       1 DGJ401      0.0000 
      2 C2         24.1730  -83.5890   73.1540 C.3       1 DGJ401      0.0000 
      3 O2         24.1210  -83.0860   71.8020 O.3       1 DGJ401      0.0000 
      4 C3         23.7510  -82.5610   74.2080 C.3       1 DGJ401      0.0000 
      5 O3         22.4140  -82.0640   73.9740 O.3       1 DGJ401      0.0000 
      6 C4         23.8260  -83.2120   75.5940 C.3       1 DGJ401      0.0000 
      7 O4         22.7770  -84.1960   75.6950 O.3       1 DGJ401      0.0000 
      8 C5         25.1940  -83.8420   75.8910 C.3       1 DGJ401      0.0000 
      9 N5         25.6860  -84.6770   74.7800 N.4       1 DGJ401      0.0000 
     10 C6         25.1040  -84.7760   77.1020 C.3       1 DGJ401      0.0000 
     11 O6         24.7420  -86.0860   76.6400 O.3       1 DGJ401      0.0000 
@<TRIPOS>BOND
     1    1    2 1    
     2    1    9 1    
     3    2    3 1    
     4    2    4 1    
     5    4    5 1    
     6    4    6 1    
     7    6    7 1    
     8    6    8 1    
     9    8    9 1    
    10    8   10 1    
    11   10   11 1    
@<TRIPOS>SUBSTRUCTURE
     1 DGJ401      1 GROUP   
@<TRIPOS>SET

