#    Name: 6euh_2_DGJ_CAVITY_N1_4
#    Modification time : Fri May 22 19:27:03 2020

@<TRIPOS>MOLECULE
6euh_2_DGJ_CAVITY_N1_4
   66     0     7     0     0
SMALL
NO_CHARGES


@<TRIPOS>ATOM
      1 OG         24.1100  -85.8800   76.8600 O.3       1 SER1        0.0000 
      2 OG         23.0600  -84.8300   76.6200 O.3       1 SER1        0.0000 
      3 OG         24.8200  -84.9500   77.8000 O.3       1 SER1        0.0000 
      4 OG         23.7700  -83.9100   77.5500 O.3       1 SER1        0.0000 
      5 OG         24.7200  -84.5600   79.8800 O.3       1 SER1        0.0000 
      6 O          24.5400  -88.2400   74.0800 O.2       2 ALA2        0.0000 
      7 N          25.3400  -87.7000   72.9300 N.am      2 ALA2        0.0000 
      8 N          26.1500  -87.1600   71.7900 N.am      2 ALA2        0.0000 
      9 O          23.4900  -87.2000   73.8400 O.2       2 ALA2        0.0000 
     10 N          25.1000  -86.1200   71.5500 N.am      2 ALA2        0.0000 
     11 O          27.6600  -85.6900   71.5800 O.2       2 ALA2        0.0000 
     12 N          26.6200  -84.6500   71.3400 N.am      2 ALA2        0.0000 
     13 O          25.5700  -83.6000   71.1000 O.2       2 ALA2        0.0000 
     14 N          26.5200  -84.2600   73.4200 N.am      2 ALA2        0.0000 
     15 N          25.4700  -83.2100   73.1800 N.am      2 ALA2        0.0000 
     16 N          27.2300  -83.3300   74.3600 N.am      2 ALA2        0.0000 
     17 N          26.1800  -82.2800   74.1200 N.am      2 ALA2        0.0000 
     18 N          25.1400  -81.2400   73.8800 N.am      2 ALA2        0.0000 
     19 OD1        24.4300  -82.1700   72.9400 O.co2     3 ASP3        0.0000 
     20 OD1        24.3300  -81.7800   75.0200 O.co2     3 ASP3        0.0000 
     21 NZ         22.4400  -86.1500   73.5900 N.4       4 LYS4        0.0000 
     22 NZ         23.2500  -85.6100   72.4500 N.4       4 LYS4        0.0000 
     23 NZ         24.0500  -85.0700   71.3000 N.4       4 LYS4        0.0000 
     24 NZ         23.1500  -85.2200   74.5300 N.4       4 LYS4        0.0000 
     25 NZ         23.9600  -84.6800   73.3900 N.4       4 LYS4        0.0000 
     26 NZ         24.7600  -84.1400   72.2400 N.4       4 LYS4        0.0000 
     27 NZ         22.1100  -84.1800   74.2900 N.4       4 LYS4        0.0000 
     28 NZ         23.8600  -84.2900   75.4700 N.4       4 LYS4        0.0000 
     29 NZ         22.8200  -83.2500   75.2300 N.4       4 LYS4        0.0000 
     30 NZ         23.6200  -82.7100   74.0800 N.4       4 LYS4        0.0000 
     31 NZ         23.5300  -82.3200   76.1700 N.4       4 LYS4        0.0000 
     32 CZ         22.6900  -87.7400   74.9800 C.ar      5 PHE5        0.0000 
     33 CZ         21.6400  -86.6900   74.7400 C.ar      5 PHE5        0.0000 
     34 CZ         23.6400  -88.4000   77.3100 C.ar      5 PHE5        0.0000 
     35 CZ         23.4000  -86.8100   75.9200 C.ar      5 PHE5        0.0000 
     36 CZ         22.3500  -85.7600   75.6800 C.ar      5 PHE5        0.0000 
     37 CZ         24.3500  -87.4700   78.2400 C.ar      5 PHE5        0.0000 
     38 CZ         25.1600  -86.9300   77.1000 C.ar      5 PHE5        0.0000 
     39 CZ         25.0600  -86.5400   79.1800 C.ar      5 PHE5        0.0000 
     40 CZ         25.8700  -86.0000   78.0400 C.ar      5 PHE5        0.0000 
     41 CZ         26.6700  -85.4600   76.8900 C.ar      5 PHE5        0.0000 
     42 CZ         25.6200  -84.4100   76.6500 C.ar      5 PHE5        0.0000 
     43 CZ         26.4300  -83.8700   75.5100 C.ar      5 PHE5        0.0000 
     44 CZ         24.5800  -83.3600   76.4100 C.ar      5 PHE5        0.0000 
     45 CZ         25.3800  -82.8200   75.2600 C.ar      5 PHE5        0.0000 
     46 CZ         25.7700  -85.6100   80.1200 C.ar      5 PHE5        0.0000 
     47 CZ         26.5800  -85.0700   78.9800 C.ar      5 PHE5        0.0000 
     48 CZ         24.4800  -82.9800   78.4900 C.ar      5 PHE5        0.0000 
     49 CA         25.9100  -85.5800   70.4000 C.3       6 GLY6        0.0000 
     50 CA         24.8600  -84.5300   70.1600 C.3       6 GLY6        0.0000 
     51 CA         26.0500  -86.7700   73.8700 C.3       6 GLY6        0.0000 
     52 CA         26.8600  -86.2300   72.7300 C.3       6 GLY6        0.0000 
     53 CA         27.8100  -86.8900   75.0500 C.3       6 GLY6        0.0000 
     54 CA         26.7600  -85.8400   74.8100 C.3       6 GLY6        0.0000 
     55 CA         28.5200  -85.9600   75.9900 C.3       6 GLY6        0.0000 
     56 CA         27.4800  -84.9100   75.7500 C.3       6 GLY6        0.0000 
     57 DU         23.7300  -88.7900   75.2200 H         7 CUB7        0.0000 
     58 DU         24.3000  -86.6600   72.6900 H         7 CUB7        0.0000 
     59 DU         24.4500  -87.8600   76.1600 H         7 CUB7        0.0000 
     60 DU         24.2000  -86.2700   74.7700 H         7 CUB7        0.0000 
     61 DU         25.0100  -85.7300   73.6300 H         7 CUB7        0.0000 
     62 DU         25.8100  -85.1900   72.4900 H         7 CUB7        0.0000 
     63 DU         25.9600  -86.3900   75.9600 H         7 CUB7        0.0000 
     64 DU         24.9100  -85.3400   75.7100 H         7 CUB7        0.0000 
     65 DU         25.7200  -84.8000   74.5700 H         7 CUB7        0.0000 
     66 DU         24.6700  -83.7500   74.3300 H         7 CUB7        0.0000 
@<TRIPOS>BOND
@<TRIPOS>SUBSTRUCTURE
     1 SER1        1 GROUP   
     2 ALA2        6 GROUP   
     3 ASP3       19 GROUP   
     4 LYS4       21 GROUP   
     5 PHE5       32 GROUP   
     6 GLY6       49 GROUP   
     7 CUB7       57 GROUP   
@<TRIPOS>SET

