#    Name: 6gna_1_FAD
#    Modification time : Fri May 22 19:27:09 2020

@<TRIPOS>MOLECULE
6gna_1_FAD
   83    88     1     0     1
SMALL
NO_CHARGES


@<TRIPOS>ATOM
      1 PA          7.5890   10.3490   11.8140 P.3       1 FAD300      0.0000 
      2 O1A         7.6770   11.5340   10.8860 O.co2     1 FAD300      0.0000 
      3 O2A         8.8470    9.8230   12.4600 O.co2     1 FAD300      0.0000 
      4 O5B         6.5320   10.6860   12.9770 O.3       1 FAD300      0.0000 
      5 C5B         6.5580    9.9620   14.2000 C.3       1 FAD300      0.0000 
      6 C4B         6.0270   10.8310   15.3290 C.3       1 FAD300      0.0000 
      7 O4B         5.3210   10.0190   16.2690 O.3       1 FAD300      0.0000 
      8 C3B         7.1620   11.5090   16.0780 C.3       1 FAD300      0.0000 
      9 O3B         6.8330   12.8700   16.3640 O.3       1 FAD300      0.0000 
     10 C2B         7.2950   10.7180   17.3590 C.3       1 FAD300      0.0000 
     11 O2B         7.7160   11.5300   18.4580 O.3       1 FAD300      0.0000 
     12 C1B         5.8970   10.1630   17.5680 C.3       1 FAD300      0.0000 
     13 N9A         5.9470    8.8600   18.2650 N.pl3     1 FAD300      0.0000 
     14 C8A         6.6200    7.7650   17.8640 C.2       1 FAD300      0.0000 
     15 N7A         6.4430    6.7500   18.7470 N.2       1 FAD300      0.0000 
     16 C5A         5.6470    7.1990   19.7320 C.ar      1 FAD300      0.0000 
     17 C6A         5.0660    6.6480   20.9750 C.ar      1 FAD300      0.0000 
     18 N6A         5.3100    5.3720   21.3530 N.pl3     1 FAD300      0.0000 
     19 N1A         4.2860    7.4630   21.7160 N.ar      1 FAD300      0.0000 
     20 C2A         4.0290    8.7350   21.3600 C.ar      1 FAD300      0.0000 
     21 N3A         4.5250    9.2950   20.2440 N.ar      1 FAD300      0.0000 
     22 C4A         5.3240    8.5920   19.4090 C.ar      1 FAD300      0.0000 
     23 N1         10.6740   12.4560    2.9390 N.2       1 FAD300      0.0000 
     24 C2         10.2500   12.9380    1.7440 C.2       1 FAD300      0.0000 
     25 O2          9.3060   12.3590    1.1670 O.2       1 FAD300      0.0000 
     26 N3         10.8000   14.0120    1.1500 N.am      1 FAD300      0.0000 
     27 C4         11.8140   14.6850    1.7070 C.2       1 FAD300      0.0000 
     28 O4         12.3090   15.6800    1.1370 O.2       1 FAD300      0.0000 
     29 C4X        12.3390   14.2240    3.0140 C.2       1 FAD300      0.0000 
     30 N5         13.3590   14.8530    3.6350 N.2       1 FAD300      0.0000 
     31 C5X        13.8190   14.4130    4.8270 C.ar      1 FAD300      0.0000 
     32 C6         14.8700   15.0780    5.4460 C.ar      1 FAD300      0.0000 
     33 C7         15.3510   14.6350    6.6720 C.ar      1 FAD300      0.0000 
     34 C7M        16.4910   15.3560    7.3410 C.3       1 FAD300      0.0000 
     35 C8         14.7410   13.4480    7.3240 C.ar      1 FAD300      0.0000 
     36 C8M        15.2600   12.9640    8.6520 C.3       1 FAD300      0.0000 
     37 C9         13.6900   12.7820    6.7080 C.ar      1 FAD300      0.0000 
     38 C9A        13.2070   13.2220    5.4830 C.ar      1 FAD300      0.0000 
     39 N10        12.1480   12.5430    4.8460 N.pl3     1 FAD300      0.0000 
     40 C10        11.6830   13.0420    3.6160 C.2       1 FAD300      0.0000 
     41 C1'        11.5170   11.3760    5.4690 C.3       1 FAD300      0.0000 
     42 C2'        10.1720   11.7680    6.0570 C.3       1 FAD300      0.0000 
     43 O2'        10.3940   12.7470    7.0760 O.3       1 FAD300      0.0000 
     44 C3'         9.4710   10.5570    6.6580 C.3       1 FAD300      0.0000 
     45 O3'         9.2150    9.5900    5.6370 O.3       1 FAD300      0.0000 
     46 C4'         8.1580   10.9590    7.3130 C.3       1 FAD300      0.0000 
     47 O4'         8.4120   11.9240    8.3410 O.3       1 FAD300      0.0000 
     48 C5'         7.4520    9.7430    7.8990 C.3       1 FAD300      0.0000 
     49 O5'         6.4800   10.1970    8.8310 O.3       1 FAD300      0.0000 
     50 P           5.7890    9.2050    9.8860 P.3       1 FAD300      0.0000 
     51 O1P         4.5580    9.8870   10.4300 O.co2     1 FAD300      0.0000 
     52 O2P         5.6770    7.8130    9.3180 O.co2     1 FAD300      0.0000 
     53 O3P         6.8980    9.1050   11.0530 O.3       1 FAD300      0.0000 
     54 H51A        7.5820    9.6540   14.4230 H         1 FAD300      0.0000 
     55 H52A        5.9460    9.0630   14.1090 H         1 FAD300      0.0000 
     56 H4B         5.3610   11.5980   14.9120 H         1 FAD300      0.0000 
     57 H3B         8.0920   11.4380   15.4950 H         1 FAD300      0.0000 
     58 HO3A        7.5400   13.2690   16.8900 H         1 FAD300      0.0000 
     59 H2B         7.9960    9.8860   17.2030 H         1 FAD300      0.0000 
     60 HO2A        8.6230   11.8280   18.3090 H         1 FAD300      0.0000 
     61 H1B         5.3140   10.8830   18.1590 H         1 FAD300      0.0000 
     62 H8A         7.2160    7.7030   16.9620 H         1 FAD300      0.0000 
     63 H61A        5.8980    4.7800   20.7830 H         1 FAD300      0.0000 
     64 H62A        4.9060    5.0120   22.2050 H         1 FAD300      0.0000 
     65 H2A         3.3940    9.3330   22.0010 H         1 FAD300      0.0000 
     66 HN3        10.4260   14.3300    0.2330 H         1 FAD300      0.0000 
     67 H6         15.3160   15.9440    4.9720 H         1 FAD300      0.0000 
     68 HM71       16.1070   16.1160    7.9700 H         1 FAD300      0.0000 
     69 HM72       17.1160   15.7900    6.6040 H         1 FAD300      0.0000 
     70 HM73       17.0530   14.6690    7.9190 H         1 FAD300      0.0000 
     71 HM81       16.0380   12.2630    8.4930 H         1 FAD300      0.0000 
     72 HM82       15.6330   13.7860    9.2050 H         1 FAD300      0.0000 
     73 HM83       14.4740   12.5030    9.1910 H         1 FAD300      0.0000 
     74 H9         13.2470   11.9160    7.1840 H         1 FAD300      0.0000 
     75 H1'1       12.1530   10.9550    6.2490 H         1 FAD300      0.0000 
     76 H1'2       11.3660   10.6030    4.7130 H         1 FAD300      0.0000 
     77 H2'         9.5420   12.1880    5.2610 H         1 FAD300      0.0000 
     78 HO2'       10.9470   12.3680    7.7730 H         1 FAD300      0.0000 
     79 H3'        10.1250   10.1210    7.4260 H         1 FAD300      0.0000 
     80 H4'         7.5080   11.4010    6.5450 H         1 FAD300      0.0000 
     81 HO4'        8.9730   11.5290    9.0230 H         1 FAD300      0.0000 
     82 H5'1        8.1760    9.0960    8.4000 H         1 FAD300      0.0000 
     83 H5'2        6.9700    9.1710    7.1040 H         1 FAD300      0.0000 
@<TRIPOS>BOND
     1    1    2 ar   
     2    1    3 ar   
     3    1    4 1    
     4    1   53 1    
     5    4    5 1    
     6    5    6 1    
     7    5   54 1    
     8    5   55 1    
     9    6    7 1    
    10    6    8 1    
    11    6   56 1    
    12    7   12 1    
    13    8    9 1    
    14    8   10 1    
    15    8   57 1    
    16    9   58 1    
    17   10   11 1    
    18   10   12 1    
    19   10   59 1    
    20   11   60 1    
    21   12   13 1    
    22   12   61 1    
    23   13   14 1    
    24   13   22 1    
    25   14   15 2    
    26   14   62 1    
    27   15   16 1    
    28   16   17 ar   
    29   16   22 ar   
    30   17   18 1    
    31   17   19 ar   
    32   18   63 1    
    33   18   64 1    
    34   19   20 ar   
    35   20   21 ar   
    36   20   65 1    
    37   21   22 ar   
    38   23   24 1    
    39   23   40 2    
    40   24   25 2    
    41   24   26 am   
    42   26   27 am   
    43   26   66 1    
    44   27   28 2    
    45   27   29 1    
    46   29   30 2    
    47   29   40 1    
    48   30   31 1    
    49   31   32 ar   
    50   31   38 ar   
    51   32   33 ar   
    52   32   67 1    
    53   33   34 1    
    54   33   35 ar   
    55   34   68 1    
    56   34   69 1    
    57   34   70 1    
    58   35   36 1    
    59   35   37 ar   
    60   36   71 1    
    61   36   72 1    
    62   36   73 1    
    63   37   38 ar   
    64   37   74 1    
    65   38   39 1    
    66   39   40 1    
    67   39   41 1    
    68   41   42 1    
    69   41   75 1    
    70   41   76 1    
    71   42   43 1    
    72   42   44 1    
    73   42   77 1    
    74   43   78 1    
    75   44   45 1    
    76   44   46 1    
    77   44   79 1    
    78   46   47 1    
    79   46   48 1    
    80   46   80 1    
    81   47   81 1    
    82   48   49 1    
    83   48   82 1    
    84   48   83 1    
    85   49   50 1    
    86   50   51 ar   
    87   50   52 ar   
    88   50   53 1    
@<TRIPOS>SUBSTRUCTURE
     1 FAD300      1 GROUP   
@<TRIPOS>SET
ATOM$ORANGE STATIC     ATOMS   COLORGROUP SYSTEM 
54 5 5 6 6 8 8 10 10 12 12 14 14 16 16 17 17 20 \
20 22 22 24 24 27 27 29 29 31 31 32 32 33 33 34 34 35 \
35 36 36 37 37 38 38 40 40 41 41 42 42 44 44 46 46 48 \
48 

