#    Name: 6bno_2_ADP
#    Modification time : Fri May 22 19:24:41 2020

@<TRIPOS>MOLECULE
6bno_2_ADP
   27    29     1     0     1
SMALL
NO_CHARGES


@<TRIPOS>ATOM
      1 PB          2.8450   17.1910  -62.9940 P.3       1 ADP402      0.0000 
      2 O1B         2.2650   16.2090  -63.9800 O.co2     1 ADP402      0.0000 
      3 O2B         2.1110   17.2660  -61.6770 O.co2     1 ADP402      0.0000 
      4 O3B         3.2200   18.5290  -63.5910 O.co2     1 ADP402      0.0000 
      5 PA          5.4100   17.4860  -61.9810 P.3       1 ADP402      0.0000 
      6 O1A         6.2830   17.9930  -63.1040 O.co2     1 ADP402      0.0000 
      7 O2A         4.7350   18.4470  -61.0250 O.co2     1 ADP402      0.0000 
      8 O3A         4.2660   16.5490  -62.6070 O.3       1 ADP402      0.0000 
      9 O5'         6.2370   16.4150  -61.1110 O.3       1 ADP402      0.0000 
     10 C5'         6.3340   16.5470  -59.6960 C.3       1 ADP402      0.0000 
     11 C4'         6.8560   15.2270  -59.1520 C.3       1 ADP402      0.0000 
     12 O4'         8.2420   15.1080  -59.4730 O.3       1 ADP402      0.0000 
     13 C3'         6.7260   15.1140  -57.6430 C.3       1 ADP402      0.0000 
     14 O3'         5.6800   14.1900  -57.3280 O.3       1 ADP402      0.0000 
     15 C2'         8.0690   14.6040  -57.1470 C.3       1 ADP402      0.0000 
     16 O2'         7.9350   13.2980  -56.5810 O.3       1 ADP402      0.0000 
     17 C1'         8.9600   14.5360  -58.3790 C.3       1 ADP402      0.0000 
     18 N9         10.2270   15.2880  -58.1690 N.pl3     1 ADP402      0.0000 
     19 C8         10.3400   16.6060  -57.9150 C.2       1 ADP402      0.0000 
     20 N7         11.6450   16.9580  -57.7790 N.2       1 ADP402      0.0000 
     21 C5         12.3920   15.8530  -57.9550 C.ar      1 ADP402      0.0000 
     22 C6         13.8380   15.5180  -57.9370 C.ar      1 ADP402      0.0000 
     23 N6         14.7840   16.4630  -57.7110 N.pl3     1 ADP402      0.0000 
     24 N1         14.1830   14.2330  -58.1680 N.ar      1 ADP402      0.0000 
     25 C2         13.2580   13.2820  -58.3990 C.ar      1 ADP402      0.0000 
     26 N3         11.9360   13.5120  -58.4230 N.ar      1 ADP402      0.0000 
     27 C4         11.4490   14.7530  -58.2020 C.ar      1 ADP402      0.0000 
@<TRIPOS>BOND
     1    1    2 ar   
     2    1    3 ar   
     3    1    4 ar   
     4    1    8 1    
     5    5    6 ar   
     6    5    7 ar   
     7    5    8 1    
     8    5    9 1    
     9    9   10 1    
    10   10   11 1    
    11   11   12 1    
    12   11   13 1    
    13   12   17 1    
    14   13   14 1    
    15   13   15 1    
    16   15   16 1    
    17   15   17 1    
    18   17   18 1    
    19   18   19 1    
    20   18   27 1    
    21   19   20 2    
    22   20   21 1    
    23   21   22 ar   
    24   21   27 ar   
    25   22   23 1    
    26   22   24 ar   
    27   24   25 ar   
    28   25   26 ar   
    29   26   27 ar   
@<TRIPOS>SUBSTRUCTURE
     1 ADP402      1 GROUP   
@<TRIPOS>SET
ATOM$ORANGE STATIC     ATOMS   COLORGROUP SYSTEM 
20 10 10 11 11 13 13 15 15 17 17 19 19 21 21 22 22 25 \
25 27 27 

