#    Name: 6bno_7_ADP
#    Modification time : Fri May 22 19:25:19 2020

@<TRIPOS>MOLECULE
6bno_7_ADP
   27    29     1     0     1
SMALL
NO_CHARGES


@<TRIPOS>ATOM
      1 PB         14.6670   -9.3840   77.5670 P.3       1 ADP402      0.0000 
      2 O1B        13.9930   -8.4640   76.5820 O.co2     1 ADP402      0.0000 
      3 O2B        15.0250   -8.7380   78.8850 O.co2     1 ADP402      0.0000 
      4 O3B        15.7490  -10.2550   76.9710 O.co2     1 ADP402      0.0000 
      5 PA         13.9260  -11.8580   78.5800 P.3       1 ADP402      0.0000 
      6 O1A        14.0490  -12.8590   77.4560 O.co2     1 ADP402      0.0000 
      7 O2A        15.0770  -11.6170   79.5350 O.co2     1 ADP402      0.0000 
      8 O3A        13.5160  -10.4370   77.9530 O.3       1 ADP402      0.0000 
      9 O5'        12.6170  -12.1970   79.4480 O.3       1 ADP402      0.0000 
     10 C5'        12.6990  -12.3380   80.8630 C.3       1 ADP402      0.0000 
     11 C4'        11.2810  -12.2990   81.4070 C.3       1 ADP402      0.0000 
     12 O4'        10.6240  -13.5250   81.0860 O.3       1 ADP402      0.0000 
     13 C3'        11.2270  -12.1350   82.9170 C.3       1 ADP402      0.0000 
     14 O3'        10.7910  -10.8110   83.2330 O.3       1 ADP402      0.0000 
     15 C2'        10.2290  -13.1690   83.4110 C.3       1 ADP402      0.0000 
     16 O2'         9.0820  -12.5310   83.9780 O.3       1 ADP402      0.0000 
     17 C1'         9.8160  -13.9610   82.1790 C.3       1 ADP402      0.0000 
     18 N9         10.0100  -15.4210   82.3880 N.pl3     1 ADP402      0.0000 
     19 C8         11.1760  -16.0450   82.6420 C.2       1 ADP402      0.0000 
     20 N7         10.9850  -17.3830   82.7780 N.2       1 ADP402      0.0000 
     21 C5          9.6740  -17.6340   82.6010 C.ar      1 ADP402      0.0000 
     22 C6          8.7980  -18.8320   82.6190 C.ar      1 ADP402      0.0000 
     23 N6          9.2930  -20.0730   82.8430 N.pl3     1 ADP402      0.0000 
     24 N1          7.4800  -18.6410   82.3870 N.ar      1 ADP402      0.0000 
     25 C2          6.9710  -17.4170   82.1580 C.ar      1 ADP402      0.0000 
     26 N3          7.7040  -16.2920   82.1340 N.ar      1 ADP402      0.0000 
     27 C4          9.0360  -16.3340   82.3550 C.ar      1 ADP402      0.0000 
@<TRIPOS>BOND
     1    1    2 ar   
     2    1    3 ar   
     3    1    4 ar   
     4    1    8 1    
     5    5    6 ar   
     6    5    7 ar   
     7    5    8 1    
     8    5    9 1    
     9    9   10 1    
    10   10   11 1    
    11   11   12 1    
    12   11   13 1    
    13   12   17 1    
    14   13   14 1    
    15   13   15 1    
    16   15   16 1    
    17   15   17 1    
    18   17   18 1    
    19   18   19 1    
    20   18   27 1    
    21   19   20 2    
    22   20   21 1    
    23   21   22 ar   
    24   21   27 ar   
    25   22   23 1    
    26   22   24 ar   
    27   24   25 ar   
    28   25   26 ar   
    29   26   27 ar   
@<TRIPOS>SUBSTRUCTURE
     1 ADP402      1 GROUP   
@<TRIPOS>SET
ATOM$ORANGE STATIC     ATOMS   COLORGROUP SYSTEM 
20 10 10 11 11 13 13 15 15 17 17 19 19 21 21 22 22 25 \
25 27 27 

