#    Name: 6bno_5_ADP
#    Modification time : Fri May 22 19:25:04 2020

@<TRIPOS>MOLECULE
6bno_5_ADP
   27    29     1     0     1
SMALL
NO_CHARGES


@<TRIPOS>ATOM
      1 PB          8.8960  -14.9690   21.3240 P.3       1 ADP402      0.0000 
      2 O1B         8.7070  -13.8440   20.3390 O.co2     1 ADP402      0.0000 
      3 O2B         9.5060  -14.5530   22.6420 O.co2     1 ADP402      0.0000 
      4 O3B         9.4720  -16.2320   20.7270 O.co2     1 ADP402      0.0000 
      5 PA          7.1240  -16.8480   22.3370 P.3       1 ADP402      0.0000 
      6 O1A         6.7840  -17.7970   21.2120 O.co2     1 ADP402      0.0000 
      7 O2A         8.2600  -17.1490   23.2920 O.co2     1 ADP402      0.0000 
      8 O3A         7.3940  -15.3940   21.7100 O.3       1 ADP402      0.0000 
      9 O5'         5.8020  -16.5630   23.2050 O.3       1 ADP402      0.0000 
     10 C5'         5.8130  -16.7260   24.6200 C.3       1 ADP402      0.0000 
     11 C4'         4.5620  -16.0550   25.1640 C.3       1 ADP402      0.0000 
     12 O4'         3.4250  -16.8550   24.8430 O.3       1 ADP402      0.0000 
     13 C3'         4.5890  -15.8850   26.6740 C.3       1 ADP402      0.0000 
     14 O3'         4.7920  -14.5060   26.9900 O.3       1 ADP402      0.0000 
     15 C2'         3.2320  -16.3610   27.1680 C.3       1 ADP402      0.0000 
     16 O2'         2.4930  -15.2760   27.7340 O.3       1 ADP402      0.0000 
     17 C1'         2.5080  -16.8820   25.9360 C.3       1 ADP402      0.0000 
     18 N9          2.0240  -18.2740   26.1450 N.pl3     1 ADP402      0.0000 
     19 C8          2.7870  -19.3540   26.3980 C.2       1 ADP402      0.0000 
     20 N7          2.0160  -20.4650   26.5330 N.2       1 ADP402      0.0000 
     21 C5          0.7310  -20.1020   26.3570 C.ar      1 ADP402      0.0000 
     22 C6         -0.5900  -20.7760   26.3740 C.ar      1 ADP402      0.0000 
     23 N6         -0.7040  -22.1090   26.5980 N.pl3     1 ADP402      0.0000 
     24 N1         -1.6810  -20.0160   26.1420 N.ar      1 ADP402      0.0000 
     25 C2         -1.5860  -18.6940   25.9140 C.ar      1 ADP402      0.0000 
     26 N3         -0.4280  -18.0160   25.8910 N.ar      1 ADP402      0.0000 
     27 C4          0.7450  -18.6530   26.1100 C.ar      1 ADP402      0.0000 
@<TRIPOS>BOND
     1    1    2 ar   
     2    1    3 ar   
     3    1    4 ar   
     4    1    8 1    
     5    5    6 ar   
     6    5    7 ar   
     7    5    8 1    
     8    5    9 1    
     9    9   10 1    
    10   10   11 1    
    11   11   12 1    
    12   11   13 1    
    13   12   17 1    
    14   13   14 1    
    15   13   15 1    
    16   15   16 1    
    17   15   17 1    
    18   17   18 1    
    19   18   19 1    
    20   18   27 1    
    21   19   20 2    
    22   20   21 1    
    23   21   22 ar   
    24   21   27 ar   
    25   22   23 1    
    26   22   24 ar   
    27   24   25 ar   
    28   25   26 ar   
    29   26   27 ar   
@<TRIPOS>SUBSTRUCTURE
     1 ADP402      1 GROUP   
@<TRIPOS>SET
ATOM$ORANGE STATIC     ATOMS   COLORGROUP SYSTEM 
20 10 10 11 11 13 13 15 15 17 17 19 19 21 21 22 22 25 \
25 27 27 

