#    Name: 6bno_8_ADP
#    Modification time : Fri May 22 19:25:26 2020

@<TRIPOS>MOLECULE
6bno_8_ADP
   27    29     1     0     1
SMALL
NO_CHARGES


@<TRIPOS>ATOM
      1 PB        -16.4450    5.6710  105.6840 P.3       1 ADP402      0.0000 
      2 O1B       -15.5770    4.9310  104.6980 O.co2     1 ADP402      0.0000 
      3 O2B       -16.6450    4.9590  107.0010 O.co2     1 ADP402      0.0000 
      4 O3B       -17.6980    6.2670  105.0880 O.co2     1 ADP402      0.0000 
      5 PA        -16.2980    8.2480  106.6970 P.3       1 ADP402      0.0000 
      6 O1A       -16.6470    9.1930  105.5740 O.co2     1 ADP402      0.0000 
      7 O2A       -17.3600    7.7480  107.6520 O.co2     1 ADP402      0.0000 
      8 O3A       -15.5680    6.9600  106.0710 O.3       1 ADP402      0.0000 
      9 O5'       -15.1010    8.8790  107.5660 O.3       1 ADP402      0.0000 
     10 C5'       -15.2150    8.9970  108.9810 C.3       1 ADP402      0.0000 
     11 C4'       -13.8250    9.2870  109.5260 C.3       1 ADP402      0.0000 
     12 O4'       -13.4700   10.6320  109.2050 O.3       1 ADP402      0.0000 
     13 C3'       -13.7360    9.1400  111.0350 C.3       1 ADP402      0.0000 
     14 O3'       -13.0060    7.9520  111.3520 O.3       1 ADP402      0.0000 
     15 C2'       -13.0030   10.3760  111.5310 C.3       1 ADP402      0.0000 
     16 O2'       -11.7400   10.0210  112.0980 O.3       1 ADP402      0.0000 
     17 C1'       -12.7850   11.2430  110.2980 C.3       1 ADP402      0.0000 
     18 N9        -13.3090   12.6180  110.5080 N.pl3     1 ADP402      0.0000 
     19 C8        -14.5890   12.9560  110.7620 C.2       1 ADP402      0.0000 
     20 N7        -14.7120   14.3010  110.8970 N.2       1 ADP402      0.0000 
     21 C5        -13.4950   14.8490  110.7220 C.ar      1 ADP402      0.0000 
     22 C6        -12.9170   16.2160  110.7400 C.ar      1 ADP402      0.0000 
     23 N6        -13.6880   17.3090  110.9650 N.pl3     1 ADP402      0.0000 
     24 N1        -11.5920   16.3350  110.5090 N.ar      1 ADP402      0.0000 
     25 C2        -10.8160   15.2620  110.2800 C.ar      1 ADP402      0.0000 
     26 N3        -11.2670   13.9980  110.2560 N.ar      1 ADP402      0.0000 
     27 C4        -12.5740   13.7310  110.4750 C.ar      1 ADP402      0.0000 
@<TRIPOS>BOND
     1    1    2 ar   
     2    1    3 ar   
     3    1    4 ar   
     4    1    8 1    
     5    5    6 ar   
     6    5    7 ar   
     7    5    8 1    
     8    5    9 1    
     9    9   10 1    
    10   10   11 1    
    11   11   12 1    
    12   11   13 1    
    13   12   17 1    
    14   13   14 1    
    15   13   15 1    
    16   15   16 1    
    17   15   17 1    
    18   17   18 1    
    19   18   19 1    
    20   18   27 1    
    21   19   20 2    
    22   20   21 1    
    23   21   22 ar   
    24   21   27 ar   
    25   22   23 1    
    26   22   24 ar   
    27   24   25 ar   
    28   25   26 ar   
    29   26   27 ar   
@<TRIPOS>SUBSTRUCTURE
     1 ADP402      1 GROUP   
@<TRIPOS>SET
ATOM$ORANGE STATIC     ATOMS   COLORGROUP SYSTEM 
20 10 10 11 11 13 13 15 15 17 17 19 19 21 21 22 22 25 \
25 27 27 

