#    Name: 6bno_6_ADP
#    Modification time : Fri May 22 19:25:11 2020

@<TRIPOS>MOLECULE
6bno_6_ADP
   27    29     1     0     1
SMALL
NO_CHARGES


@<TRIPOS>ATOM
      1 PB        -12.1080   12.4500   49.4440 P.3       1 ADP402      0.0000 
      2 O1B       -11.6660   11.4000   48.4580 O.co2     1 ADP402      0.0000 
      3 O2B       -12.6060   11.9040   50.7620 O.co2     1 ADP402      0.0000 
      4 O3B       -12.9590   13.5470   48.8480 O.co2     1 ADP402      0.0000 
      5 PA        -10.8180   14.6870   50.4580 P.3       1 ADP402      0.0000 
      6 O1A       -10.7060   15.6890   49.3350 O.co2     1 ADP402      0.0000 
      7 O2A       -11.9930   14.7170   51.4130 O.co2     1 ADP402      0.0000 
      8 O3A       -10.7440   13.2090   49.8300 O.3       1 ADP402      0.0000 
      9 O5'        -9.4660   14.7130   51.3280 O.3       1 ADP402      0.0000 
     10 C5'        -9.5140   14.8700   52.7420 C.3       1 ADP402      0.0000 
     11 C4'        -8.1430   14.5050   53.2870 C.3       1 ADP402      0.0000 
     12 O4'        -7.2210   15.5460   52.9660 O.3       1 ADP402      0.0000 
     13 C3'        -8.1300   14.3320   54.7960 C.3       1 ADP402      0.0000 
     14 O3'        -8.0100   12.9420   55.1120 O.3       1 ADP402      0.0000 
     15 C2'        -6.9200   15.1080   55.2920 C.3       1 ADP402      0.0000 
     16 O2'        -5.9520   14.2230   55.8590 O.3       1 ADP402      0.0000 
     17 C1'        -6.3350   15.7830   54.0590 C.3       1 ADP402      0.0000 
     18 N9         -6.1870   17.2480   54.2700 N.pl3     1 ADP402      0.0000 
     19 C8         -7.1770   18.1240   54.5240 C.2       1 ADP402      0.0000 
     20 N7         -6.6840   19.3830   54.6600 N.2       1 ADP402      0.0000 
     21 C5         -5.3500   19.3240   54.4830 C.ar      1 ADP402      0.0000 
     22 C6         -4.2210   20.2870   54.5010 C.ar      1 ADP402      0.0000 
     23 N6         -4.4160   21.6090   54.7270 N.pl3     1 ADP402      0.0000 
     24 N1         -2.9830   19.7990   54.2700 N.ar      1 ADP402      0.0000 
     25 C2         -2.7700   18.4900   54.0420 C.ar      1 ADP402      0.0000 
     26 N3         -3.7420   17.5640   54.0170 N.ar      1 ADP402      0.0000 
     27 C4         -5.0280   17.9120   54.2380 C.ar      1 ADP402      0.0000 
@<TRIPOS>BOND
     1    1    2 ar   
     2    1    3 ar   
     3    1    4 ar   
     4    1    8 1    
     5    5    6 ar   
     6    5    7 ar   
     7    5    8 1    
     8    5    9 1    
     9    9   10 1    
    10   10   11 1    
    11   11   12 1    
    12   11   13 1    
    13   12   17 1    
    14   13   14 1    
    15   13   15 1    
    16   15   16 1    
    17   15   17 1    
    18   17   18 1    
    19   18   19 1    
    20   18   27 1    
    21   19   20 2    
    22   20   21 1    
    23   21   22 ar   
    24   21   27 ar   
    25   22   23 1    
    26   22   24 ar   
    27   24   25 ar   
    28   25   26 ar   
    29   26   27 ar   
@<TRIPOS>SUBSTRUCTURE
     1 ADP402      1 GROUP   
@<TRIPOS>SET
ATOM$ORANGE STATIC     ATOMS   COLORGROUP SYSTEM 
20 10 10 11 11 13 13 15 15 17 17 19 19 21 21 22 22 25 \
25 27 27 

