#    Name: 6bno_3_ADP
#    Modification time : Fri May 22 19:24:48 2020

@<TRIPOS>MOLECULE
6bno_3_ADP
   27    29     1     0     1
SMALL
NO_CHARGES


@<TRIPOS>ATOM
      1 PB          1.2230  -17.3960  -34.8980 P.3       1 ADP402      0.0000 
      2 O1B         1.5620  -16.3060  -35.8840 O.co2     1 ADP402      0.0000 
      3 O2B         1.9560  -17.2980  -33.5810 O.co2     1 ADP402      0.0000 
      4 O3B         1.1680  -18.7830  -35.4950 O.co2     1 ADP402      0.0000 
      5 PA         -1.2040  -18.2740  -33.8860 P.3       1 ADP402      0.0000 
      6 O1A        -1.9350  -18.9690  -35.0100 O.co2     1 ADP402      0.0000 
      7 O2A        -0.3250  -19.0540  -32.9300 O.co2     1 ADP402      0.0000 
      8 O3A        -0.3070  -17.0980  -34.5130 O.3       1 ADP402      0.0000 
      9 O5'        -2.2550  -17.4250  -33.0180 O.3       1 ADP402      0.0000 
     10 C5'        -2.3200  -17.5750  -31.6030 C.3       1 ADP402      0.0000 
     11 C4'        -3.1350  -16.4120  -31.0590 C.3       1 ADP402      0.0000 
     12 O4'        -4.5100  -16.6160  -31.3800 O.3       1 ADP402      0.0000 
     13 C3'        -3.0350  -16.2720  -29.5480 C.3       1 ADP402      0.0000 
     14 O3'        -2.2310  -15.1310  -29.2320 O.3       1 ADP402      0.0000 
     15 C2'        -4.4590  -16.0850  -29.0540 C.3       1 ADP402      0.0000 
     16 O2'        -4.6310  -14.7840  -28.4880 O.3       1 ADP402      0.0000 
     17 C1'        -5.3410  -16.2250  -30.2880 C.3       1 ADP402      0.0000 
     18 N9         -6.3990  -17.2500  -30.0770 N.pl3     1 ADP402      0.0000 
     19 C8         -6.2060  -18.5580  -29.8230 C.2       1 ADP402      0.0000 
     20 N7         -7.3940  -19.2020  -29.6880 N.2       1 ADP402      0.0000 
     21 C5         -8.3770  -18.2990  -29.8640 C.ar      1 ADP402      0.0000 
     22 C6         -9.8610  -18.3070  -29.8480 C.ar      1 ADP402      0.0000 
     23 N6        -10.5630  -19.4450  -29.6210 N.pl3     1 ADP402      0.0000 
     24 N1        -10.4930  -17.1360  -30.0790 N.ar      1 ADP402      0.0000 
     25 C2         -9.8110  -16.0000  -30.3080 C.ar      1 ADP402      0.0000 
     26 N3         -8.4730  -15.9150  -30.3320 N.ar      1 ADP402      0.0000 
     27 C4         -7.7120  -17.0120  -30.1120 C.ar      1 ADP402      0.0000 
@<TRIPOS>BOND
     1    1    2 ar   
     2    1    3 ar   
     3    1    4 ar   
     4    1    8 1    
     5    5    6 ar   
     6    5    7 ar   
     7    5    8 1    
     8    5    9 1    
     9    9   10 1    
    10   10   11 1    
    11   11   12 1    
    12   11   13 1    
    13   12   17 1    
    14   13   14 1    
    15   13   15 1    
    16   15   16 1    
    17   15   17 1    
    18   17   18 1    
    19   18   19 1    
    20   18   27 1    
    21   19   20 2    
    22   20   21 1    
    23   21   22 ar   
    24   21   27 ar   
    25   22   23 1    
    26   22   24 ar   
    27   24   25 ar   
    28   25   26 ar   
    29   26   27 ar   
@<TRIPOS>SUBSTRUCTURE
     1 ADP402      1 GROUP   
@<TRIPOS>SET
ATOM$ORANGE STATIC     ATOMS   COLORGROUP SYSTEM 
20 10 10 11 11 13 13 15 15 17 17 19 19 21 21 22 22 25 \
25 27 27 

