#    Name: 6bno_4_ADP
#    Modification time : Fri May 22 19:24:56 2020

@<TRIPOS>MOLECULE
6bno_4_ADP
   27    29     1     0     1
SMALL
NO_CHARGES


@<TRIPOS>ATOM
      1 PB         -5.2000   16.5780   -6.7880 P.3       1 ADP402      0.0000 
      2 O1B        -5.2770   15.4390   -7.7740 O.co2     1 ADP402      0.0000 
      3 O2B        -5.8910   16.3120   -5.4710 O.co2     1 ADP402      0.0000 
      4 O3B        -5.4680   17.9400   -7.3840 O.co2     1 ADP402      0.0000 
      5 PA         -3.0430   17.9950   -5.7740 P.3       1 ADP402      0.0000 
      6 O1A        -2.4920   18.8400   -6.8970 O.co2     1 ADP402      0.0000 
      7 O2A        -4.0780   18.5490   -4.8190 O.co2     1 ADP402      0.0000 
      8 O3A        -3.6420   16.6430   -6.4020 O.3       1 ADP402      0.0000 
      9 O5'        -1.8230   17.4110   -4.9040 O.3       1 ADP402      0.0000 
     10 C5'        -1.7960   17.5710   -3.4900 C.3       1 ADP402      0.0000 
     11 C4'        -0.7340   16.6280   -2.9460 C.3       1 ADP402      0.0000 
     12 O4'         0.5570   17.1450   -3.2660 O.3       1 ADP402      0.0000 
     13 C3'        -0.8000   16.4680   -1.4360 C.3       1 ADP402      0.0000 
     14 O3'        -1.3170   15.1730   -1.1210 O.3       1 ADP402      0.0000 
     15 C2'         0.6300   16.6160   -0.9410 C.3       1 ADP402      0.0000 
     16 O2'         1.0970   15.3910   -0.3750 O.3       1 ADP402      0.0000 
     17 C1'         1.4550   16.9570   -2.1730 C.3       1 ADP402      0.0000 
     18 N9          2.2470   18.1990   -1.9630 N.pl3     1 ADP402      0.0000 
     19 C8          1.7560   19.4270   -1.7090 C.2       1 ADP402      0.0000 
     20 N7          2.7620   20.3290   -1.5730 N.2       1 ADP402      0.0000 
     21 C5          3.9270   19.6780   -1.7490 C.ar      1 ADP402      0.0000 
     22 C6          5.3690   20.0300   -1.7300 C.ar      1 ADP402      0.0000 
     23 N6          5.7890   21.2990   -1.5050 N.pl3     1 ADP402      0.0000 
     24 N1          6.2540   19.0370   -1.9630 N.ar      1 ADP402      0.0000 
     25 C2          5.8560   17.7730   -2.1930 C.ar      1 ADP402      0.0000 
     26 N3          4.5730   17.3820   -2.2170 N.ar      1 ADP402      0.0000 
     27 C4          3.5800   18.2720   -1.9960 C.ar      1 ADP402      0.0000 
@<TRIPOS>BOND
     1    1    2 ar   
     2    1    3 ar   
     3    1    4 ar   
     4    1    8 1    
     5    5    6 ar   
     6    5    7 ar   
     7    5    8 1    
     8    5    9 1    
     9    9   10 1    
    10   10   11 1    
    11   11   12 1    
    12   11   13 1    
    13   12   17 1    
    14   13   14 1    
    15   13   15 1    
    16   15   16 1    
    17   15   17 1    
    18   17   18 1    
    19   18   19 1    
    20   18   27 1    
    21   19   20 2    
    22   20   21 1    
    23   21   22 ar   
    24   21   27 ar   
    25   22   23 1    
    26   22   24 ar   
    27   24   25 ar   
    28   25   26 ar   
    29   26   27 ar   
@<TRIPOS>SUBSTRUCTURE
     1 ADP402      1 GROUP   
@<TRIPOS>SET
ATOM$ORANGE STATIC     ATOMS   COLORGROUP SYSTEM 
20 10 10 11 11 13 13 15 15 17 17 19 19 21 21 22 22 25 \
25 27 27 

