#    Name: 6bno_1_ADP
#    Modification time : Fri May 22 19:24:34 2020

@<TRIPOS>MOLECULE
6bno_1_ADP
   27    29     1     0     1
SMALL
NO_CHARGES


@<TRIPOS>ATOM
      1 PB         -6.6730  -16.0520  -91.1240 P.3       1 ADP402      0.0000 
      2 O1B        -5.8810  -15.2290  -92.1080 O.co2     1 ADP402      0.0000 
      3 O2B        -5.9740  -16.2950  -89.8060 O.co2     1 ADP402      0.0000 
      4 O3B        -7.3450  -17.2660  -91.7210 O.co2     1 ADP402      0.0000 
      5 PA         -9.2370  -15.7480  -90.1110 P.3       1 ADP402      0.0000 
      6 O1A       -10.2020  -16.0390  -91.2350 O.co2     1 ADP402      0.0000 
      7 O2A        -8.8010  -16.8390  -89.1560 O.co2     1 ADP402      0.0000 
      8 O3A        -7.9070  -15.0990  -90.7360 O.3       1 ADP402      0.0000 
      9 O5'        -9.7940  -14.5160  -89.2410 O.3       1 ADP402      0.0000 
     10 C5'        -9.9190  -14.6230  -87.8250 C.3       1 ADP402      0.0000 
     11 C4'       -10.1240  -13.2180  -87.2820 C.3       1 ADP402      0.0000 
     12 O4'       -11.4440  -12.7820  -87.6010 O.3       1 ADP402      0.0000 
     13 C3'        -9.9710  -13.1390  -85.7710 C.3       1 ADP402      0.0000 
     14 O3'        -8.7410  -12.4810  -85.4550 O.3       1 ADP402      0.0000 
     15 C2'       -11.1610  -12.3340  -85.2760 C.3       1 ADP402      0.0000 
     16 O2'       -10.7310  -11.0950  -84.7090 O.3       1 ADP402      0.0000 
     17 C1'       -12.0120  -12.0620  -86.5090 C.3       1 ADP402      0.0000 
     18 N9        -13.4170  -12.5020  -86.2980 N.pl3     1 ADP402      0.0000 
     19 C8        -13.8310  -13.7580  -86.0460 C.2       1 ADP402      0.0000 
     20 N7        -15.1830  -13.8010  -85.9100 N.2       1 ADP402      0.0000 
     21 C5        -15.6560  -12.5510  -86.0850 C.ar      1 ADP402      0.0000 
     22 C6        -16.9860  -11.8940  -86.0680 C.ar      1 ADP402      0.0000 
     23 N6        -18.1230  -12.5960  -85.8420 N.pl3     1 ADP402      0.0000 
     24 N1        -17.0240  -10.5620  -86.2990 N.ar      1 ADP402      0.0000 
     25 C2        -15.9050   -9.8520  -86.5270 C.ar      1 ADP402      0.0000 
     26 N3        -14.6710  -10.3800  -86.5520 N.ar      1 ADP402      0.0000 
     27 C4        -14.4840  -11.7010  -86.3320 C.ar      1 ADP402      0.0000 
@<TRIPOS>BOND
     1    1    2 ar   
     2    1    3 ar   
     3    1    4 ar   
     4    1    8 1    
     5    5    6 ar   
     6    5    7 ar   
     7    5    8 1    
     8    5    9 1    
     9    9   10 1    
    10   10   11 1    
    11   11   12 1    
    12   11   13 1    
    13   12   17 1    
    14   13   14 1    
    15   13   15 1    
    16   15   16 1    
    17   15   17 1    
    18   17   18 1    
    19   18   19 1    
    20   18   27 1    
    21   19   20 2    
    22   20   21 1    
    23   21   22 ar   
    24   21   27 ar   
    25   22   23 1    
    26   22   24 ar   
    27   24   25 ar   
    28   25   26 ar   
    29   26   27 ar   
@<TRIPOS>SUBSTRUCTURE
     1 ADP402      1 GROUP   
@<TRIPOS>SET
ATOM$ORANGE STATIC     ATOMS   COLORGROUP SYSTEM 
20 10 10 11 11 13 13 15 15 17 17 19 19 21 21 22 22 25 \
25 27 27 

