#    Name: 5nlm_1_IOS_CAVITY_N1_6
#    Modification time : Fri May 22 19:18:14 2020

@<TRIPOS>MOLECULE
5nlm_1_IOS_CAVITY_N1_6
   95     0     7     0     0
SMALL
NO_CHARGES


@<TRIPOS>ATOM
      1 OG        -23.0100   40.5700    1.0300 O.3       1 SER1        0.0000 
      2 OG        -21.7300   39.8000    1.1800 O.3       1 SER1        0.0000 
      3 OG        -22.1000   39.4600    2.5900 O.3       1 SER1        0.0000 
      4 OG        -23.2300   42.9200   -0.0500 O.3       1 SER1        0.0000 
      5 OG        -21.9500   42.1500    0.1000 O.3       1 SER1        0.0000 
      6 OG        -21.0400   41.0400    1.6600 O.3       1 SER1        0.0000 
      7 OG        -21.4100   40.7000    3.0700 O.3       1 SER1        0.0000 
      8 OG        -21.7800   40.3600    4.4900 O.3       1 SER1        0.0000 
      9 OG        -22.5400   44.1600    0.4300 O.3       1 SER1        0.0000 
     10 OG        -21.2600   43.3900    0.5800 O.3       1 SER1        0.0000 
     11 OG        -21.6300   43.0500    1.9900 O.3       1 SER1        0.0000 
     12 OG        -20.3500   42.2800    2.1400 O.3       1 SER1        0.0000 
     13 OG        -20.7200   41.9400    3.5500 O.3       1 SER1        0.0000 
     14 OG        -21.0900   41.6000    4.9700 O.3       1 SER1        0.0000 
     15 OG        -20.9300   44.2900    2.4700 O.3       1 SER1        0.0000 
     16 OG        -18.7900   42.9700    7.4900 O.3       1 SER1        0.0000 
     17 N         -22.1500   40.0200    5.9000 N.am      2 ALA2        0.0000 
     18 N         -22.5200   39.6800    7.3100 N.am      2 ALA2        0.0000 
     19 N         -22.1700   44.5000   -0.9800 N.am      2 ALA2        0.0000 
     20 N         -22.7400   42.0300    6.2300 N.am      2 ALA2        0.0000 
     21 N         -21.4600   41.2600    6.3800 N.am      2 ALA2        0.0000 
     22 N         -21.8400   45.4000    0.9100 N.am      2 ALA2        0.0000 
     23 O         -21.3500   44.5100    7.1900 O.2       2 ALA2        0.0000 
     24 OD1       -19.5500   37.9200    2.8900 O.co2     3 ASP3        0.0000 
     25 OD1       -18.6400   36.8000    4.4500 O.co2     3 ASP3        0.0000 
     26 NZ        -21.1500   37.7900    0.8500 N.4       4 LYS4        0.0000 
     27 NZ        -21.5200   37.4500    2.2600 N.4       4 LYS4        0.0000 
     28 NZ        -19.5000   37.3600   -0.4200 N.4       4 LYS4        0.0000 
     29 NZ        -20.6200   40.8200   -3.0600 N.4       4 LYS4        0.0000 
     30 NZ        -20.9900   40.4800   -1.6500 N.4       4 LYS4        0.0000 
     31 NZ        -19.7200   39.7100   -1.5000 N.4       4 LYS4        0.0000 
     32 NZ        -20.3000   41.7200   -1.1700 N.4       4 LYS4        0.0000 
     33 NZ        -20.6700   41.3800    0.2500 N.4       4 LYS4        0.0000 
     34 NZ        -20.8900   43.7300   -0.8300 N.4       4 LYS4        0.0000 
     35 NZ        -19.9800   42.6200    0.7300 N.4       4 LYS4        0.0000 
     36 CZ        -21.1000   37.2300   -2.4600 C.ar      5 PHE5        0.0000 
     37 CZ        -21.4700   36.8900   -1.0400 C.ar      5 PHE5        0.0000 
     38 CZ        -23.3300   39.6700   -0.8600 C.ar      5 PHE5        0.0000 
     39 CZ        -22.0600   38.9000   -0.7100 C.ar      5 PHE5        0.0000 
     40 CZ        -22.4300   38.5600    0.7000 C.ar      5 PHE5        0.0000 
     41 CZ        -20.7800   38.1300   -0.5600 C.ar      5 PHE5        0.0000 
     42 CZ        -19.2200   38.8200    4.7800 C.ar      5 PHE5        0.0000 
     43 CZ        -17.9500   38.0500    4.9300 C.ar      5 PHE5        0.0000 
     44 CZ        -22.3700   42.3700    4.8200 C.ar      5 PHE5        0.0000 
     45 CZ        -19.4400   41.1700    3.7000 C.ar      5 PHE5        0.0000 
     46 CZ        -19.8100   40.8300    5.1200 C.ar      5 PHE5        0.0000 
     47 CZ        -18.5300   40.0600    5.2700 C.ar      5 PHE5        0.0000 
     48 CZ        -18.9000   39.7200    6.6800 C.ar      5 PHE5        0.0000 
     49 CZ        -22.2100   45.0600    2.3200 C.ar      5 PHE5        0.0000 
     50 CZ        -21.3000   43.9500    3.8900 C.ar      5 PHE5        0.0000 
     51 CZ        -21.6700   43.6100    5.3000 C.ar      5 PHE5        0.0000 
     52 CZ        -18.7500   42.4100    4.1800 C.ar      5 PHE5        0.0000 
     53 CZ        -19.1200   42.0700    5.6000 C.ar      5 PHE5        0.0000 
     54 CA        -20.7300   37.5700   -3.8700 C.3       6 GLY6        0.0000 
     55 CA        -19.8200   36.4600   -2.3100 C.3       6 GLY6        0.0000 
     56 CA        -21.3200   39.5800   -3.5400 C.3       6 GLY6        0.0000 
     57 CA        -21.6900   39.2400   -2.1300 C.3       6 GLY6        0.0000 
     58 CA        -22.8000   38.2200    2.1100 C.3       6 GLY6        0.0000 
     59 CA        -20.0400   38.8100   -3.3900 C.3       6 GLY6        0.0000 
     60 CA        -19.1300   37.7000   -1.8300 C.3       6 GLY6        0.0000 
     61 CA        -21.9000   41.5900   -3.2100 C.3       6 GLY6        0.0000 
     62 CA        -22.2700   41.2500   -1.7900 C.3       6 GLY6        0.0000 
     63 CA        -22.6400   40.9100   -0.3800 C.3       6 GLY6        0.0000 
     64 CA        -22.4700   39.1200    4.0100 C.3       6 GLY6        0.0000 
     65 CA        -20.0900   39.3700   -0.0800 C.3       6 GLY6        0.0000 
     66 CA        -20.4600   39.0300    1.3300 C.3       6 GLY6        0.0000 
     67 CA        -21.1900   38.3500    4.1600 C.3       6 GLY6        0.0000 
     68 CA        -21.5600   38.0100    5.5700 C.3       6 GLY6        0.0000 
     69 CA        -19.9200   37.5800    4.3000 C.3       6 GLY6        0.0000 
     70 CA        -22.8600   43.2600   -1.4600 C.3       6 GLY6        0.0000 
     71 CA        -21.5800   42.4900   -1.3100 C.3       6 GLY6        0.0000 
     72 CA        -19.7600   40.2700    1.8100 C.3       6 GLY6        0.0000 
     73 CA        -20.1300   39.9300    3.2200 C.3       6 GLY6        0.0000 
     74 CA        -20.8700   39.2500    6.0500 C.3       6 GLY6        0.0000 
     75 CA        -21.2400   38.9100    7.4600 C.3       6 GLY6        0.0000 
     76 CA        -18.8500   39.1600    3.3700 C.3       6 GLY6        0.0000 
     77 CA        -19.5900   38.4800    6.2000 C.3       6 GLY6        0.0000 
     78 CA        -19.0700   41.5100    2.2900 C.3       6 GLY6        0.0000 
     79 CA        -22.0400   43.2700    6.7100 C.3       6 GLY6        0.0000 
     80 CA        -20.6100   45.1900    4.3700 C.3       6 GLY6        0.0000 
     81 CA        -20.9800   44.8500    5.7800 C.3       6 GLY6        0.0000 
     82 DU        -20.4100   38.4700   -1.9800 H         7 CUB7        0.0000 
     83 DU        -21.3600   40.1400   -0.2300 H         7 CUB7        0.0000 
     84 DU        -20.8200   38.6900    2.7400 H         7 CUB7        0.0000 
     85 DU        -20.5000   39.5900    4.6400 H         7 CUB7        0.0000 
     86 DU        -20.1800   40.4900    6.5300 H         7 CUB7        0.0000 
     87 DU        -19.6600   43.5200    2.6200 H         7 CUB7        0.0000 
     88 DU        -20.0300   43.1800    4.0300 H         7 CUB7        0.0000 
     89 DU        -20.4000   42.8400    5.4500 H         7 CUB7        0.0000 
     90 DU        -20.7700   42.5000    6.8600 H         7 CUB7        0.0000 
     91 DU        -19.4900   41.7300    7.0100 H         7 CUB7        0.0000 
     92 DU        -20.2400   45.5300    2.9500 H         7 CUB7        0.0000 
     93 DU        -19.7000   44.0800    5.9300 H         7 CUB7        0.0000 
     94 DU        -20.0700   43.7400    7.3400 H         7 CUB7        0.0000 
     95 DU        -19.0100   45.3200    6.4100 H         7 CUB7        0.0000 
@<TRIPOS>BOND
@<TRIPOS>SUBSTRUCTURE
     1 SER1        1 GROUP   
     2 ALA2       17 GROUP   
     3 ASP3       24 GROUP   
     4 LYS4       26 GROUP   
     5 PHE5       36 GROUP   
     6 GLY6       54 GROUP   
     7 CUB7       82 GROUP   
@<TRIPOS>SET

