#    Name: 5nlm_2_IOS
#    Modification time : Fri May 22 19:18:19 2020

@<TRIPOS>MOLECULE
5nlm_2_IOS
   20    21     1     0     0
SMALL
NO_CHARGES


@<TRIPOS>ATOM
      1 O1        -39.0260   89.6450   16.3970 O.3       1 IOS1000     0.0000 
      2 N1        -40.3200   91.4090   19.2030 N.pl3     1 IOS1000     0.0000 
      3 C1        -40.1500   91.2880   17.8990 C.2       1 IOS1000     0.0000 
      4 C2        -39.4190   90.1350   17.6470 C.2       1 IOS1000     0.0000 
      5 C3        -39.1510   89.5550   18.9020 C.ar      1 IOS1000     0.0000 
      6 C4        -38.4690   88.4030   19.3160 C.ar      1 IOS1000     0.0000 
      7 C5        -38.3790   88.1000   20.6670 C.ar      1 IOS1000     0.0000 
      8 C6        -38.9650   88.9370   21.6110 C.ar      1 IOS1000     0.0000 
      9 C7        -39.6410   90.0760   21.2030 C.ar      1 IOS1000     0.0000 
     10 C8        -39.7330   90.3850   19.8360 C.ar      1 IOS1000     0.0000 
     11 S         -37.4150   89.7600   16.0440 S.o2      1 IOS1000     0.0000 
     12 O2        -36.8140   88.4020   15.7700 O.co2     1 IOS1000     0.0000 
     13 O3        -37.2010   90.6990   14.8810 O.co2     1 IOS1000     0.0000 
     14 O4        -36.6190   90.1950   17.2520 O.co2     1 IOS1000     0.0000 
     15 H1        -40.7440   92.0500   19.5890 H         1 IOS1000     0.0000 
     16 HA        -40.4690   91.8790   17.2550 H         1 IOS1000     0.0000 
     17 H4        -38.0770   87.8430   18.6860 H         1 IOS1000     0.0000 
     18 H5        -37.9270   87.3360   20.9430 H         1 IOS1000     0.0000 
     19 H6        -38.9040   88.7320   22.5160 H         1 IOS1000     0.0000 
     20 H7        -40.0330   90.6360   21.8330 H         1 IOS1000     0.0000 
@<TRIPOS>BOND
     1    1    4 1    
     2    1   11 1    
     3    2    3 1    
     4    2   10 1    
     5    3    4 2    
     6    2   15 1    
     7    4    5 1    
     8    3   16 1    
     9    5    6 ar   
    10    5   10 ar   
    11    6    7 ar   
    12    7    8 ar   
    13    6   17 1    
    14    8    9 ar   
    15    7   18 1    
    16    9   10 ar   
    17    8   19 1    
    18   11   12 ar   
    19    9   20 1    
    20   11   13 ar   
    21   11   14 ar   
@<TRIPOS>SUBSTRUCTURE
     1 IOS1000     1 GROUP   
@<TRIPOS>SET

