#    Name: 5nlm_1_IOS
#    Modification time : Fri May 22 19:18:13 2020

@<TRIPOS>MOLECULE
5nlm_1_IOS
   20    21     1     0     0
SMALL
NO_CHARGES


@<TRIPOS>ATOM
      1 O1        -21.5190   39.5890    2.0600 O.3       1 IOS1000     0.0000 
      2 N1        -20.2380   37.1740   -0.2180 N.pl3     1 IOS1000     0.0000 
      3 C1        -20.5500   37.5490    1.0080 C.2       1 IOS1000     0.0000 
      4 C2        -21.0690   38.8370    0.9680 C.2       1 IOS1000     0.0000 
      5 C3        -21.0510   39.2250   -0.3870 C.ar      1 IOS1000     0.0000 
      6 C4        -21.4340   40.3860   -1.0750 C.ar      1 IOS1000     0.0000 
      7 C5        -21.2840   40.4580   -2.4540 C.ar      1 IOS1000     0.0000 
      8 C6        -20.7550   39.3790   -3.1550 C.ar      1 IOS1000     0.0000 
      9 C7        -20.3750   38.2310   -2.4770 C.ar      1 IOS1000     0.0000 
     10 C8        -20.5260   38.1560   -1.0820 C.ar      1 IOS1000     0.0000 
     11 S         -20.3680   40.4220    2.9090 S.o2      1 IOS1000     0.0000 
     12 O2        -20.9820   41.5350    3.7250 O.co2     1 IOS1000     0.0000 
     13 O3        -19.4690   41.2080    1.9840 O.co2     1 IOS1000     0.0000 
     14 O4        -19.5720   39.4800    3.7810 O.co2     1 IOS1000     0.0000 
     15 H1        -19.9000   36.4120   -0.4310 H         1 IOS1000     0.0000 
     16 HA        -20.4400   37.0350    1.7750 H         1 IOS1000     0.0000 
     17 H4        -21.7890   41.1070   -0.6080 H         1 IOS1000     0.0000 
     18 H5        -21.5390   41.2280   -2.9100 H         1 IOS1000     0.0000 
     19 H6        -20.6540   39.4290   -4.0780 H         1 IOS1000     0.0000 
     20 H7        -20.0200   37.5100   -2.9450 H         1 IOS1000     0.0000 
@<TRIPOS>BOND
     1    1    4 1    
     2    1   11 1    
     3    2    3 1    
     4    2   10 1    
     5    3    4 2    
     6    2   15 1    
     7    4    5 1    
     8    3   16 1    
     9    5    6 ar   
    10    5   10 ar   
    11    6    7 ar   
    12    7    8 ar   
    13    6   17 1    
    14    8    9 ar   
    15    7   18 1    
    16    9   10 ar   
    17    8   19 1    
    18   11   12 ar   
    19    9   20 1    
    20   11   13 ar   
    21   11   14 ar   
@<TRIPOS>SUBSTRUCTURE
     1 IOS1000     1 GROUP   
@<TRIPOS>SET

