#    Name: 6ew0_15_GDP
#    Modification time : Fri May 22 19:39:05 2020

@<TRIPOS>MOLECULE
6ew0_15_GDP
   28    30     1     0     1
SMALL
NO_CHARGES


@<TRIPOS>ATOM
      1 PB         69.0270   42.2640  182.8030 P.3       1 GDP502      0.0000 
      2 O1B        68.3130   41.8140  181.5880 O.co2     1 GDP502      0.0000 
      3 O2B        68.1970   42.1550  184.0720 O.co2     1 GDP502      0.0000 
      4 O3B        69.5660   43.6810  182.6970 O.co2     1 GDP502      0.0000 
      5 O3A        70.3050   41.3430  183.0190 O.3       1 GDP502      0.0000 
      6 PA         71.7110   41.3770  182.2770 P.3       1 GDP502      0.0000 
      7 O1A        71.5680   42.3150  181.0900 O.co2     1 GDP502      0.0000 
      8 O2A        72.7360   41.8880  183.2030 O.co2     1 GDP502      0.0000 
      9 O5'        72.0200   39.9320  181.7260 O.3       1 GDP502      0.0000 
     10 C5'        72.9740   39.0070  182.2830 C.3       1 GDP502      0.0000 
     11 C4'        73.5270   38.1620  181.1650 C.3       1 GDP502      0.0000 
     12 O4'        74.2370   39.0070  180.2350 O.3       1 GDP502      0.0000 
     13 C3'        74.5280   37.0970  181.5870 C.3       1 GDP502      0.0000 
     14 O3'        74.5010   35.9990  180.6830 O.3       1 GDP502      0.0000 
     15 C2'        75.8530   37.8490  181.5060 C.3       1 GDP502      0.0000 
     16 O2'        76.9410   36.9630  181.2780 O.3       1 GDP502      0.0000 
     17 C1'        75.6220   38.7200  180.2760 C.3       1 GDP502      0.0000 
     18 N9         76.3470   39.9900  180.3250 N.pl3     1 GDP502      0.0000 
     19 C8         76.2090   40.9940  181.2420 C.2       1 GDP502      0.0000 
     20 N7         76.9590   42.0380  180.9820 N.2       1 GDP502      0.0000 
     21 C5         77.6310   41.6920  179.8230 C.2       1 GDP502      0.0000 
     22 C6         78.5640   42.4180  179.0340 C.2       1 GDP502      0.0000 
     23 O6         78.9940   43.5490  179.2420 O.2       1 GDP502      0.0000 
     24 N1         78.9820   41.7030  177.9330 N.am      1 GDP502      0.0000 
     25 C2         78.5720   40.4410  177.6120 C.2       1 GDP502      0.0000 
     26 N2         79.0980   39.8920  176.5180 N.pl3     1 GDP502      0.0000 
     27 N3         77.6970   39.7520  178.3390 N.2       1 GDP502      0.0000 
     28 C4         77.2700   40.4310  179.4150 C.2       1 GDP502      0.0000 
@<TRIPOS>BOND
     1    1    2 ar   
     2    1    3 ar   
     3    1    4 ar   
     4    1    5 1    
     5    5    6 1    
     6    6    7 ar   
     7    6    8 ar   
     8    6    9 1    
     9    9   10 1    
    10   10   11 1    
    11   11   12 1    
    12   11   13 1    
    13   12   17 1    
    14   13   14 1    
    15   13   15 1    
    16   15   16 1    
    17   15   17 1    
    18   17   18 1    
    19   18   19 1    
    20   18   28 1    
    21   19   20 2    
    22   20   21 1    
    23   21   22 1    
    24   21   28 2    
    25   22   23 2    
    26   22   24 am   
    27   24   25 1    
    28   25   26 1    
    29   25   27 2    
    30   27   28 1    
@<TRIPOS>SUBSTRUCTURE
     1 GDP502      1 GROUP   
@<TRIPOS>SET
ATOM$ORANGE STATIC     ATOMS   COLORGROUP SYSTEM 
20 10 10 11 11 13 13 15 15 17 17 19 19 21 21 22 22 25 \
25 28 28 

