#    Name: 6ew0_10_GDP
#    Modification time : Fri May 22 19:38:30 2020

@<TRIPOS>MOLECULE
6ew0_10_GDP
   28    30     1     0     1
SMALL
NO_CHARGES


@<TRIPOS>ATOM
      1 PB         69.0060   42.2830  100.8630 P.3       1 GDP502      0.0000 
      2 O1B        68.2850   41.8100   99.6610 O.co2     1 GDP502      0.0000 
      3 O2B        68.1800   42.1990  102.1360 O.co2     1 GDP502      0.0000 
      4 O3B        69.5450   43.6980  100.7280 O.co2     1 GDP502      0.0000 
      5 O3A        70.2840   41.3660  101.0910 O.3       1 GDP502      0.0000 
      6 PA         71.6950   41.4040  100.3600 P.3       1 GDP502      0.0000 
      7 O1A        71.5580   42.3490   99.1790 O.co2     1 GDP502      0.0000 
      8 O2A        72.7120   41.9120  101.2960 O.co2     1 GDP502      0.0000 
      9 O5'        72.0160   39.9640   99.7980 O.3       1 GDP502      0.0000 
     10 C5'        73.0000   39.0570  100.3330 C.3       1 GDP502      0.0000 
     11 C4'        73.5370   38.2120   99.2070 C.3       1 GDP502      0.0000 
     12 O4'        74.2190   39.0590   98.2560 O.3       1 GDP502      0.0000 
     13 C3'        74.5580   37.1600   99.6120 C.3       1 GDP502      0.0000 
     14 O3'        74.5230   36.0580   98.7140 O.3       1 GDP502      0.0000 
     15 C2'        75.8730   37.9260   99.5000 C.3       1 GDP502      0.0000 
     16 O2'        76.9660   37.0520   99.2540 O.3       1 GDP502      0.0000 
     17 C1'        75.6070   38.7870   98.2700 C.3       1 GDP502      0.0000 
     18 N9         76.3190   40.0650   98.2990 N.pl3     1 GDP502      0.0000 
     19 C8         76.1320   41.0960   99.1760 C.2       1 GDP502      0.0000 
     20 N7         76.8850   42.1370   98.9180 N.2       1 GDP502      0.0000 
     21 C5         77.6100   41.7630   97.8000 C.2       1 GDP502      0.0000 
     22 C6         78.5600   42.4780   97.0250 C.2       1 GDP502      0.0000 
     23 O6         78.9740   43.6180   97.2180 O.2       1 GDP502      0.0000 
     24 N1         79.0170   41.7430   95.9540 N.am      1 GDP502      0.0000 
     25 C2         78.6310   40.4680   95.6530 C.2       1 GDP502      0.0000 
     26 N2         79.1850   39.9060   94.5790 N.pl3     1 GDP502      0.0000 
     27 N3         77.7460   39.7850   96.3720 N.2       1 GDP502      0.0000 
     28 C4         77.2760   40.4860   97.4160 C.2       1 GDP502      0.0000 
@<TRIPOS>BOND
     1    1    2 ar   
     2    1    3 ar   
     3    1    4 ar   
     4    1    5 1    
     5    5    6 1    
     6    6    7 ar   
     7    6    8 ar   
     8    6    9 1    
     9    9   10 1    
    10   10   11 1    
    11   11   12 1    
    12   11   13 1    
    13   12   17 1    
    14   13   14 1    
    15   13   15 1    
    16   15   16 1    
    17   15   17 1    
    18   17   18 1    
    19   18   19 1    
    20   18   28 1    
    21   19   20 2    
    22   20   21 1    
    23   21   22 1    
    24   21   28 2    
    25   22   23 2    
    26   22   24 am   
    27   24   25 1    
    28   25   26 1    
    29   25   27 2    
    30   27   28 1    
@<TRIPOS>SUBSTRUCTURE
     1 GDP502      1 GROUP   
@<TRIPOS>SET
ATOM$ORANGE STATIC     ATOMS   COLORGROUP SYSTEM 
20 10 10 11 11 13 13 15 15 17 17 19 19 21 21 22 22 25 \
25 28 28 

