#    Name: 6ew0_11_GTP
#    Modification time : Fri May 22 19:38:40 2020

@<TRIPOS>MOLECULE
6ew0_11_GTP
   32    34     1     0     1
SMALL
NO_CHARGES


@<TRIPOS>ATOM
      1 PG         37.6700  143.2720  162.4770 P.3       1 GTP501      0.0000 
      2 O1G        39.1660  143.5180  162.5940 O.co2     1 GTP501      0.0000 
      3 O2G        37.2650  141.9370  162.9650 O.co2     1 GTP501      0.0000 
      4 O3G        36.9270  144.4200  163.1440 O.co2     1 GTP501      0.0000 
      5 O3B        37.3360  143.3870  160.9270 O.3       1 GTP501      0.0000 
      6 PB         37.9370  142.5350  159.7280 P.3       1 GTP501      0.0000 
      7 O1B        37.0600  142.6770  158.4990 O.co2     1 GTP501      0.0000 
      8 O2B        39.3280  142.9510  159.4610 O.co2     1 GTP501      0.0000 
      9 O3A        37.9070  141.0170  160.1940 O.3       1 GTP501      0.0000 
     10 PA         38.5990  139.7560  159.5200 P.3       1 GTP501      0.0000 
     11 O1A        39.2210  140.2300  158.2200 O.co2     1 GTP501      0.0000 
     12 O2A        39.6370  139.2240  160.4190 O.co2     1 GTP501      0.0000 
     13 O5'        37.4350  138.7560  159.1670 O.3       1 GTP501      0.0000 
     14 C5'        37.3070  137.4150  159.6760 C.3       1 GTP501      0.0000 
     15 C4'        37.0410  136.5100  158.5030 C.3       1 GTP501      0.0000 
     16 O4'        38.2010  136.4870  157.6420 O.3       1 GTP501      0.0000 
     17 C3'        36.7380  135.0560  158.8540 C.3       1 GTP501      0.0000 
     18 O3'        35.7330  134.5390  157.9920 O.3       1 GTP501      0.0000 
     19 C2'        38.0810  134.3650  158.6220 C.3       1 GTP501      0.0000 
     20 O2'        37.9170  132.9980  158.2680 O.3       1 GTP501      0.0000 
     21 C1'        38.6050  135.1510  157.4300 C.3       1 GTP501      0.0000 
     22 N9         40.0670  135.1200  157.3140 N.pl3     1 GTP501      0.0000 
     23 C8         40.9840  135.4960  158.2550 C.2       1 GTP501      0.0000 
     24 N7         42.2220  135.3100  157.8710 N.2       1 GTP501      0.0000 
     25 C5         42.1080  134.7800  156.5970 C.2       1 GTP501      0.0000 
     26 C6         43.1000  134.3640  155.6660 C.2       1 GTP501      0.0000 
     27 O6         44.3170  134.3770  155.8220 O.2       1 GTP501      0.0000 
     28 N1         42.5510  133.8980  154.4910 N.am      1 GTP501      0.0000 
     29 C2         41.2140  133.8280  154.2250 C.2       1 GTP501      0.0000 
     30 N2         40.8570  133.3620  153.0300 N.pl3     1 GTP501      0.0000 
     31 N3         40.2770  134.2050  155.0900 N.2       1 GTP501      0.0000 
     32 C4         40.7880  134.6650  156.2420 C.2       1 GTP501      0.0000 
@<TRIPOS>BOND
     1    1    2 ar   
     2    1    3 ar   
     3    1    4 ar   
     4    1    5 1    
     5    5    6 1    
     6    6    7 ar   
     7    6    8 ar   
     8    6    9 1    
     9    9   10 1    
    10   10   11 ar   
    11   10   12 ar   
    12   10   13 1    
    13   13   14 1    
    14   14   15 1    
    15   15   16 1    
    16   15   17 1    
    17   16   21 1    
    18   17   18 1    
    19   17   19 1    
    20   19   20 1    
    21   19   21 1    
    22   21   22 1    
    23   22   23 1    
    24   22   32 1    
    25   23   24 2    
    26   24   25 1    
    27   25   26 1    
    28   25   32 2    
    29   26   27 2    
    30   26   28 am   
    31   28   29 1    
    32   29   30 1    
    33   29   31 2    
    34   31   32 1    
@<TRIPOS>SUBSTRUCTURE
     1 GTP501      1 GROUP   
@<TRIPOS>SET
ATOM$ORANGE STATIC     ATOMS   COLORGROUP SYSTEM 
20 14 14 15 15 17 17 19 19 21 21 23 23 25 25 26 26 29 \
29 32 32 

