#    Name: 6ew0_5_TA1
#    Modification time : Fri May 22 19:37:48 2020

@<TRIPOS>MOLECULE
6ew0_5_TA1
   62    68     1     0     0
SMALL
NO_CHARGES


@<TRIPOS>ATOM
      1 O01        64.6510   82.2510  177.5880 O.3       1 TA1501      0.0000 
      2 C01        64.8160   81.7010  176.2750 C.3       1 TA1501      0.0000 
      3 C02        64.2590   80.1900  176.2760 C.3       1 TA1501      0.0000 
      4 O02        63.1400   80.2360  177.1910 O.3       1 TA1501      0.0000 
      5 C03        63.2700   79.6540  178.3930 C.2       1 TA1501      0.0000 
      6 O03        64.2890   79.1490  178.7840 O.2       1 TA1501      0.0000 
      7 C04        62.0080   79.7060  179.1690 C.ar      1 TA1501      0.0000 
      8 C05        60.8610   80.2680  178.6200 C.ar      1 TA1501      0.0000 
      9 C06        59.6940   80.3400  179.3600 C.ar      1 TA1501      0.0000 
     10 C07        59.6590   79.8590  180.6520 C.ar      1 TA1501      0.0000 
     11 C08        60.7910   79.3020  181.2050 C.ar      1 TA1501      0.0000 
     12 C09        61.9600   79.2210  180.4700 C.ar      1 TA1501      0.0000 
     13 C10        63.8780   79.5420  174.8680 C.3       1 TA1501      0.0000 
     14 C11        62.4240   78.8150  174.8170 C.3       1 TA1501      0.0000 
     15 O04        61.3650   79.7940  175.0530 O.3       1 TA1501      0.0000 
     16 C12        61.0190   80.7810  174.1870 C.2       1 TA1501      0.0000 
     17 O05        61.5200   80.9570  173.1140 O.2       1 TA1501      0.0000 
     18 C13        59.9320   81.6070  174.7810 C.3       1 TA1501      0.0000 
     19 C14        62.0610   77.6190  175.7190 C.3       1 TA1501      0.0000 
     20 O06        61.4610   76.9220  174.6270 O.3       1 TA1501      0.0000 
     21 C15        62.1330   77.8050  173.6890 C.3       1 TA1501      0.0000 
     22 C16        63.2980   77.1510  172.9950 C.3       1 TA1501      0.0000 
     23 C17        64.4170   78.1600  172.8000 C.3       1 TA1501      0.0000 
     24 O07        65.4450   77.5600  172.0110 O.3       1 TA1501      0.0000 
     25 C18        65.0030   78.6940  174.1280 C.3       1 TA1501      0.0000 
     26 C19        65.6120   77.5710  174.9790 C.3       1 TA1501      0.0000 
     27 C20        66.2650   79.3710  173.5610 C.2       1 TA1501      0.0000 
     28 O08        67.1190   78.6120  173.1750 O.2       1 TA1501      0.0000 
     29 C21        66.6550   80.9030  173.3940 C.3       1 TA1501      0.0000 
     30 O09        68.0680   80.8600  173.0320 O.3       1 TA1501      0.0000 
     31 C22        68.4140   81.0740  171.7460 C.2       1 TA1501      0.0000 
     32 O10        67.6140   81.2320  170.8720 O.2       1 TA1501      0.0000 
     33 C23        69.8940   81.0840  171.5850 C.3       1 TA1501      0.0000 
     34 C24        66.4000   82.0110  174.4210 C.2       1 TA1501      0.0000 
     35 C25        65.8980   83.1720  173.9930 C.2       1 TA1501      0.0000 
     36 C26        64.4790   83.5290  174.3820 C.3       1 TA1501      0.0000 
     37 O11        63.4880   83.7130  173.3380 O.3       1 TA1501      0.0000 
     38 C27        63.2080   84.9840  173.0340 C.2       1 TA1501      0.0000 
     39 O12        63.8610   85.9270  173.3830 O.2       1 TA1501      0.0000 
     40 C28        61.9310   85.1030  172.2710 C.3       1 TA1501      0.0000 
     41 O13        61.9650   86.2940  171.5080 O.3       1 TA1501      0.0000 
     42 C29        60.8120   85.1840  173.2970 C.3       1 TA1501      0.0000 
     43 N01        61.0720   86.2750  174.2310 N.am      1 TA1501      0.0000 
     44 C30        61.3630   86.0120  175.5110 C.2       1 TA1501      0.0000 
     45 O14        61.3340   84.8710  175.9540 O.2       1 TA1501      0.0000 
     46 C31        61.7950   87.1530  176.3720 C.ar      1 TA1501      0.0000 
     47 C32        63.0780   87.6700  176.2300 C.ar      1 TA1501      0.0000 
     48 C33        63.5410   88.6430  177.0980 C.ar      1 TA1501      0.0000 
     49 C34        62.7290   89.1180  178.1060 C.ar      1 TA1501      0.0000 
     50 C35        61.4490   88.6260  178.2440 C.ar      1 TA1501      0.0000 
     51 C36        60.9790   87.6520  177.3810 C.ar      1 TA1501      0.0000 
     52 C37        59.4460   85.2620  172.6520 C.ar      1 TA1501      0.0000 
     53 C38        58.7480   84.1060  172.3390 C.ar      1 TA1501      0.0000 
     54 C39        57.5070   84.1740  171.7320 C.ar      1 TA1501      0.0000 
     55 C40        56.9480   85.3940  171.4330 C.ar      1 TA1501      0.0000 
     56 C41        57.6280   86.5500  171.7410 C.ar      1 TA1501      0.0000 
     57 C42        58.8700   86.4870  172.3470 C.ar      1 TA1501      0.0000 
     58 C43        63.8730   82.5210  175.3640 C.3       1 TA1501      0.0000 
     59 C44        66.6410   84.1600  173.1480 C.3       1 TA1501      0.0000 
     60 C45        66.3590   81.7560  175.9380 C.3       1 TA1501      0.0000 
     61 C46        67.1140   82.8280  176.7370 C.3       1 TA1501      0.0000 
     62 C47        67.1360   80.6280  176.6270 C.3       1 TA1501      0.0000 
@<TRIPOS>BOND
     1    1    2 1    
     2    2    3 1    
     3    2   58 1    
     4    2   60 1    
     5    3    4 1    
     6    3   13 1    
     7    4    5 1    
     8    5    6 2    
     9    5    7 1    
    10    7    8 ar   
    11    7   12 ar   
    12    8    9 ar   
    13    9   10 ar   
    14   10   11 ar   
    15   11   12 ar   
    16   13   14 1    
    17   13   25 1    
    18   14   15 1    
    19   14   19 1    
    20   14   21 1    
    21   15   16 1    
    22   16   17 2    
    23   16   18 1    
    24   19   20 1    
    25   20   21 1    
    26   21   22 1    
    27   22   23 1    
    28   23   24 1    
    29   23   25 1    
    30   25   26 1    
    31   25   27 1    
    32   27   28 2    
    33   27   29 1    
    34   29   30 1    
    35   29   34 1    
    36   30   31 1    
    37   31   32 2    
    38   31   33 1    
    39   34   35 2    
    40   34   60 1    
    41   35   36 1    
    42   35   59 1    
    43   36   37 1    
    44   36   58 1    
    45   37   38 1    
    46   38   39 2    
    47   38   40 1    
    48   40   41 1    
    49   40   42 1    
    50   42   43 1    
    51   42   52 1    
    52   43   44 am   
    53   44   45 2    
    54   44   46 1    
    55   46   47 ar   
    56   46   51 ar   
    57   47   48 ar   
    58   48   49 ar   
    59   49   50 ar   
    60   50   51 ar   
    61   52   53 ar   
    62   52   57 ar   
    63   53   54 ar   
    64   54   55 ar   
    65   55   56 ar   
    66   56   57 ar   
    67   60   61 1    
    68   60   62 1    
@<TRIPOS>SUBSTRUCTURE
     1 TA1501      1 GROUP   
@<TRIPOS>SET

