#    Name: 6ew0_3_TA1
#    Modification time : Fri May 22 19:37:41 2020

@<TRIPOS>MOLECULE
6ew0_3_TA1
   62    68     1     0     0
SMALL
NO_CHARGES


@<TRIPOS>ATOM
      1 O01        55.6580  125.9730  104.9950 O.3       1 TA1502      0.0000 
      2 C01        55.5510  125.4040  103.6840 C.3       1 TA1502      0.0000 
      3 C02        54.3650  124.3050  103.7070 C.3       1 TA1502      0.0000 
      4 O02        53.3940  124.8890  104.6050 O.3       1 TA1502      0.0000 
      5 C03        53.2120  124.3400  105.8180 C.2       1 TA1502      0.0000 
      6 O03        53.8640  123.4200  106.2390 O.2       1 TA1502      0.0000 
      7 C04        52.1100  124.9980  106.5590 C.ar      1 TA1502      0.0000 
      8 C05        51.3770  126.0210  105.9680 C.ar      1 TA1502      0.0000 
      9 C06        50.3700  126.6570  106.6720 C.ar      1 TA1502      0.0000 
     10 C07        50.0890  126.2880  107.9690 C.ar      1 TA1502      0.0000 
     11 C08        50.8110  125.2780  108.5650 C.ar      1 TA1502      0.0000 
     12 C09        51.8140  124.6310  107.8660 C.ar      1 TA1502      0.0000 
     13 C10        53.7260  123.8620  102.3110 C.3       1 TA1502      0.0000 
     14 C11        52.1010  123.9100  102.2580 C.3       1 TA1502      0.0000 
     15 O04        51.6350  125.2810  102.4360 O.3       1 TA1502      0.0000 
     16 C12        51.7990  126.2790  101.5300 C.2       1 TA1502      0.0000 
     17 O05        52.3460  126.1640  100.4700 O.2       1 TA1502      0.0000 
     18 C13        51.1980  127.5320  102.0620 C.3       1 TA1502      0.0000 
     19 C14        51.2110  123.0510  103.1850 C.3       1 TA1502      0.0000 
     20 O06        50.3380  122.7210  102.1040 O.3       1 TA1502      0.0000 
     21 C15        51.3610  123.1270  101.1540 C.3       1 TA1502      0.0000 
     22 C16        52.0720  121.9700  100.5040 C.3       1 TA1502      0.0000 
     23 C17        53.5310  122.3340  100.2840 C.3       1 TA1502      0.0000 
     24 O07        54.1490  121.3120   99.4990 O.3       1 TA1502      0.0000 
     25 C18        54.3130  122.5610  101.6010 C.3       1 TA1502      0.0000 
     26 C19        54.3240  121.3040  102.4830 C.3       1 TA1502      0.0000 
     27 C20        55.7340  122.5590  101.0200 C.2       1 TA1502      0.0000 
     28 O08        56.1340  121.4830  100.6430 O.2       1 TA1502      0.0000 
     29 C21        56.7930  123.7890  100.8350 C.3       1 TA1502      0.0000 
     30 O09        58.0290  123.1240  100.4410 O.3       1 TA1502      0.0000 
     31 C22        58.3500  123.1080   99.1320 C.2       1 TA1502      0.0000 
     32 O10        57.6380  123.5500   98.2800 O.2       1 TA1502      0.0000 
     33 C23        59.6810  122.4770   98.9160 C.3       1 TA1502      0.0000 
     34 C24        57.0850  124.9160  101.8380 C.2       1 TA1502      0.0000 
     35 C25        57.1880  126.1670  101.3870 C.2       1 TA1502      0.0000 
     36 C26        56.1000  127.1580  101.7590 C.3       1 TA1502      0.0000 
     37 O11        55.2900  127.7730  100.7230 O.3       1 TA1502      0.0000 
     38 C27        55.6500  129.0080  100.3570 C.2       1 TA1502      0.0000 
     39 O12        56.6900  129.5290  100.6430 O.2       1 TA1502      0.0000 
     40 C28        54.5550  129.7040   99.6150 C.3       1 TA1502      0.0000 
     41 O13        55.1310  130.6820   98.7700 O.3       1 TA1502      0.0000 
     42 C29        53.6170  130.3330  100.6560 C.3       1 TA1502      0.0000 
     43 N01        54.3600  131.1690  101.5930 N.am      1 TA1502      0.0000 
     44 C30        54.5470  130.7790  102.8600 C.2       1 TA1502      0.0000 
     45 O14        54.0640  129.7400  103.2960 O.2       1 TA1502      0.0000 
     46 C31        55.4220  131.6340  103.7170 C.ar      1 TA1502      0.0000 
     47 C32        54.8860  132.4780  104.6830 C.ar      1 TA1502      0.0000 
     48 C33        55.7180  133.1970  105.5220 C.ar      1 TA1502      0.0000 
     49 C34        57.0880  133.0880  105.4050 C.ar      1 TA1502      0.0000 
     50 C35        57.6290  132.2630  104.4430 C.ar      1 TA1502      0.0000 
     51 C36        56.8040  131.5410  103.5990 C.ar      1 TA1502      0.0000 
     52 C37        52.4460  131.0570  100.0280 C.ar      1 TA1502      0.0000 
     53 C38        51.2310  130.4120   99.8510 C.ar      1 TA1502      0.0000 
     54 C39        50.1680  131.0620   99.2520 C.ar      1 TA1502      0.0000 
     55 C40        50.3030  132.3630   98.8250 C.ar      1 TA1502      0.0000 
     56 C41        51.5010  133.0170   98.9990 C.ar      1 TA1502      0.0000 
     57 C42        52.5670  132.3710   99.5980 C.ar      1 TA1502      0.0000 
     58 C43        55.1030  126.5670  102.7660 C.3       1 TA1502      0.0000 
     59 C44        58.3170  126.6740  100.5420 C.3       1 TA1502      0.0000 
     60 C45        56.9460  124.7540  103.3510 C.3       1 TA1502      0.0000 
     61 C46        58.1060  125.3620  104.1520 C.3       1 TA1502      0.0000 
     62 C47        57.1330  123.3940  104.0240 C.3       1 TA1502      0.0000 
@<TRIPOS>BOND
     1    1    2 1    
     2    2    3 1    
     3    2   58 1    
     4    2   60 1    
     5    3    4 1    
     6    3   13 1    
     7    4    5 1    
     8    5    6 2    
     9    5    7 1    
    10    7    8 ar   
    11    7   12 ar   
    12    8    9 ar   
    13    9   10 ar   
    14   10   11 ar   
    15   11   12 ar   
    16   13   14 1    
    17   13   25 1    
    18   14   15 1    
    19   14   19 1    
    20   14   21 1    
    21   15   16 1    
    22   16   17 2    
    23   16   18 1    
    24   19   20 1    
    25   20   21 1    
    26   21   22 1    
    27   22   23 1    
    28   23   24 1    
    29   23   25 1    
    30   25   26 1    
    31   25   27 1    
    32   27   28 2    
    33   27   29 1    
    34   29   30 1    
    35   29   34 1    
    36   30   31 1    
    37   31   32 2    
    38   31   33 1    
    39   34   35 2    
    40   34   60 1    
    41   35   36 1    
    42   35   59 1    
    43   36   37 1    
    44   36   58 1    
    45   37   38 1    
    46   38   39 2    
    47   38   40 1    
    48   40   41 1    
    49   40   42 1    
    50   42   43 1    
    51   42   52 1    
    52   43   44 am   
    53   44   45 2    
    54   44   46 1    
    55   46   47 ar   
    56   46   51 ar   
    57   47   48 ar   
    58   48   49 ar   
    59   49   50 ar   
    60   50   51 ar   
    61   52   53 ar   
    62   52   57 ar   
    63   53   54 ar   
    64   54   55 ar   
    65   55   56 ar   
    66   56   57 ar   
    67   60   61 1    
    68   60   62 1    
@<TRIPOS>SUBSTRUCTURE
     1 TA1502      1 GROUP   
@<TRIPOS>SET

