#    Name: 6ew0_1_TA1
#    Modification time : Fri May 22 19:37:32 2020

@<TRIPOS>MOLECULE
6ew0_1_TA1
   62    68     1     0     0
SMALL
NO_CHARGES


@<TRIPOS>ATOM
      1 O01        64.6050   82.3240   95.5220 O.3       1 TA1501      0.0000 
      2 C01        64.7930   81.7530   94.2210 C.3       1 TA1501      0.0000 
      3 C02        64.2550   80.2350   94.2460 C.3       1 TA1501      0.0000 
      4 O02        63.1320   80.2860   95.1550 O.3       1 TA1501      0.0000 
      5 C03        63.2630   79.7120   96.3620 C.2       1 TA1501      0.0000 
      6 O03        64.2870   79.2210   96.7600 O.2       1 TA1501      0.0000 
      7 C04        61.9980   79.7570   97.1320 C.ar      1 TA1501      0.0000 
      8 C05        60.8490   80.3080   96.5770 C.ar      1 TA1501      0.0000 
      9 C06        59.6790   80.3700   97.3120 C.ar      1 TA1501      0.0000 
     10 C07        59.6420   79.8920   98.6040 C.ar      1 TA1501      0.0000 
     11 C08        60.7760   79.3450   99.1630 C.ar      1 TA1501      0.0000 
     12 C09        61.9490   79.2730   98.4340 C.ar      1 TA1501      0.0000 
     13 C10        63.8940   79.5500   92.8520 C.3       1 TA1501      0.0000 
     14 C11        62.4440   78.8150   92.8020 C.3       1 TA1501      0.0000 
     15 O04        61.3810   79.7960   92.9990 O.3       1 TA1501      0.0000 
     16 C12        61.0410   80.7540   92.0990 C.2       1 TA1501      0.0000 
     17 O05        61.5490   80.8980   91.0260 O.2       1 TA1501      0.0000 
     18 C13        59.9480   81.5970   92.6600 C.3       1 TA1501      0.0000 
     19 C14        62.0720   77.6390   93.7300 C.3       1 TA1501      0.0000 
     20 O06        61.4780   76.9200   92.6490 O.3       1 TA1501      0.0000 
     21 C15        62.1720   77.7720   91.6990 C.3       1 TA1501      0.0000 
     22 C16        63.3500   77.0980   91.0480 C.3       1 TA1501      0.0000 
     23 C17        64.4680   78.1050   90.8360 C.3       1 TA1501      0.0000 
     24 O07        65.5110   77.4830   90.0820 O.3       1 TA1501      0.0000 
     25 C18        65.0320   78.6890   92.1530 C.3       1 TA1501      0.0000 
     26 C19        65.6370   77.6000   93.0500 C.3       1 TA1501      0.0000 
     27 C20        66.2980   79.3580   91.5860 C.2       1 TA1501      0.0000 
     28 O08        67.1560   78.5930   91.2210 O.2       1 TA1501      0.0000 
     29 C21        66.6910   80.9030   91.3950 C.3       1 TA1501      0.0000 
     30 O09        68.1150   80.8600   91.0800 O.3       1 TA1501      0.0000 
     31 C22        68.5000   81.0420   89.8010 C.2       1 TA1501      0.0000 
     32 O10        67.7290   81.1680   88.8970 O.2       1 TA1501      0.0000 
     33 C23        69.9850   81.0630   89.6890 C.3       1 TA1501      0.0000 
     34 C24        66.3950   82.0360   92.3810 C.2       1 TA1501      0.0000 
     35 C25        65.8820   83.1760   91.9090 C.2       1 TA1501      0.0000 
     36 C26        64.4630   83.5450   92.2940 C.3       1 TA1501      0.0000 
     37 O11        63.4660   83.7350   91.2550 O.3       1 TA1501      0.0000 
     38 C27        63.1970   85.0060   90.9440 C.2       1 TA1501      0.0000 
     39 O12        63.8600   85.9450   91.2820 O.2       1 TA1501      0.0000 
     40 C28        61.9150   85.1310   90.1890 C.3       1 TA1501      0.0000 
     41 O13        61.9560   86.3120   89.4120 O.3       1 TA1501      0.0000 
     42 C29        60.8070   85.2220   91.2280 C.3       1 TA1501      0.0000 
     43 N01        61.0840   86.3100   92.1610 N.am      1 TA1501      0.0000 
     44 C30        61.3790   86.0450   93.4390 C.2       1 TA1501      0.0000 
     45 O14        61.3530   84.9030   93.8800 O.2       1 TA1501      0.0000 
     46 C31        61.8100   87.1860   94.3010 C.ar      1 TA1501      0.0000 
     47 C32        63.0900   87.7070   94.1590 C.ar      1 TA1501      0.0000 
     48 C33        63.5480   88.6860   95.0230 C.ar      1 TA1501      0.0000 
     49 C34        62.7340   89.1610   96.0290 C.ar      1 TA1501      0.0000 
     50 C35        61.4560   88.6630   96.1690 C.ar      1 TA1501      0.0000 
     51 C36        60.9910   87.6830   95.3090 C.ar      1 TA1501      0.0000 
     52 C37        59.4300   85.3070   90.6070 C.ar      1 TA1501      0.0000 
     53 C38        58.7010   84.1550   90.3520 C.ar      1 TA1501      0.0000 
     54 C39        57.4510   84.2280   89.7640 C.ar      1 TA1501      0.0000 
     55 C40        56.9140   85.4470   89.4270 C.ar      1 TA1501      0.0000 
     56 C41        57.6250   86.5980   89.6780 C.ar      1 TA1501      0.0000 
     57 C42        58.8760   86.5310   90.2640 C.ar      1 TA1501      0.0000 
     58 C43        63.8540   82.5440   93.2820 C.3       1 TA1501      0.0000 
     59 C44        66.6130   84.1320   91.0170 C.3       1 TA1501      0.0000 
     60 C45        66.3360   81.8220   93.9040 C.3       1 TA1501      0.0000 
     61 C46        67.0730   82.9140   94.6920 C.3       1 TA1501      0.0000 
     62 C47        67.1180   80.7170   94.6240 C.3       1 TA1501      0.0000 
@<TRIPOS>BOND
     1    1    2 1    
     2    2    3 1    
     3    2   58 1    
     4    2   60 1    
     5    3    4 1    
     6    3   13 1    
     7    4    5 1    
     8    5    6 2    
     9    5    7 1    
    10    7    8 ar   
    11    7   12 ar   
    12    8    9 ar   
    13    9   10 ar   
    14   10   11 ar   
    15   11   12 ar   
    16   13   14 1    
    17   13   25 1    
    18   14   15 1    
    19   14   19 1    
    20   14   21 1    
    21   15   16 1    
    22   16   17 2    
    23   16   18 1    
    24   19   20 1    
    25   20   21 1    
    26   21   22 1    
    27   22   23 1    
    28   23   24 1    
    29   23   25 1    
    30   25   26 1    
    31   25   27 1    
    32   27   28 2    
    33   27   29 1    
    34   29   30 1    
    35   29   34 1    
    36   30   31 1    
    37   31   32 2    
    38   31   33 1    
    39   34   35 2    
    40   34   60 1    
    41   35   36 1    
    42   35   59 1    
    43   36   37 1    
    44   36   58 1    
    45   37   38 1    
    46   38   39 2    
    47   38   40 1    
    48   40   41 1    
    49   40   42 1    
    50   42   43 1    
    51   42   52 1    
    52   43   44 am   
    53   44   45 2    
    54   44   46 1    
    55   46   47 ar   
    56   46   51 ar   
    57   47   48 ar   
    58   48   49 ar   
    59   49   50 ar   
    60   50   51 ar   
    61   52   53 ar   
    62   52   57 ar   
    63   53   54 ar   
    64   54   55 ar   
    65   55   56 ar   
    66   56   57 ar   
    67   60   61 1    
    68   60   62 1    
@<TRIPOS>SUBSTRUCTURE
     1 TA1501      1 GROUP   
@<TRIPOS>SET

