#    Name: 6ew0_8_GDP
#    Modification time : Fri May 22 19:38:09 2020

@<TRIPOS>MOLECULE
6ew0_8_GDP
   28    30     1     0     1
SMALL
NO_CHARGES


@<TRIPOS>ATOM
      1 PB         40.9670   88.4960  110.2720 P.3       1 GDP502      0.0000 
      2 O1B        40.0560   88.4360  109.1080 O.co2     1 GDP502      0.0000 
      3 O2B        40.2630   88.8500  111.5710 O.co2     1 GDP502      0.0000 
      4 O3B        42.1320   89.4540  110.0790 O.co2     1 GDP502      0.0000 
      5 O3A        41.6380   87.0720  110.4990 O.3       1 GDP502      0.0000 
      6 PA         42.9110   86.4160  109.8090 P.3       1 GDP502      0.0000 
      7 O1A        43.2870   87.2950  108.6300 O.co2     1 GDP502      0.0000 
      8 O2A        44.0200   86.3670  110.7780 O.co2     1 GDP502      0.0000 
      9 O5'        42.5050   84.9990  109.2500 O.3       1 GDP502      0.0000 
     10 C5'        42.9590   83.7330  109.7670 C.3       1 GDP502      0.0000 
     11 C4'        43.0870   82.7680  108.6180 C.3       1 GDP502      0.0000 
     12 O4'        44.0850   83.2560  107.6950 O.3       1 GDP502      0.0000 
     13 C3'        43.5300   81.3600  108.9910 C.3       1 GDP502      0.0000 
     14 O3'        42.9910   80.4070  108.0830 O.3       1 GDP502      0.0000 
     15 C2'        45.0480   81.4500  108.8630 C.3       1 GDP502      0.0000 
     16 O2'        45.6220   80.1830  108.5710 O.3       1 GDP502      0.0000 
     17 C1'        45.1860   82.3690  107.6560 C.3       1 GDP502      0.0000 
     18 N9         46.4120   83.1660  107.6780 N.pl3     1 GDP502      0.0000 
     19 C8         46.7460   84.1520  108.5640 C.2       1 GDP502      0.0000 
     20 N7         47.8930   84.7230  108.2930 N.2       1 GDP502      0.0000 
     21 C5         48.3390   84.0690  107.1580 C.2       1 GDP502      0.0000 
     22 C6         49.5020   84.2610  106.3700 C.2       1 GDP502      0.0000 
     23 O6         50.4060   85.0700  106.5600 O.2       1 GDP502      0.0000 
     24 N1         49.5480   83.4040  105.2920 N.am      1 GDP502      0.0000 
     25 C2         48.6060   82.4620  104.9950 C.2       1 GDP502      0.0000 
     26 N2         48.8230   81.7060  103.9200 N.pl3     1 GDP502      0.0000 
     27 N3         47.5110   82.2720  105.7240 N.2       1 GDP502      0.0000 
     28 C4         47.4390   83.1030  106.7760 C.2       1 GDP502      0.0000 
@<TRIPOS>BOND
     1    1    2 ar   
     2    1    3 ar   
     3    1    4 ar   
     4    1    5 1    
     5    5    6 1    
     6    6    7 ar   
     7    6    8 ar   
     8    6    9 1    
     9    9   10 1    
    10   10   11 1    
    11   11   12 1    
    12   11   13 1    
    13   12   17 1    
    14   13   14 1    
    15   13   15 1    
    16   15   16 1    
    17   15   17 1    
    18   17   18 1    
    19   18   19 1    
    20   18   28 1    
    21   19   20 2    
    22   20   21 1    
    23   21   22 1    
    24   21   28 2    
    25   22   23 2    
    26   22   24 am   
    27   24   25 1    
    28   25   26 1    
    29   25   27 2    
    30   27   28 1    
@<TRIPOS>SUBSTRUCTURE
     1 GDP502      1 GROUP   
@<TRIPOS>SET
ATOM$ORANGE STATIC     ATOMS   COLORGROUP SYSTEM 
20 10 10 11 11 13 13 15 15 17 17 19 19 21 21 22 22 25 \
25 28 28 

