#    Name: 6ew0_12_GDP
#    Modification time : Fri May 22 19:38:50 2020

@<TRIPOS>MOLECULE
6ew0_12_GDP
   28    30     1     0     1
SMALL
NO_CHARGES


@<TRIPOS>ATOM
      1 PB         37.5940  142.3950  119.7550 P.3       1 GDP501      0.0000 
      2 O1B        36.6980  142.6980  118.6230 O.co2     1 GDP501      0.0000 
      3 O2B        37.1810  143.0660  121.0540 O.co2     1 GDP501      0.0000 
      4 O3B        39.0510  142.7260  119.4780 O.co2     1 GDP501      0.0000 
      5 O3A        37.5680  140.8280  120.0170 O.3       1 GDP501      0.0000 
      6 PA         38.3480  139.6840  119.2370 P.3       1 GDP501      0.0000 
      7 O1A        39.0450  140.3460  118.0600 O.co2     1 GDP501      0.0000 
      8 O2A        39.3390  139.0700  120.1360 O.co2     1 GDP501      0.0000 
      9 O5'        37.2860  138.6720  118.6690 O.3       1 GDP501      0.0000 
     10 C5'        37.0480  137.3440  119.1740 C.3       1 GDP501      0.0000 
     11 C4'        36.8250  136.4250  118.0020 C.3       1 GDP501      0.0000 
     12 O4'        37.9940  136.4420  117.1530 O.3       1 GDP501      0.0000 
     13 C3'        36.5880  134.9610  118.3590 C.3       1 GDP501      0.0000 
     14 O3'        35.6760  134.3590  117.4500 O.3       1 GDP501      0.0000 
     15 C2'        37.9850  134.3580  118.2360 C.3       1 GDP501      0.0000 
     16 O2'        37.9330  132.9740  117.9200 O.3       1 GDP501      0.0000 
     17 C1'        38.5350  135.1400  117.0530 C.3       1 GDP501      0.0000 
     18 N9         39.9940  135.2490  117.0630 N.pl3     1 GDP501      0.0000 
     19 C8         40.7710  135.9760  117.9220 C.2       1 GDP501      0.0000 
     20 N7         42.0490  135.9160  117.6370 N.2       1 GDP501      0.0000 
     21 C5         42.1110  135.0980  116.5220 C.2       1 GDP501      0.0000 
     22 C6         43.2130  134.6950  115.7210 C.2       1 GDP501      0.0000 
     23 O6         44.3980  134.9650  115.8960 O.2       1 GDP501      0.0000 
     24 N1         42.8260  133.9080  114.6580 N.am      1 GDP501      0.0000 
     25 C2         41.5440  133.5180  114.3960 C.2       1 GDP501      0.0000 
     26 N2         41.3560  132.7120  113.3510 N.pl3     1 GDP501      0.0000 
     27 N3         40.5040  133.8860  115.1380 N.2       1 GDP501      0.0000 
     28 C4         40.8550  134.6740  116.1670 C.2       1 GDP501      0.0000 
@<TRIPOS>BOND
     1    1    2 ar   
     2    1    3 ar   
     3    1    4 ar   
     4    1    5 1    
     5    5    6 1    
     6    6    7 ar   
     7    6    8 ar   
     8    6    9 1    
     9    9   10 1    
    10   10   11 1    
    11   11   12 1    
    12   11   13 1    
    13   12   17 1    
    14   13   14 1    
    15   13   15 1    
    16   15   16 1    
    17   15   17 1    
    18   17   18 1    
    19   18   19 1    
    20   18   28 1    
    21   19   20 2    
    22   20   21 1    
    23   21   22 1    
    24   21   28 2    
    25   22   23 2    
    26   22   24 am   
    27   24   25 1    
    28   25   26 1    
    29   25   27 2    
    30   27   28 1    
@<TRIPOS>SUBSTRUCTURE
     1 GDP501      1 GROUP   
@<TRIPOS>SET
ATOM$ORANGE STATIC     ATOMS   COLORGROUP SYSTEM 
20 10 10 11 11 13 13 15 15 17 17 19 19 21 21 22 22 25 \
25 28 28 

