#    Name: 6ew0_7_GTP
#    Modification time : Fri May 22 19:37:59 2020

@<TRIPOS>MOLECULE
6ew0_7_GTP
   32    34     1     0     1
SMALL
NO_CHARGES


@<TRIPOS>ATOM
      1 PG         40.4770   88.9920  153.0640 P.3       1 GTP501      0.0000 
      2 O1G        40.0360   87.5840  153.0170 O.co2     1 GTP501      0.0000 
      3 O2G        41.7910   89.1880  153.8030 O.co2     1 GTP501      0.0000 
      4 O3G        39.4360   89.9270  153.6590 O.co2     1 GTP501      0.0000 
      5 O3B        40.7350   89.4940  151.5780 O.3       1 GTP501      0.0000 
      6 PB         41.4440   88.7390  150.3710 P.3       1 GTP501      0.0000 
      7 O1B        40.4140   88.4040  149.3080 O.co2     1 GTP501      0.0000 
      8 O2B        42.5320   89.5690  149.8340 O.co2     1 GTP501      0.0000 
      9 O3A        42.0540   87.3740  150.9080 O.3       1 GTP501      0.0000 
     10 PA         43.0670   86.3820  150.1900 P.3       1 GTP501      0.0000 
     11 O1A        43.0820   86.7390  148.7140 O.co2     1 GTP501      0.0000 
     12 O2A        44.4110   86.5440  150.7680 O.co2     1 GTP501      0.0000 
     13 O5'        42.4550   84.9390  150.3410 O.3       1 GTP501      0.0000 
     14 C5'        43.1890   83.7210  150.5640 C.3       1 GTP501      0.0000 
     15 C4'        43.2520   82.9680  149.2610 C.3       1 GTP501      0.0000 
     16 O4'        44.2480   83.5700  148.4050 O.3       1 GTP501      0.0000 
     17 C3'        43.6230   81.4930  149.3800 C.3       1 GTP501      0.0000 
     18 O3'        42.8940   80.7200  148.4350 O.3       1 GTP501      0.0000 
     19 C2'        45.1180   81.4960  149.0640 C.3       1 GTP501      0.0000 
     20 O2'        45.5410   80.2570  148.5110 O.3       1 GTP501      0.0000 
     21 C1'        45.1840   82.5890  148.0070 C.3       1 GTP501      0.0000 
     22 N9         46.5050   83.2190  147.9050 N.pl3     1 GTP501      0.0000 
     23 C8         47.1530   83.9620  148.8520 C.2       1 GTP501      0.0000 
     24 N7         48.3420   84.3590  148.4710 N.2       1 GTP501      0.0000 
     25 C5         48.4810   83.8440  147.1940 C.2       1 GTP501      0.0000 
     26 C6         49.5570   83.9230  146.2660 C.2       1 GTP501      0.0000 
     27 O6         50.6350   84.4870  146.4260 O.2       1 GTP501      0.0000 
     28 N1         49.2820   83.2590  145.0910 N.am      1 GTP501      0.0000 
     29 C2         48.1210   82.5930  144.8200 C.2       1 GTP501      0.0000 
     30 N2         48.0220   82.0070  143.6280 N.pl3     1 GTP501      0.0000 
     31 N3         47.1110   82.5080  145.6800 N.2       1 GTP501      0.0000 
     32 C4         47.3560   83.1470  146.8330 C.2       1 GTP501      0.0000 
@<TRIPOS>BOND
     1    1    2 ar   
     2    1    3 ar   
     3    1    4 ar   
     4    1    5 1    
     5    5    6 1    
     6    6    7 ar   
     7    6    8 ar   
     8    6    9 1    
     9    9   10 1    
    10   10   11 ar   
    11   10   12 ar   
    12   10   13 1    
    13   13   14 1    
    14   14   15 1    
    15   15   16 1    
    16   15   17 1    
    17   16   21 1    
    18   17   18 1    
    19   17   19 1    
    20   19   20 1    
    21   19   21 1    
    22   21   22 1    
    23   22   23 1    
    24   22   32 1    
    25   23   24 2    
    26   24   25 1    
    27   25   26 1    
    28   25   32 2    
    29   26   27 2    
    30   26   28 am   
    31   28   29 1    
    32   29   30 1    
    33   29   31 2    
    34   31   32 1    
@<TRIPOS>SUBSTRUCTURE
     1 GTP501      1 GROUP   
@<TRIPOS>SET
ATOM$ORANGE STATIC     ATOMS   COLORGROUP SYSTEM 
20 14 14 15 15 17 17 19 19 21 21 23 23 25 25 26 26 29 \
29 32 32 

