#    Name: 6ew0_17_GTP
#    Modification time : Fri May 22 19:39:24 2020

@<TRIPOS>MOLECULE
6ew0_17_GTP
   32    34     1     0     1
SMALL
NO_CHARGES


@<TRIPOS>ATOM
      1 PG         40.5870   89.0640   70.7840 P.3       1 GTP501      0.0000 
      2 O1G        41.3260   90.3860   70.8900 O.co2     1 GTP501      0.0000 
      3 O2G        39.2570   89.0650   71.4230 O.co2     1 GTP501      0.0000 
      4 O3G        41.5140   87.9810   71.3070 O.co2     1 GTP501      0.0000 
      5 O3B        40.4430   88.7800   69.2270 O.3       1 GTP501      0.0000 
      6 PB         41.5420   88.2740   68.1950 P.3       1 GTP501      0.0000 
      7 O1B        40.8980   88.0760   66.8370 O.co2     1 GTP501      0.0000 
      8 O2B        42.6420   89.2500   68.1060 O.co2     1 GTP501      0.0000 
      9 O3A        42.0960   86.8750   68.7100 O.3       1 GTP501      0.0000 
     10 PA         43.3930   86.0750   68.2570 P.3       1 GTP501      0.0000 
     11 O1A        43.5220   86.2980   66.7620 O.co2     1 GTP501      0.0000 
     12 O2A        44.5670   86.6310   68.9490 O.co2     1 GTP501      0.0000 
     13 O5'        43.1960   84.5180   68.4950 O.3       1 GTP501      0.0000 
     14 C5'        42.4050   83.6760   67.6360 C.3       1 GTP501      0.0000 
     15 C4'        43.2950   82.7340   66.8730 C.3       1 GTP501      0.0000 
     16 O4'        44.3940   83.4640   66.3080 O.3       1 GTP501      0.0000 
     17 C3'        43.9430   81.6360   67.7070 C.3       1 GTP501      0.0000 
     18 O3'        43.1500   80.4580   67.6560 O.3       1 GTP501      0.0000 
     19 C2'        45.3150   81.4260   67.0400 C.3       1 GTP501      0.0000 
     20 O2'        45.4110   80.1380   66.4450 O.3       1 GTP501      0.0000 
     21 C1'        45.3630   82.5070   65.9560 C.3       1 GTP501      0.0000 
     22 N9         46.6610   83.1770   65.8490 N.pl3     1 GTP501      0.0000 
     23 C8         47.2980   83.9340   66.7910 C.2       1 GTP501      0.0000 
     24 N7         48.4690   84.3700   66.3950 N.2       1 GTP501      0.0000 
     25 C5         48.6040   83.8660   65.1130 C.2       1 GTP501      0.0000 
     26 C6         49.6620   83.9830   64.1690 C.2       1 GTP501      0.0000 
     27 O6         50.7230   84.5840   64.3140 O.2       1 GTP501      0.0000 
     28 N1         49.3900   83.3170   62.9940 N.am      1 GTP501      0.0000 
     29 C2         48.2460   82.6160   62.7380 C.2       1 GTP501      0.0000 
     30 N2         48.1440   82.0370   61.5430 N.pl3     1 GTP501      0.0000 
     31 N3         47.2530   82.4960   63.6130 N.2       1 GTP501      0.0000 
     32 C4         47.4970   83.1360   64.7660 C.2       1 GTP501      0.0000 
@<TRIPOS>BOND
     1    1    2 ar   
     2    1    3 ar   
     3    1    4 ar   
     4    1    5 1    
     5    5    6 1    
     6    6    7 ar   
     7    6    8 ar   
     8    6    9 1    
     9    9   10 1    
    10   10   11 ar   
    11   10   12 ar   
    12   10   13 1    
    13   13   14 1    
    14   14   15 1    
    15   15   16 1    
    16   15   17 1    
    17   16   21 1    
    18   17   18 1    
    19   17   19 1    
    20   19   20 1    
    21   19   21 1    
    22   21   22 1    
    23   22   23 1    
    24   22   32 1    
    25   23   24 2    
    26   24   25 1    
    27   25   26 1    
    28   25   32 2    
    29   26   27 2    
    30   26   28 am   
    31   28   29 1    
    32   29   30 1    
    33   29   31 2    
    34   31   32 1    
@<TRIPOS>SUBSTRUCTURE
     1 GTP501      1 GROUP   
@<TRIPOS>SET
ATOM$ORANGE STATIC     ATOMS   COLORGROUP SYSTEM 
20 14 14 15 15 17 17 19 19 21 21 23 23 25 25 26 26 29 \
29 32 32 

