#    Name: 6ew0_16_GTP
#    Modification time : Fri May 22 19:39:14 2020

@<TRIPOS>MOLECULE
6ew0_16_GTP
   32    34     1     0     1
SMALL
NO_CHARGES


@<TRIPOS>ATOM
      1 PG         37.7810  143.3650   80.4130 P.3       1 GTP501      0.0000 
      2 O1G        39.2790  143.4660   80.6650 O.co2     1 GTP501      0.0000 
      3 O2G        36.9910  144.4190   81.0750 O.co2     1 GTP501      0.0000 
      4 O3G        37.3320  141.9540   80.7540 O.co2     1 GTP501      0.0000 
      5 O3B        37.5890  143.5040   78.8420 O.3       1 GTP501      0.0000 
      6 PB         38.0910  142.5510   77.6740 P.3       1 GTP501      0.0000 
      7 O1B        37.1980  142.7330   76.4600 O.co2     1 GTP501      0.0000 
      8 O2B        39.5060  142.8280   77.3630 O.co2     1 GTP501      0.0000 
      9 O3A        37.9350  141.0650   78.2170 O.3       1 GTP501      0.0000 
     10 PA         38.5020  139.7040   77.6220 P.3       1 GTP501      0.0000 
     11 O1A        38.9330  139.9900   76.1980 O.co2     1 GTP501      0.0000 
     12 O2A        39.6600  139.2580   78.4170 O.co2     1 GTP501      0.0000 
     13 O5'        37.2850  138.6990   77.5750 O.3       1 GTP501      0.0000 
     14 C5'        37.3460  137.3020   77.9220 C.3       1 GTP501      0.0000 
     15 C4'        37.0540  136.4960   76.6830 C.3       1 GTP501      0.0000 
     16 O4'        38.2040  136.5140   75.8080 O.3       1 GTP501      0.0000 
     17 C3'        36.7220  135.0250   76.9190 C.3       1 GTP501      0.0000 
     18 O3'        35.7140  134.6000   76.0120 O.3       1 GTP501      0.0000 
     19 C2'        38.0520  134.3290   76.6360 C.3       1 GTP501      0.0000 
     20 O2'        37.8640  132.9940   76.1840 O.3       1 GTP501      0.0000 
     21 C1'        38.5870  135.1890   75.5000 C.3       1 GTP501      0.0000 
     22 N9         40.0480  135.1490   75.3710 N.pl3     1 GTP501      0.0000 
     23 C8         40.9740  135.5390   76.2970 C.2       1 GTP501      0.0000 
     24 N7         42.2080  135.4040   75.8790 N.2       1 GTP501      0.0000 
     25 C5         42.0810  134.8910   74.6000 C.2       1 GTP501      0.0000 
     26 C6         43.0640  134.5480   73.6250 C.2       1 GTP501      0.0000 
     27 O6         44.2830  134.6210   73.7410 O.2       1 GTP501      0.0000 
     28 N1         42.5020  134.0960   72.4520 N.am      1 GTP501      0.0000 
     29 C2         41.1630  133.9760   72.2210 C.2       1 GTP501      0.0000 
     30 N2         40.7920  133.5640   71.0100 N.pl3     1 GTP501      0.0000 
     31 N3         40.2360  134.2760   73.1270 N.2       1 GTP501      0.0000 
     32 C4         40.7590  134.7280   74.2770 C.2       1 GTP501      0.0000 
@<TRIPOS>BOND
     1    1    2 ar   
     2    1    3 ar   
     3    1    4 ar   
     4    1    5 1    
     5    5    6 1    
     6    6    7 ar   
     7    6    8 ar   
     8    6    9 1    
     9    9   10 1    
    10   10   11 ar   
    11   10   12 ar   
    12   10   13 1    
    13   13   14 1    
    14   14   15 1    
    15   15   16 1    
    16   15   17 1    
    17   16   21 1    
    18   17   18 1    
    19   17   19 1    
    20   19   20 1    
    21   19   21 1    
    22   21   22 1    
    23   22   23 1    
    24   22   32 1    
    25   23   24 2    
    26   24   25 1    
    27   25   26 1    
    28   25   32 2    
    29   26   27 2    
    30   26   28 am   
    31   28   29 1    
    32   29   30 1    
    33   29   31 2    
    34   31   32 1    
@<TRIPOS>SUBSTRUCTURE
     1 GTP501      1 GROUP   
@<TRIPOS>SET
ATOM$ORANGE STATIC     ATOMS   COLORGROUP SYSTEM 
20 14 14 15 15 17 17 19 19 21 21 23 23 25 25 26 26 29 \
29 32 32 

