#    Name: 6ew0_18_GTP
#    Modification time : Fri May 22 19:39:35 2020

@<TRIPOS>MOLECULE
6ew0_18_GTP
   32    34     1     0     1
SMALL
NO_CHARGES


@<TRIPOS>ATOM
      1 PG         68.4520   42.5090   61.7560 P.3       1 GTP501      0.0000 
      2 O1G        68.8190   41.0760   61.8260 O.co2     1 GTP501      0.0000 
      3 O2G        67.0860   42.8060   62.3510 O.co2     1 GTP501      0.0000 
      4 O3G        69.4770   43.4190   62.4130 O.co2     1 GTP501      0.0000 
      5 O3B        68.3640   42.9780   60.2390 O.3       1 GTP501      0.0000 
      6 PB         69.3540   42.7290   59.0200 P.3       1 GTP501      0.0000 
      7 O1B        68.6170   41.9920   57.9170 O.co2     1 GTP501      0.0000 
      8 O2B        69.9030   44.0110   58.5400 O.co2     1 GTP501      0.0000 
      9 O3A        70.5370   41.7990   59.5330 O.3       1 GTP501      0.0000 
     10 PA         71.8900   41.3960   58.8020 P.3       1 GTP501      0.0000 
     11 O1A        71.7230   41.7680   57.3410 O.co2     1 GTP501      0.0000 
     12 O2A        73.0120   42.1510   59.3870 O.co2     1 GTP501      0.0000 
     13 O5'        72.0480   39.8260   58.8830 O.3       1 GTP501      0.0000 
     14 C5'        73.2780   39.1130   59.1170 C.3       1 GTP501      0.0000 
     15 C4'        73.6890   38.4320   57.8370 C.3       1 GTP501      0.0000 
     16 O4'        74.2950   39.3980   56.9480 O.3       1 GTP501      0.0000 
     17 C3'        74.7080   37.3090   57.9990 C.3       1 GTP501      0.0000 
     18 O3'        74.4500   36.2620   57.0720 O.3       1 GTP501      0.0000 
     19 C2'        76.0290   38.0110   57.6960 C.3       1 GTP501      0.0000 
     20 O2'        77.0110   37.1090   57.2030 O.3       1 GTP501      0.0000 
     21 C1'        75.5950   38.9710   56.5960 C.3       1 GTP501      0.0000 
     22 N9         76.4600   40.1510   56.4810 N.pl3     1 GTP501      0.0000 
     23 C8         76.6700   41.1200   57.4220 C.2       1 GTP501      0.0000 
     24 N7         77.5280   42.0330   57.0410 N.2       1 GTP501      0.0000 
     25 C5         77.9030   41.6390   55.7690 C.2       1 GTP501      0.0000 
     26 C6         78.8120   42.2210   54.8390 C.2       1 GTP501      0.0000 
     27 O6         79.4890   43.2330   54.9950 O.2       1 GTP501      0.0000 
     28 N1         78.8890   41.5020   53.6660 N.am      1 GTP501      0.0000 
     29 C2         78.1910   40.3580   53.3990 C.2       1 GTP501      0.0000 
     30 N2         78.3820   39.7960   52.2070 N.pl3     1 GTP501      0.0000 
     31 N3         77.3450   39.8010   54.2610 N.2       1 GTP501      0.0000 
     32 C4         77.2500   40.4850   55.4120 C.2       1 GTP501      0.0000 
@<TRIPOS>BOND
     1    1    2 ar   
     2    1    3 ar   
     3    1    4 ar   
     4    1    5 1    
     5    5    6 1    
     6    6    7 ar   
     7    6    8 ar   
     8    6    9 1    
     9    9   10 1    
    10   10   11 ar   
    11   10   12 ar   
    12   10   13 1    
    13   13   14 1    
    14   14   15 1    
    15   15   16 1    
    16   15   17 1    
    17   16   21 1    
    18   17   18 1    
    19   17   19 1    
    20   19   20 1    
    21   19   21 1    
    22   21   22 1    
    23   22   23 1    
    24   22   32 1    
    25   23   24 2    
    26   24   25 1    
    27   25   26 1    
    28   25   32 2    
    29   26   27 2    
    30   26   28 am   
    31   28   29 1    
    32   29   30 1    
    33   29   31 2    
    34   31   32 1    
@<TRIPOS>SUBSTRUCTURE
     1 GTP501      1 GROUP   
@<TRIPOS>SET
ATOM$ORANGE STATIC     ATOMS   COLORGROUP SYSTEM 
20 14 14 15 15 17 17 19 19 21 21 23 23 25 25 26 26 29 \
29 32 32 

