#    Name: 6ew0_9_GTP
#    Modification time : Fri May 22 19:38:20 2020

@<TRIPOS>MOLECULE
6ew0_9_GTP
   32    34     1     0     1
SMALL
NO_CHARGES


@<TRIPOS>ATOM
      1 PG         68.4580   42.7570  143.4940 P.3       1 GTP501      0.0000 
      2 O1G        69.6930   41.8890  143.6620 O.co2     1 GTP501      0.0000 
      3 O2G        68.8370   44.1850  143.8520 O.co2     1 GTP501      0.0000 
      4 O3G        67.2670   42.2500  144.2020 O.co2     1 GTP501      0.0000 
      5 O3B        68.1730   42.7630  141.9310 O.3       1 GTP501      0.0000 
      6 PB         69.2090   42.6140  140.7360 P.3       1 GTP501      0.0000 
      7 O1B        68.5270   41.9930  139.5290 O.co2     1 GTP501      0.0000 
      8 O2B        69.8050   43.9230  140.4190 O.co2     1 GTP501      0.0000 
      9 O3A        70.3450   41.6220  141.2360 O.3       1 GTP501      0.0000 
     10 PA         71.8090   41.4280  140.6490 P.3       1 GTP501      0.0000 
     11 O1A        71.8570   42.1690  139.3250 O.co2     1 GTP501      0.0000 
     12 O2A        72.7930   42.0020  141.5830 O.co2     1 GTP501      0.0000 
     13 O5'        71.9790   39.8880  140.3550 O.3       1 GTP501      0.0000 
     14 C5'        73.0740   39.0740  140.8160 C.3       1 GTP501      0.0000 
     15 C4'        73.6530   38.3530  139.6270 C.3       1 GTP501      0.0000 
     16 O4'        74.3010   39.3050  138.7540 O.3       1 GTP501      0.0000 
     17 C3'        74.7010   37.2930  139.9550 C.3       1 GTP501      0.0000 
     18 O3'        74.5700   36.1810  139.0800 O.3       1 GTP501      0.0000 
     19 C2'        76.0140   38.0370  139.7250 C.3       1 GTP501      0.0000 
     20 O2'        77.0690   37.1530  139.3680 O.3       1 GTP501      0.0000 
     21 C1'        75.6410   38.9140  138.5380 C.3       1 GTP501      0.0000 
     22 N9         76.4670   40.1220  138.4270 N.pl3     1 GTP501      0.0000 
     23 C8         76.6350   41.1040  139.3630 C.2       1 GTP501      0.0000 
     24 N7         77.4700   42.0410  138.9850 N.2       1 GTP501      0.0000 
     25 C5         77.8720   41.6480  137.7200 C.2       1 GTP501      0.0000 
     26 C6         78.7780   42.2480  136.7980 C.2       1 GTP501      0.0000 
     27 O6         79.4230   43.2810  136.9540 O.2       1 GTP501      0.0000 
     28 N1         78.8920   41.5220  135.6330 N.am      1 GTP501      0.0000 
     29 C2         78.2310   40.3570  135.3660 C.2       1 GTP501      0.0000 
     30 N2         78.4550   39.7890  134.1820 N.pl3     1 GTP501      0.0000 
     31 N3         77.3890   39.7830  136.2210 N.2       1 GTP501      0.0000 
     32 C4         77.2580   40.4730  137.3640 C.2       1 GTP501      0.0000 
@<TRIPOS>BOND
     1    1    2 ar   
     2    1    3 ar   
     3    1    4 ar   
     4    1    5 1    
     5    5    6 1    
     6    6    7 ar   
     7    6    8 ar   
     8    6    9 1    
     9    9   10 1    
    10   10   11 ar   
    11   10   12 ar   
    12   10   13 1    
    13   13   14 1    
    14   14   15 1    
    15   15   16 1    
    16   15   17 1    
    17   16   21 1    
    18   17   18 1    
    19   17   19 1    
    20   19   20 1    
    21   19   21 1    
    22   21   22 1    
    23   22   23 1    
    24   22   32 1    
    25   23   24 2    
    26   24   25 1    
    27   25   26 1    
    28   25   32 2    
    29   26   27 2    
    30   26   28 am   
    31   28   29 1    
    32   29   30 1    
    33   29   31 2    
    34   31   32 1    
@<TRIPOS>SUBSTRUCTURE
     1 GTP501      1 GROUP   
@<TRIPOS>SET
ATOM$ORANGE STATIC     ATOMS   COLORGROUP SYSTEM 
20 14 14 15 15 17 17 19 19 21 21 23 23 25 25 26 26 29 \
29 32 32 

