#    Name: 6ew0_14_GDP
#    Modification time : Fri May 22 19:39:00 2020

@<TRIPOS>MOLECULE
6ew0_14_GDP
   28    30     1     0     1
SMALL
NO_CHARGES


@<TRIPOS>ATOM
      1 PB         40.9290   88.4750  192.2140 P.3       1 GDP502      0.0000 
      2 O1B        40.0040   88.3880  191.0620 O.co2     1 GDP502      0.0000 
      3 O2B        40.2370   88.8310  193.5190 O.co2     1 GDP502      0.0000 
      4 O3B        42.0750   89.4490  191.9940 O.co2     1 GDP502      0.0000 
      5 O3A        41.6250   87.0640  192.4420 O.3       1 GDP502      0.0000 
      6 PA         42.9020   86.4310  191.7380 P.3       1 GDP502      0.0000 
      7 O1A        43.2600   87.3260  190.5660 O.co2     1 GDP502      0.0000 
      8 O2A        44.0170   86.3840  192.6990 O.co2     1 GDP502      0.0000 
      9 O5'        42.5070   85.0170  191.1660 O.3       1 GDP502      0.0000 
     10 C5'        42.9060   83.7490  191.7220 C.3       1 GDP502      0.0000 
     11 C4'        43.0190   82.7520  190.5980 C.3       1 GDP502      0.0000 
     12 O4'        44.0380   83.1890  189.6740 O.3       1 GDP502      0.0000 
     13 C3'        43.4240   81.3450  191.0120 C.3       1 GDP502      0.0000 
     14 O3'        42.8950   80.3830  190.1070 O.3       1 GDP502      0.0000 
     15 C2'        44.9460   81.4070  190.9260 C.3       1 GDP502      0.0000 
     16 O2'        45.5070   80.1230  190.6860 O.3       1 GDP502      0.0000 
     17 C1'        45.1350   82.2960  189.7020 C.3       1 GDP502      0.0000 
     18 N9         46.3640   83.0880  189.7480 N.pl3     1 GDP502      0.0000 
     19 C8         46.7090   84.0420  190.6640 C.2       1 GDP502      0.0000 
     20 N7         47.8550   84.6210  190.4000 N.2       1 GDP502      0.0000 
     21 C5         48.2870   84.0050  189.2380 C.2       1 GDP502      0.0000 
     22 C6         49.4470   84.2160  188.4460 C.2       1 GDP502      0.0000 
     23 O6         50.3510   85.0220  188.6480 O.2       1 GDP502      0.0000 
     24 N1         49.4840   83.3870  187.3460 N.am      1 GDP502      0.0000 
     25 C2         48.5350   82.4590  187.0280 C.2       1 GDP502      0.0000 
     26 N2         48.7430   81.7280  185.9330 N.pl3     1 GDP502      0.0000 
     27 N3         47.4430   82.2540  187.7570 N.2       1 GDP502      0.0000 
     28 C4         47.3820   83.0540  188.8340 C.2       1 GDP502      0.0000 
@<TRIPOS>BOND
     1    1    2 ar   
     2    1    3 ar   
     3    1    4 ar   
     4    1    5 1    
     5    5    6 1    
     6    6    7 ar   
     7    6    8 ar   
     8    6    9 1    
     9    9   10 1    
    10   10   11 1    
    11   11   12 1    
    12   11   13 1    
    13   12   17 1    
    14   13   14 1    
    15   13   15 1    
    16   15   16 1    
    17   15   17 1    
    18   17   18 1    
    19   18   19 1    
    20   18   28 1    
    21   19   20 2    
    22   20   21 1    
    23   21   22 1    
    24   21   28 2    
    25   22   23 2    
    26   22   24 am   
    27   24   25 1    
    28   25   26 1    
    29   25   27 2    
    30   27   28 1    
@<TRIPOS>SUBSTRUCTURE
     1 GDP502      1 GROUP   
@<TRIPOS>SET
ATOM$ORANGE STATIC     ATOMS   COLORGROUP SYSTEM 
20 10 10 11 11 13 13 15 15 17 17 19 19 21 21 22 22 25 \
25 28 28 

