#    Name: 6ew0_13_GDP
#    Modification time : Fri May 22 19:38:55 2020

@<TRIPOS>MOLECULE
6ew0_13_GDP
   28    30     1     0     1
SMALL
NO_CHARGES


@<TRIPOS>ATOM
      1 PB         37.5880  142.4190  201.6640 P.3       1 GDP502      0.0000 
      2 O1B        36.6860  142.7850  200.5520 O.co2     1 GDP502      0.0000 
      3 O2B        37.2070  143.0580  202.9890 O.co2     1 GDP502      0.0000 
      4 O3B        39.0500  142.7260  201.3820 O.co2     1 GDP502      0.0000 
      5 O3A        37.5320  140.8460  201.8880 O.3       1 GDP502      0.0000 
      6 PA         38.3320  139.6880  201.1490 P.3       1 GDP502      0.0000 
      7 O1A        39.0740  140.3240  199.9870 O.co2     1 GDP502      0.0000 
      8 O2A        39.2890  139.0780  202.0880 O.co2     1 GDP502      0.0000 
      9 O5'        37.2860  138.6640  200.5650 O.3       1 GDP502      0.0000 
     10 C5'        37.0060  137.3600  201.1110 C.3       1 GDP502      0.0000 
     11 C4'        36.7430  136.4090  199.9720 C.3       1 GDP502      0.0000 
     12 O4'        37.9050  136.3580  199.1150 O.3       1 GDP502      0.0000 
     13 C3'        36.4710  134.9660  200.3800 C.3       1 GDP502      0.0000 
     14 O3'        35.5910  134.3400  199.4560 O.3       1 GDP502      0.0000 
     15 C2'        37.8630  134.3440  200.3280 C.3       1 GDP502      0.0000 
     16 O2'        37.8010  132.9450  200.0860 O.3       1 GDP502      0.0000 
     17 C1'        38.4470  135.0530  199.1140 C.3       1 GDP502      0.0000 
     18 N9         39.9050  135.1670  199.1550 N.pl3     1 GDP502      0.0000 
     19 C8         40.6590  135.8690  200.0530 C.2       1 GDP502      0.0000 
     20 N7         41.9420  135.8350  199.7870 N.2       1 GDP502      0.0000 
     21 C5         42.0320  135.0580  198.6450 C.2       1 GDP502      0.0000 
     22 C6         43.1520  134.6860  197.8580 C.2       1 GDP502      0.0000 
     23 O6         44.3300  134.9690  198.0570 O.2       1 GDP502      0.0000 
     24 N1         42.7930  133.9170  196.7720 N.am      1 GDP502      0.0000 
     25 C2         41.5200  133.5300  196.4680 C.2       1 GDP502      0.0000 
     26 N2         41.3600  132.7650  195.3890 N.pl3     1 GDP502      0.0000 
     27 N3         40.4620  133.8730  197.1950 N.2       1 GDP502      0.0000 
     28 C4         40.7850  134.6330  198.2540 C.2       1 GDP502      0.0000 
@<TRIPOS>BOND
     1    1    2 ar   
     2    1    3 ar   
     3    1    4 ar   
     4    1    5 1    
     5    5    6 1    
     6    6    7 ar   
     7    6    8 ar   
     8    6    9 1    
     9    9   10 1    
    10   10   11 1    
    11   11   12 1    
    12   11   13 1    
    13   12   17 1    
    14   13   14 1    
    15   13   15 1    
    16   15   16 1    
    17   15   17 1    
    18   17   18 1    
    19   18   19 1    
    20   18   28 1    
    21   19   20 2    
    22   20   21 1    
    23   21   22 1    
    24   21   28 2    
    25   22   23 2    
    26   22   24 am   
    27   24   25 1    
    28   25   26 1    
    29   25   27 2    
    30   27   28 1    
@<TRIPOS>SUBSTRUCTURE
     1 GDP502      1 GROUP   
@<TRIPOS>SET
ATOM$ORANGE STATIC     ATOMS   COLORGROUP SYSTEM 
20 10 10 11 11 13 13 15 15 17 17 19 19 21 21 22 22 25 \
25 28 28 

