#    Name: 6oms_2_AMP
#    Modification time : Fri May 22 19:41:11 2020

@<TRIPOS>MOLECULE
6oms_2_AMP
   23    25     1     0     1
SMALL
NO_CHARGES


@<TRIPOS>ATOM
      1 P         -29.3480  -12.9880   -4.2830 P.3       1 AMP601      0.0000 
      2 O1P       -28.2810  -13.2840   -5.3140 O.co2     1 AMP601      0.0000 
      3 O2P       -29.0210  -13.4070   -2.8750 O.co2     1 AMP601      0.0000 
      4 O3P       -30.7450  -13.3700   -4.7070 O.co2     1 AMP601      0.0000 
      5 O5'       -29.2970  -11.4010   -4.1960 O.3       1 AMP601      0.0000 
      6 C5'       -30.4630  -10.6080   -4.0380 C.3       1 AMP601      0.0000 
      7 C4'       -30.0730   -9.1610   -3.8660 C.3       1 AMP601      0.0000 
      8 O4'       -30.2310   -8.4550   -5.1240 O.3       1 AMP601      0.0000 
      9 C3'       -30.8930   -8.3430   -2.8890 C.3       1 AMP601      0.0000 
     10 O3'       -30.5530   -8.5860   -1.5310 O.3       1 AMP601      0.0000 
     11 C2'       -30.6240   -6.9210   -3.3670 C.3       1 AMP601      0.0000 
     12 O2'       -29.3290   -6.4850   -2.9850 O.3       1 AMP601      0.0000 
     13 C1'       -30.6390   -7.1230   -4.8790 C.3       1 AMP601      0.0000 
     14 N9        -32.0110   -6.9730   -5.3650 N.pl3     1 AMP601      0.0000 
     15 C8        -32.9240   -7.9650   -5.4480 C.2       1 AMP601      0.0000 
     16 N7        -34.1180   -7.4800   -5.8660 N.2       1 AMP601      0.0000 
     17 C5        -33.9630   -6.1530   -6.0340 C.ar      1 AMP601      0.0000 
     18 C6        -34.8360   -5.0410   -6.4480 C.ar      1 AMP601      0.0000 
     19 N6        -36.1260   -5.2730   -6.7810 N.pl3     1 AMP601      0.0000 
     20 N1        -34.2970   -3.8000   -6.4820 N.ar      1 AMP601      0.0000 
     21 C2        -33.0090   -3.5720   -6.1530 C.ar      1 AMP601      0.0000 
     22 N3        -32.1530   -4.5350   -5.7670 N.ar      1 AMP601      0.0000 
     23 C4        -32.5790   -5.8180   -5.6860 C.ar      1 AMP601      0.0000 
@<TRIPOS>BOND
     1    1    2 ar   
     2    1    3 ar   
     3    1    4 ar   
     4    1    5 1    
     5    5    6 1    
     6    6    7 1    
     7    7    8 1    
     8    7    9 1    
     9    8   13 1    
    10    9   10 1    
    11    9   11 1    
    12   11   12 1    
    13   11   13 1    
    14   13   14 1    
    15   14   15 1    
    16   14   23 1    
    17   15   16 2    
    18   16   17 1    
    19   17   18 ar   
    20   17   23 ar   
    21   18   19 1    
    22   18   20 ar   
    23   20   21 ar   
    24   21   22 ar   
    25   22   23 ar   
@<TRIPOS>SUBSTRUCTURE
     1 AMP601      1 GROUP   
@<TRIPOS>SET
ATOM$ORANGE STATIC     ATOMS   COLORGROUP SYSTEM 
20 6 6 7 7 9 9 11 11 13 13 15 15 17 17 18 18 21 \
21 23 23 

