#    Name: 6oms_1_ISJ
#    Modification time : Fri May 22 19:41:01 2020

@<TRIPOS>MOLECULE
6oms_1_ISJ
   24    24     1     0     0
SMALL
NO_CHARGES


@<TRIPOS>ATOM
      1 C1         -0.8930  -18.0870  -46.3790 C.3       1 ISJ602      0.0000 
      2 C2          0.2160  -17.4480  -45.4840 C.2       1 ISJ602      0.0000 
      3 C3          1.1360  -18.1950  -44.8790 C.2       1 ISJ602      0.0000 
      4 C4          1.0190  -19.6960  -44.9870 C.2       1 ISJ602      0.0000 
      5 C5         -0.1270  -20.2050  -45.2620 C.2       1 ISJ602      0.0000 
      6 C6         -0.8750  -19.6290  -46.4370 C.3       1 ISJ602      0.0000 
      7 C7          2.5310  -17.7670  -44.3930 C.2       1 ISJ602      0.0000 
      8 O8          3.4140  -18.6210  -44.4980 O.co2     1 ISJ602      0.0000 
      9 O9          2.8190  -16.6600  -43.8660 O.co2     1 ISJ602      0.0000 
     10 O10        -2.1500  -20.1880  -46.4250 O.3       1 ISJ602      0.0000 
     11 O11        -0.6970  -17.7410  -47.7080 O.3       1 ISJ602      0.0000 
     12 C12        -1.3750  -16.6660  -48.2650 C.2       1 ISJ602      0.0000 
     13 C13        -0.6520  -15.4240  -48.7340 C.2       1 ISJ602      0.0000 
     14 O14        -0.0400  -15.4470  -49.8400 O.co2     1 ISJ602      0.0000 
     15 O15        -0.7280  -14.3860  -48.0320 O.co2     1 ISJ602      0.0000 
     16 C16        -2.6680  -16.7210  -48.3980 C.2       1 ISJ602      0.0000 
     17 H1         -1.7650  -17.7840  -46.0840 H         1 ISJ602      0.0000 
     18 H2          0.2290  -16.5260  -45.3660 H         1 ISJ602      0.0000 
     19 H4          1.7130  -20.2400  -44.6910 H         1 ISJ602      0.0000 
     20 H5         -0.3540  -21.0440  -44.9330 H         1 ISJ602      0.0000 
     21 H6         -0.4220  -19.8990  -47.2510 H         1 ISJ602      0.0000 
     22 HO10       -2.5810  -19.9240  -47.1080 H         1 ISJ602      0.0000 
     23 H16        -3.1330  -17.4750  -48.1160 H         1 ISJ602      0.0000 
     24 H16A       -3.1280  -16.0030  -48.7710 H         1 ISJ602      0.0000 
@<TRIPOS>BOND
     1    1    2 1    
     2    1    6 1    
     3    1   11 1    
     4    1   17 1    
     5    2    3 2    
     6    3    4 1    
     7    2   18 1    
     8    3    7 1    
     9    4    5 2    
    10    5    6 1    
    11    4   19 1    
    12    6   10 1    
    13    5   20 1    
    14    6   21 1    
    15   10   22 1    
    16    7    8 ar   
    17    7    9 ar   
    18   11   12 1    
    19   12   13 1    
    20   12   16 2    
    21   13   14 ar   
    22   13   15 ar   
    23   16   23 1    
    24   16   24 1    
@<TRIPOS>SUBSTRUCTURE
     1 ISJ602      1 GROUP   
@<TRIPOS>SET

