#    Name: 6oms_2_AMP_CAVITY_N1_4
#    Modification time : Fri May 22 19:41:13 2020

@<TRIPOS>MOLECULE
6oms_2_AMP_CAVITY_N1_4
  104     0     7     0     0
SMALL
NO_CHARGES


@<TRIPOS>ATOM
      1 OG        -35.7000   -4.8800   -6.8900 O.3       1 SER1        0.0000 
      2 OG        -34.5500   -4.6300   -5.9500 O.3       1 SER1        0.0000 
      3 OG        -33.5800   -3.4900   -7.4600 O.3       1 SER1        0.0000 
      4 OG        -30.5500  -13.9800   -5.9300 O.3       1 SER1        0.0000 
      5 OG        -29.5700  -11.4000   -7.8400 O.3       1 SER1        0.0000 
      6 OG        -29.5800  -12.8500   -7.4400 O.3       1 SER1        0.0000 
      7 OG        -28.6000  -11.7100   -8.9400 O.3       1 SER1        0.0000 
      8 OG        -29.3900  -10.8400   -5.8000 O.3       1 SER1        0.0000 
      9 OG        -29.4000  -12.2800   -5.4000 O.3       1 SER1        0.0000 
     10 OG        -29.4000  -13.7300   -5.0000 O.3       1 SER1        0.0000 
     11 OG        -29.2100  -10.2800   -3.7600 O.3       1 SER1        0.0000 
     12 OG        -29.2200  -11.7200   -3.3600 O.3       1 SER1        0.0000 
     13 OG        -29.2300  -13.1700   -2.9600 O.3       1 SER1        0.0000 
     14 OG        -28.2600  -13.4800   -4.0700 O.3       1 SER1        0.0000 
     15 OG        -28.0700  -11.4700   -2.4300 O.3       1 SER1        0.0000 
     16 N         -36.8700   -9.4700   -6.6200 N.am      2 ALA2        0.0000 
     17 N         -35.8900   -8.3300   -8.1200 N.am      2 ALA2        0.0000 
     18 N         -35.9000   -9.7800   -7.7300 N.am      2 ALA2        0.0000 
     19 N         -35.7100   -6.3300   -6.4900 N.am      2 ALA2        0.0000 
     20 N         -35.7100   -7.7700   -6.0900 N.am      2 ALA2        0.0000 
     21 N         -34.7600   -9.5300   -6.7900 N.am      2 ALA2        0.0000 
     22 N         -34.7600  -10.9700   -6.3900 N.am      2 ALA2        0.0000 
     23 N         -33.6100   -9.2800   -5.8600 N.am      2 ALA2        0.0000 
     24 N         -32.6600  -12.4800   -6.1600 N.am      2 ALA2        0.0000 
     25 N         -32.4500   -7.5800   -5.3200 N.am      2 ALA2        0.0000 
     26 N         -31.5000  -10.7800   -5.6300 N.am      2 ALA2        0.0000 
     27 O         -31.5200  -13.6700   -4.8300 O.2       2 ALA2        0.0000 
     28 N         -28.6200  -16.0500   -7.7400 N.am      2 ALA2        0.0000 
     29 N         -31.3100   -7.3300   -4.3900 N.am      2 ALA2        0.0000 
     30 N         -31.3200   -8.7700   -3.9900 N.am      2 ALA2        0.0000 
     31 N         -31.3200  -10.2200   -3.5900 N.am      2 ALA2        0.0000 
     32 O         -30.3700  -13.4200   -3.9000 O.2       2 ALA2        0.0000 
     33 O         -28.4400  -14.0400   -6.1000 O.2       2 ALA2        0.0000 
     34 O         -27.4700  -14.3500   -7.2100 O.2       2 ALA2        0.0000 
     35 OD1       -29.5500   -8.5100   -8.6400 O.co2     3 ASP3        0.0000 
     36 OD1       -29.5600   -9.9500   -8.2400 O.co2     3 ASP3        0.0000 
     37 OD1       -30.3500   -9.0800   -5.0900 O.co2     3 ASP3        0.0000 
     38 OD1       -29.3700   -7.9500   -6.6000 O.co2     3 ASP3        0.0000 
     39 OD1       -29.3800   -9.3900   -6.2000 O.co2     3 ASP3        0.0000 
     40 OD1       -30.0000   -9.4000   -0.6200 O.co2     3 ASP3        0.0000 
     41 OD1       -29.0200   -8.2700   -2.1200 O.co2     3 ASP3        0.0000 
     42 OD1       -29.0300   -9.7200   -1.7200 O.co2     3 ASP3        0.0000 
     43 OD1       -29.0400  -11.1600   -1.3200 O.co2     3 ASP3        0.0000 
     44 OD1       -28.0600  -10.0300   -2.8300 O.co2     3 ASP3        0.0000 
     45 NZ        -31.1400   -8.2100   -1.9500 N.4       4 LYS4        0.0000 
     46 NZ        -30.1600   -7.0800   -3.4600 N.4       4 LYS4        0.0000 
     47 NZ        -30.1700   -8.5200   -3.0600 N.4       4 LYS4        0.0000 
     48 NZ        -29.0500  -12.6100   -0.9200 N.4       4 LYS4        0.0000 
     49 CZ        -34.7500   -8.0800   -7.1900 C.ar      5 PHE5        0.0000 
     50 CZ        -33.8000  -11.2800   -7.5000 C.ar      5 PHE5        0.0000 
     51 CZ        -35.5200   -4.3200   -4.8500 C.ar      5 PHE5        0.0000 
     52 CZ        -34.5600   -6.0700   -5.5500 C.ar      5 PHE5        0.0000 
     53 CZ        -34.5700   -7.5200   -5.1500 C.ar      5 PHE5        0.0000 
     54 CZ        -33.5900   -6.3800   -6.6600 C.ar      5 PHE5        0.0000 
     55 CZ        -33.6000   -7.8300   -6.2600 C.ar      5 PHE5        0.0000 
     56 CZ        -32.6300   -6.6900   -7.7600 C.ar      5 PHE5        0.0000 
     57 CZ        -32.6400   -9.5900   -6.9600 C.ar      5 PHE5        0.0000 
     58 CZ        -32.6500  -11.0300   -6.5600 C.ar      5 PHE5        0.0000 
     59 CZ        -31.6800  -11.3400   -7.6700 C.ar      5 PHE5        0.0000 
     60 CZ        -30.7200  -13.1000   -8.3700 C.ar      5 PHE5        0.0000 
     61 CZ        -33.4100   -4.3800   -5.0200 C.ar      5 PHE5        0.0000 
     62 CZ        -33.4100   -5.8200   -4.6200 C.ar      5 PHE5        0.0000 
     63 CZ        -33.4200   -7.2700   -4.2200 C.ar      5 PHE5        0.0000 
     64 CZ        -31.4800   -6.4400   -6.8300 C.ar      5 PHE5        0.0000 
     65 CZ        -31.4900   -7.8900   -6.4300 C.ar      5 PHE5        0.0000 
     66 CZ        -31.5000   -9.3300   -6.0300 C.ar      5 PHE5        0.0000 
     67 CZ        -30.5200   -8.2000   -7.5300 C.ar      5 PHE5        0.0000 
     68 CZ        -30.5300   -9.6400   -7.1300 C.ar      5 PHE5        0.0000 
     69 CZ        -30.5400  -11.0900   -6.7300 C.ar      5 PHE5        0.0000 
     70 CZ        -32.2700   -5.5700   -3.6900 C.ar      5 PHE5        0.0000 
     71 CZ        -32.2800   -7.0200   -3.2900 C.ar      5 PHE5        0.0000 
     72 CZ        -31.2900   -4.4400   -5.1900 C.ar      5 PHE5        0.0000 
     73 CZ        -31.3000   -5.8800   -4.7900 C.ar      5 PHE5        0.0000 
     74 CZ        -30.1500   -5.6300   -3.8600 C.ar      5 PHE5        0.0000 
     75 CA        -34.7400   -6.6400   -7.5900 C.3       6 GLY6        0.0000 
     76 CA        -33.8100  -14.1800   -6.7000 C.3       6 GLY6        0.0000 
     77 CA        -33.5900   -4.9400   -7.0600 C.3       6 GLY6        0.0000 
     78 CA        -33.6300  -13.6100   -4.6600 C.3       6 GLY6        0.0000 
     79 CA        -32.6200   -5.2500   -8.1600 C.3       6 GLY6        0.0000 
     80 CA        -32.6700  -13.9200   -5.7600 C.3       6 GLY6        0.0000 
     81 CA        -31.7000  -14.2300   -6.8700 C.3       6 GLY6        0.0000 
     82 CA        -31.5100  -12.2300   -5.2300 C.3       6 GLY6        0.0000 
     83 CA        -28.6100  -13.1600   -8.5400 C.3       6 GLY6        0.0000 
     84 CA        -30.3400   -7.6400   -5.4900 C.3       6 GLY6        0.0000 
     85 CA        -30.3600  -11.9700   -4.3000 C.3       6 GLY6        0.0000 
     86 CA        -29.3700   -6.5000   -7.0000 C.3       6 GLY6        0.0000 
     87 CA        -26.5000  -14.6600   -8.3100 C.3       6 GLY6        0.0000 
     88 CA        -31.1400   -9.6600   -1.5500 C.3       6 GLY6        0.0000 
     89 CA        -30.1800   -9.9700   -2.6600 C.3       6 GLY6        0.0000 
     90 CA        -30.1800  -11.4100   -2.2600 C.3       6 GLY6        0.0000 
     91 CA        -29.1900   -5.9400   -4.9600 C.3       6 GLY6        0.0000 
     92 CA        -29.1900   -7.3900   -4.5600 C.3       6 GLY6        0.0000 
     93 CA        -29.2000   -8.8300   -4.1600 C.3       6 GLY6        0.0000 
     94 CA        -30.0100  -10.8500   -0.2200 C.3       6 GLY6        0.0000 
     95 CA        -28.0500   -7.1300   -3.6300 C.3       6 GLY6        0.0000 
     96 DU        -33.8000  -12.7300   -7.1000 H         7 CUB7        0.0000 
     97 DU        -31.6900  -12.7900   -7.2700 H         7 CUB7        0.0000 
     98 DU        -30.7300  -14.5400   -7.9700 H         7 CUB7        0.0000 
     99 DU        -32.4400   -4.6900   -6.1200 H         7 CUB7        0.0000 
    100 DU        -32.4500   -6.1300   -5.7200 H         7 CUB7        0.0000 
    101 DU        -30.5400  -12.5400   -6.3300 H         7 CUB7        0.0000 
    102 DU        -29.5800  -14.2900   -7.0400 H         7 CUB7        0.0000 
    103 DU        -28.6200  -14.6000   -8.1400 H         7 CUB7        0.0000 
    104 DU        -30.3300   -6.1900   -5.8900 H         7 CUB7        0.0000 
@<TRIPOS>BOND
@<TRIPOS>SUBSTRUCTURE
     1 SER1        1 GROUP   
     2 ALA2       16 GROUP   
     3 ASP3       35 GROUP   
     4 LYS4       45 GROUP   
     5 PHE5       49 GROUP   
     6 GLY6       75 GROUP   
     7 CUB7       96 GROUP   
@<TRIPOS>SET

