#    Name: 6n2i_1_ADP
#    Modification time : Fri May 22 19:25:19 2020

@<TRIPOS>MOLECULE
6n2i_1_ADP
   27    29     1     0     1
SMALL
NO_CHARGES


@<TRIPOS>ATOM
      1 PB        -21.7120   58.7640   14.4440 P.3       1 ADP601      0.0000 
      2 O1B       -22.2930   59.0460   13.0790 O.co2     1 ADP601      0.0000 
      3 O2B       -21.6080   59.9760   15.3370 O.co2     1 ADP601      0.0000 
      4 O3B       -22.2900   57.5460   15.1200 O.co2     1 ADP601      0.0000 
      5 PA        -19.8450   57.1000   13.1990 P.3       1 ADP601      0.0000 
      6 O1A       -20.4460   57.3810   11.8440 O.co2     1 ADP601      0.0000 
      7 O2A       -20.1990   55.8310   13.9370 O.co2     1 ADP601      0.0000 
      8 O3A       -20.1800   58.3540   14.1530 O.3       1 ADP601      0.0000 
      9 O5'       -18.2460   57.1600   13.0300 O.3       1 ADP601      0.0000 
     10 C5'       -17.6790   56.6860   11.8100 C.3       1 ADP601      0.0000 
     11 C4'       -16.2170   56.3000   11.9870 C.3       1 ADP601      0.0000 
     12 O4'       -15.9020   56.0970   13.3670 O.3       1 ADP601      0.0000 
     13 C3'       -15.9280   54.9990   11.2560 C.3       1 ADP601      0.0000 
     14 O3'       -15.0190   55.2300   10.1760 O.3       1 ADP601      0.0000 
     15 C2'       -15.2960   54.0810   12.2800 C.3       1 ADP601      0.0000 
     16 O2'       -14.0280   53.6130   11.8100 O.3       1 ADP601      0.0000 
     17 C1'       -15.1090   54.9180   13.5340 C.3       1 ADP601      0.0000 
     18 N9        -15.5820   54.1810   14.7310 N.pl3     1 ADP601      0.0000 
     19 C8        -16.4400   54.6680   15.6440 C.2       1 ADP601      0.0000 
     20 N7        -16.6700   53.7680   16.6330 N.2       1 ADP601      0.0000 
     21 C5        -15.9530   52.6680   16.3510 C.ar      1 ADP601      0.0000 
     22 C6        -15.7450   51.3440   16.9790 C.ar      1 ADP601      0.0000 
     23 N6        -16.3720   51.0090   18.1340 N.pl3     1 ADP601      0.0000 
     24 N1        -14.9100   50.4820   16.3600 N.ar      1 ADP601      0.0000 
     25 C2        -14.2820   50.7990   15.2140 C.ar      1 ADP601      0.0000 
     26 N3        -14.4230   51.9820   14.5910 N.ar      1 ADP601      0.0000 
     27 C4        -15.2290   52.9450   15.1000 C.ar      1 ADP601      0.0000 
@<TRIPOS>BOND
     1    1    2 ar   
     2    1    3 ar   
     3    1    4 ar   
     4    1    8 1    
     5    5    6 ar   
     6    5    7 ar   
     7    5    8 1    
     8    5    9 1    
     9    9   10 1    
    10   10   11 1    
    11   11   12 1    
    12   11   13 1    
    13   12   17 1    
    14   13   14 1    
    15   13   15 1    
    16   15   16 1    
    17   15   17 1    
    18   17   18 1    
    19   18   19 1    
    20   18   27 1    
    21   19   20 2    
    22   20   21 1    
    23   21   22 ar   
    24   21   27 ar   
    25   22   23 1    
    26   22   24 ar   
    27   24   25 ar   
    28   25   26 ar   
    29   26   27 ar   
@<TRIPOS>SUBSTRUCTURE
     1 ADP601      1 GROUP   
@<TRIPOS>SET
ATOM$ORANGE STATIC     ATOMS   COLORGROUP SYSTEM 
20 10 10 11 11 13 13 15 15 17 17 19 19 21 21 22 22 25 \
25 27 27 

