#    Name: 5z21_5_NAI
#    Modification time : Fri May 22 19:27:03 2020

@<TRIPOS>MOLECULE
5z21_5_NAI
   44    48     1     0     1
SMALL
NO_CHARGES


@<TRIPOS>ATOM
      1 PA         -2.7730   42.9310  111.7840 P.3       1 NAI401      0.0000 
      2 O1A        -3.6960   42.1750  112.6600 O.co2     1 NAI401      0.0000 
      3 O2A        -1.4390   43.3550  112.3910 O.co2     1 NAI401      0.0000 
      4 O5B        -3.4660   44.2220  111.1600 O.3       1 NAI401      0.0000 
      5 C5B        -4.8420   44.1580  110.8080 C.3       1 NAI401      0.0000 
      6 C4B        -5.3590   45.5990  110.7710 C.3       1 NAI401      0.0000 
      7 O4B        -6.5210   45.6580  109.9290 O.3       1 NAI401      0.0000 
      8 C3B        -5.7580   46.0580  112.1700 C.3       1 NAI401      0.0000 
      9 O3B        -5.4990   47.4680  112.3660 O.3       1 NAI401      0.0000 
     10 C2B        -7.2350   45.7500  112.1840 C.3       1 NAI401      0.0000 
     11 O2B        -8.0330   46.5740  113.0560 O.3       1 NAI401      0.0000 
     12 C1B        -7.5470   46.1430  110.7610 C.3       1 NAI401      0.0000 
     13 N9A        -8.8990   45.7370  110.3790 N.pl3     1 NAI401      0.0000 
     14 C8A        -9.6870   44.7010  110.8040 C.2       1 NAI401      0.0000 
     15 N7A       -10.8750   44.7470  110.1760 N.2       1 NAI401      0.0000 
     16 C5A       -10.8470   45.8600  109.4080 C.ar      1 NAI401      0.0000 
     17 C6A       -11.7350   46.5720  108.4830 C.ar      1 NAI401      0.0000 
     18 N6A       -12.9650   46.1190  108.2260 N.pl3     1 NAI401      0.0000 
     19 N1A       -11.3180   47.6850  107.8640 N.ar      1 NAI401      0.0000 
     20 C2A       -10.0910   48.1910  108.0600 C.ar      1 NAI401      0.0000 
     21 N3A        -9.2120   47.6240  108.8960 N.ar      1 NAI401      0.0000 
     22 C4A        -9.5470   46.4920  109.5550 C.ar      1 NAI401      0.0000 
     23 O3         -2.4380   42.0260  110.4770 O.3       1 NAI401      0.0000 
     24 PN         -1.1260   42.3690  109.5960 P.3       1 NAI401      0.0000 
     25 O1N         0.0700   41.5550  110.0730 O.co2     1 NAI401      0.0000 
     26 O2N        -1.0780   43.8980  109.4250 O.co2     1 NAI401      0.0000 
     27 O5D        -1.7120   41.8480  108.2370 O.3       1 NAI401      0.0000 
     28 C5D        -2.1460   40.5350  108.1950 C.3       1 NAI401      0.0000 
     29 C4D        -3.0760   40.5800  107.0260 C.3       1 NAI401      0.0000 
     30 O4D        -2.3850   40.8160  105.7590 O.3       1 NAI401      0.0000 
     31 C3D        -3.6100   39.1710  107.1050 C.3       1 NAI401      0.0000 
     32 O3D        -4.9500   39.2440  107.5940 O.3       1 NAI401      0.0000 
     33 C2D        -3.4390   38.6510  105.6930 C.3       1 NAI401      0.0000 
     34 O2D        -4.7690   38.5790  105.1730 O.3       1 NAI401      0.0000 
     35 C1D        -2.4960   39.6190  104.9500 C.3       1 NAI401      0.0000 
     36 N1N        -1.1920   38.9940  104.7100 N.pl3     1 NAI401      0.0000 
     37 C2N        -0.7320   38.7470  103.4450 C.2       1 NAI401      0.0000 
     38 C3N         0.5060   38.1300  103.1600 C.2       1 NAI401      0.0000 
     39 C7N         1.0100   37.8670  101.7410 C.2       1 NAI401      0.0000 
     40 O7N         1.9260   37.0810  101.5120 O.2       1 NAI401      0.0000 
     41 N7N         0.4680   38.4740  100.7000 N.am      1 NAI401      0.0000 
     42 C4N         1.2960   37.7530  104.2220 C.3       1 NAI401      0.0000 
     43 C5N         0.8210   38.0070  105.5090 C.2       1 NAI401      0.0000 
     44 C6N        -0.4190   38.6230  105.7400 C.2       1 NAI401      0.0000 
@<TRIPOS>BOND
     1    1    2 ar   
     2    1    3 ar   
     3    1    4 1    
     4    1   23 1    
     5    4    5 1    
     6    5    6 1    
     7    6    7 1    
     8    6    8 1    
     9    7   12 1    
    10    8    9 1    
    11    8   10 1    
    12   10   11 1    
    13   10   12 1    
    14   12   13 1    
    15   13   14 1    
    16   13   22 1    
    17   14   15 2    
    18   15   16 1    
    19   16   17 ar   
    20   16   22 ar   
    21   17   18 1    
    22   17   19 ar   
    23   19   20 ar   
    24   20   21 ar   
    25   21   22 ar   
    26   23   24 1    
    27   24   25 ar   
    28   24   26 ar   
    29   24   27 1    
    30   27   28 1    
    31   28   29 1    
    32   29   30 1    
    33   29   31 1    
    34   30   35 1    
    35   31   32 1    
    36   31   33 1    
    37   33   34 1    
    38   33   35 1    
    39   35   36 1    
    40   36   37 1    
    41   36   44 1    
    42   37   38 2    
    43   38   39 1    
    44   38   42 1    
    45   39   40 2    
    46   39   41 am   
    47   42   43 1    
    48   43   44 2    
@<TRIPOS>SUBSTRUCTURE
     1 NAI401      1 GROUP   
@<TRIPOS>SET
ATOM$ORANGE STATIC     ATOMS   COLORGROUP SYSTEM 
42 5 5 6 6 8 8 10 10 12 12 14 14 16 16 17 17 20 \
20 22 22 28 28 29 29 31 31 33 33 35 35 37 37 38 38 39 \
39 42 42 43 43 44 44 

