#    Name: 6j7a_2_FMN_CAVITY_N1_4
#    Modification time : Fri May 22 19:34:39 2020

@<TRIPOS>MOLECULE
6j7a_2_FMN_CAVITY_N1_4
   80     0     7     0     0
SMALL
NO_CHARGES


@<TRIPOS>ATOM
      1 OG        -18.9500    8.3500  -50.6400 O.3       1 SER1        0.0000 
      2 OG        -20.7400    9.3200  -47.9700 O.3       1 SER1        0.0000 
      3 OG        -18.2000    9.0700  -49.5500 O.3       1 SER1        0.0000 
      4 OG        -18.7200    9.9100  -47.6700 O.3       1 SER1        0.0000 
      5 OG        -18.4400    8.6000  -47.0100 O.3       1 SER1        0.0000 
      6 OG        -17.4600    9.7800  -48.4600 O.3       1 SER1        0.0000 
      7 OG        -17.1700    8.4700  -47.7900 O.3       1 SER1        0.0000 
      8 OG        -17.2800   13.1200  -48.7100 O.3       1 SER1        0.0000 
      9 OG        -15.7200   11.6800  -48.8300 O.3       1 SER1        0.0000 
     10 OG        -14.4500   11.5500  -49.6200 O.3       1 SER1        0.0000 
     11 OG        -16.5300   13.8400  -47.6300 O.3       1 SER1        0.0000 
     12 OG        -16.2400   12.5200  -46.9600 O.3       1 SER1        0.0000 
     13 OG        -14.9800   12.4000  -47.7500 O.3       1 SER1        0.0000 
     14 OG        -13.7100   12.2700  -48.5400 O.3       1 SER1        0.0000 
     15 OG        -12.7200   13.4500  -50.0000 O.3       1 SER1        0.0000 
     16 OG        -15.5000   13.2400  -45.8700 O.3       1 SER1        0.0000 
     17 OG        -14.2300   13.1100  -46.6600 O.3       1 SER1        0.0000 
     18 OG        -12.9600   12.9800  -47.4500 O.3       1 SER1        0.0000 
     19 OG        -11.6900   12.8600  -48.2400 O.3       1 SER1        0.0000 
     20 O         -19.9800    8.9500  -52.3900 O.2       2 ALA2        0.0000 
     21 O         -18.4300    7.5100  -52.5100 O.2       2 ALA2        0.0000 
     22 N         -16.8800    6.0700  -52.6300 N.am      2 ALA2        0.0000 
     23 N         -17.6800    8.2200  -51.4200 N.am      2 ALA2        0.0000 
     24 N         -16.1300    6.7800  -51.5500 N.am      2 ALA2        0.0000 
     25 N         -16.9300    8.9400  -50.3400 N.am      2 ALA2        0.0000 
     26 N         -15.3800    7.5000  -50.4600 N.am      2 ALA2        0.0000 
     27 N         -14.9200    9.5300  -50.0400 N.am      2 ALA2        0.0000 
     28 N         -14.6300    8.2100  -49.3700 N.am      2 ALA2        0.0000 
     29 N         -13.6500    9.4000  -50.8300 N.am      2 ALA2        0.0000 
     30 N         -12.9000   10.1100  -49.7400 N.am      2 ALA2        0.0000 
     31 N         -11.8700    9.5200  -47.9900 N.am      2 ALA2        0.0000 
     32 OD1       -13.4800   13.8300  -45.5800 O.co2     3 ASP3        0.0000 
     33 OD1       -11.1800   13.1000  -44.6100 O.co2     3 ASP3        0.0000 
     34 NZ        -16.4200    9.1800  -46.7100 N.4       4 LYS4        0.0000 
     35 NZ        -15.4400   10.3700  -48.1700 N.4       4 LYS4        0.0000 
     36 NZ        -15.1500    9.0600  -47.5000 N.4       4 LYS4        0.0000 
     37 NZ        -13.8900    8.9300  -48.2900 N.4       4 LYS4        0.0000 
     38 NZ        -15.9600   11.2100  -46.2900 N.4       4 LYS4        0.0000 
     39 NZ        -15.6800    9.9000  -45.6200 N.4       4 LYS4        0.0000 
     40 NZ        -14.6900   11.0800  -47.0800 N.4       4 LYS4        0.0000 
     41 NZ        -13.4200   10.9600  -47.8700 N.4       4 LYS4        0.0000 
     42 NZ        -15.2100   11.9300  -45.2000 N.4       4 LYS4        0.0000 
     43 NZ        -12.6700   11.6700  -46.7800 N.4       4 LYS4        0.0000 
     44 NZ        -13.2000   12.5100  -44.9100 N.4       4 LYS4        0.0000 
     45 NZ        -11.9300   12.3900  -45.7000 N.4       4 LYS4        0.0000 
     46 CZ        -20.9700    7.7600  -50.9300 C.ar      5 PHE5        0.0000 
     47 CZ        -19.7000    7.6400  -51.7200 C.ar      5 PHE5        0.0000 
     48 CZ        -18.1400    6.2000  -51.8400 C.ar      5 PHE5        0.0000 
     49 CZ        -16.5900    4.7600  -51.9600 C.ar      5 PHE5        0.0000 
     50 CZ        -19.2300    9.6600  -51.3000 C.ar      5 PHE5        0.0000 
     51 CZ        -17.4000    6.9100  -50.7600 C.ar      5 PHE5        0.0000 
     52 CZ        -15.8400    5.4700  -50.8800 C.ar      5 PHE5        0.0000 
     53 CZ        -18.4900   10.3800  -50.2200 C.ar      5 PHE5        0.0000 
     54 CZ        -16.6500    7.6300  -49.6700 C.ar      5 PHE5        0.0000 
     55 CZ        -19.2900   12.5300  -49.0100 C.ar      5 PHE5        0.0000 
     56 CZ        -17.7400   11.0900  -49.1300 C.ar      5 PHE5        0.0000 
     57 CZ        -16.4700   10.9700  -49.9200 C.ar      5 PHE5        0.0000 
     58 CZ        -15.9000    8.3400  -48.5800 C.ar      5 PHE5        0.0000 
     59 CZ        -15.2000   10.8400  -50.7100 C.ar      5 PHE5        0.0000 
     60 CZ        -16.9900   11.8100  -48.0500 C.ar      5 PHE5        0.0000 
     61 CA        -17.9600    9.5400  -52.0900 C.3       6 GLY6        0.0000 
     62 CA        -15.1000    6.1900  -49.7900 C.3       6 GLY6        0.0000 
     63 CA        -20.5600   12.6600  -48.2200 C.3       6 GLY6        0.0000 
     64 CA        -20.2800   11.3500  -47.5500 C.3       6 GLY6        0.0000 
     65 CA        -19.0100   11.2200  -48.3400 C.3       6 GLY6        0.0000 
     66 CA        -18.5400   13.2500  -47.9200 C.3       6 GLY6        0.0000 
     67 CA        -18.2600   11.9400  -47.2600 C.3       6 GLY6        0.0000 
     68 CA        -17.9800   10.6200  -46.5900 C.3       6 GLY6        0.0000 
     69 CA        -17.6900    9.3100  -45.9200 C.3       6 GLY6        0.0000 
     70 CA        -13.1800   11.4300  -50.4100 C.3       6 GLY6        0.0000 
     71 CA        -12.6200    8.8000  -49.0800 C.3       6 GLY6        0.0000 
     72 CA        -17.2300   11.3400  -45.5000 C.3       6 GLY6        0.0000 
     73 CA        -16.9500   10.0300  -44.8300 C.3       6 GLY6        0.0000 
     74 CA        -12.4400   12.1400  -49.3300 C.3       6 GLY6        0.0000 
     75 CA        -12.1500   10.8300  -48.6600 C.3       6 GLY6        0.0000 
     76 CA        -11.1700   12.0100  -50.1200 C.3       6 GLY6        0.0000 
     77 CA        -11.4100   11.5400  -47.5700 C.3       6 GLY6        0.0000 
     78 DU        -16.1900    9.6500  -49.2500 H         7 CUB7        0.0000 
     79 DU        -16.7100   10.5000  -47.3800 H         7 CUB7        0.0000 
     80 DU        -14.1700   10.2400  -48.9600 H         7 CUB7        0.0000 
@<TRIPOS>BOND
@<TRIPOS>SUBSTRUCTURE
     1 SER1        1 GROUP   
     2 ALA2       20 GROUP   
     3 ASP3       32 GROUP   
     4 LYS4       34 GROUP   
     5 PHE5       46 GROUP   
     6 GLY6       61 GROUP   
     7 CUB7       78 GROUP   
@<TRIPOS>SET

