#    Name: 6j7a_1_FAD
#    Modification time : Fri May 22 19:34:27 2020

@<TRIPOS>MOLECULE
6j7a_1_FAD
   53    58     1     0     1
SMALL
NO_CHARGES


@<TRIPOS>ATOM
      1 PA          5.5250   -4.5170  -30.5430 P.3       1 FAD902      0.0000 
      2 O1A         6.6870   -3.7320  -29.9820 O.co2     1 FAD902      0.0000 
      3 O2A         4.4190   -3.5600  -30.9380 O.co2     1 FAD902      0.0000 
      4 O5B         6.0040   -5.3860  -31.8750 O.3       1 FAD902      0.0000 
      5 C5B         5.0660   -6.2670  -32.4520 C.3       1 FAD902      0.0000 
      6 C4B         5.5380   -6.6620  -33.8810 C.3       1 FAD902      0.0000 
      7 O4B         6.4800   -7.5630  -33.8200 O.3       1 FAD902      0.0000 
      8 C3B         4.3960   -7.3560  -34.6380 C.3       1 FAD902      0.0000 
      9 O3B         3.6370   -6.4360  -35.2830 O.3       1 FAD902      0.0000 
     10 C2B         5.1330   -8.2570  -35.6500 C.3       1 FAD902      0.0000 
     11 O2B         5.3280   -7.5170  -36.9350 O.3       1 FAD902      0.0000 
     12 C1B         6.2950   -8.5230  -35.1140 C.3       1 FAD902      0.0000 
     13 N9A         6.3560   -9.9100  -34.7160 N.pl3     1 FAD902      0.0000 
     14 C8A         5.7080  -10.4670  -33.6900 C.2       1 FAD902      0.0000 
     15 N7A         6.0320  -11.7660  -33.6570 N.2       1 FAD902      0.0000 
     16 C5A         6.8820  -12.0090  -34.6660 C.ar      1 FAD902      0.0000 
     17 C6A         7.5180  -13.1590  -35.0860 C.ar      1 FAD902      0.0000 
     18 N6A         7.6110  -14.5600  -34.7230 N.pl3     1 FAD902      0.0000 
     19 N1A         8.3260  -13.1270  -36.1350 N.ar      1 FAD902      0.0000 
     20 C2A         8.5300  -11.9630  -36.7980 C.ar      1 FAD902      0.0000 
     21 N3A         7.9080  -10.8320  -36.3890 N.ar      1 FAD902      0.0000 
     22 C4A         7.0850  -10.8620  -35.3210 C.ar      1 FAD902      0.0000 
     23 N1         -2.6140   -8.2130  -26.8660 N.2       1 FAD902      0.0000 
     24 C2         -2.6580   -9.1950  -25.7570 C.2       1 FAD902      0.0000 
     25 O2         -1.7170   -9.8810  -25.5390 O.2       1 FAD902      0.0000 
     26 N3         -3.8910   -9.3110  -24.9240 N.am      1 FAD902      0.0000 
     27 C4         -5.0400   -8.4580  -25.2070 C.2       1 FAD902      0.0000 
     28 O4         -6.0230   -8.5440  -24.5510 O.2       1 FAD902      0.0000 
     29 C4X        -4.9740   -7.4610  -26.3460 C.2       1 FAD902      0.0000 
     30 N5         -6.1160   -6.6080  -26.6380 N.2       1 FAD902      0.0000 
     31 C5X        -6.0470   -5.6260  -27.7600 C.ar      1 FAD902      0.0000 
     32 C6         -7.1420   -4.8000  -28.0440 C.ar      1 FAD902      0.0000 
     33 C7         -7.0690   -3.8860  -29.0950 C.ar      1 FAD902      0.0000 
     34 C7M        -8.3870   -3.1120  -29.1960 C.3       1 FAD902      0.0000 
     35 C8         -5.9020   -3.7900  -29.8680 C.ar      1 FAD902      0.0000 
     36 C8M        -5.8690   -2.7730  -31.0080 C.3       1 FAD902      0.0000 
     37 C9         -4.8080   -4.6100  -29.5860 C.ar      1 FAD902      0.0000 
     38 C9A        -4.8780   -5.5280  -28.5370 C.ar      1 FAD902      0.0000 
     39 N10        -3.7030   -6.4020  -28.2400 N.pl3     1 FAD902      0.0000 
     40 C10        -3.7670   -7.3580  -27.1490 C.2       1 FAD902      0.0000 
     41 C1'        -2.4850   -6.2910  -29.0530 C.3       1 FAD902      0.0000 
     42 C2'        -1.4770   -5.3940  -28.3080 C.3       1 FAD902      0.0000 
     43 O2'        -1.8890   -4.0700  -28.3930 O.3       1 FAD902      0.0000 
     44 C3'        -0.0890   -5.5310  -28.9380 C.3       1 FAD902      0.0000 
     45 O3'        -0.2240   -5.6160  -30.3230 O.3       1 FAD902      0.0000 
     46 C4'         0.6110   -6.7880  -28.4040 C.3       1 FAD902      0.0000 
     47 O4'         0.3490   -6.9370  -27.0430 O.3       1 FAD902      0.0000 
     48 C5'         2.1240   -6.6560  -28.6080 C.3       1 FAD902      0.0000 
     49 O5'         2.5380   -5.3700  -28.1920 O.3       1 FAD902      0.0000 
     50 P           4.1670   -5.0730  -28.0330 P.3       1 FAD902      0.0000 
     51 O1P         4.3850   -3.5890  -27.8530 O.co2     1 FAD902      0.0000 
     52 O2P         4.7200   -5.8160  -26.8410 O.co2     1 FAD902      0.0000 
     53 O3P         4.9650   -5.5710  -29.3950 O.3       1 FAD902      0.0000 
@<TRIPOS>BOND
     1    1    2 ar   
     2    1    3 ar   
     3    1    4 1    
     4    1   53 1    
     5    4    5 1    
     6    5    6 1    
     7    6    7 1    
     8    6    8 1    
     9    7   12 1    
    10    8    9 1    
    11    8   10 1    
    12   10   11 1    
    13   10   12 1    
    14   12   13 1    
    15   13   14 1    
    16   13   22 1    
    17   14   15 2    
    18   15   16 1    
    19   16   17 ar   
    20   16   22 ar   
    21   17   18 1    
    22   17   19 ar   
    23   19   20 ar   
    24   20   21 ar   
    25   21   22 ar   
    26   23   24 1    
    27   23   40 2    
    28   24   25 2    
    29   24   26 am   
    30   26   27 am   
    31   27   28 2    
    32   27   29 1    
    33   29   30 2    
    34   29   40 1    
    35   30   31 1    
    36   31   32 ar   
    37   31   38 ar   
    38   32   33 ar   
    39   33   34 1    
    40   33   35 ar   
    41   35   36 1    
    42   35   37 ar   
    43   37   38 ar   
    44   38   39 1    
    45   39   40 1    
    46   39   41 1    
    47   41   42 1    
    48   42   43 1    
    49   42   44 1    
    50   44   45 1    
    51   44   46 1    
    52   46   47 1    
    53   46   48 1    
    54   48   49 1    
    55   49   50 1    
    56   50   51 ar   
    57   50   52 ar   
    58   50   53 1    
@<TRIPOS>SUBSTRUCTURE
     1 FAD902      1 GROUP   
@<TRIPOS>SET
ATOM$ORANGE STATIC     ATOMS   COLORGROUP SYSTEM 
54 5 5 6 6 8 8 10 10 12 12 14 14 16 16 17 17 20 \
20 22 22 24 24 27 27 29 29 31 31 32 32 33 33 34 34 35 \
35 36 36 37 37 38 38 40 40 41 41 42 42 44 44 46 46 48 \
48 

