#    Name: 6j7a_4_FMN
#    Modification time : Fri May 22 19:34:58 2020

@<TRIPOS>MOLECULE
6j7a_4_FMN
   31    33     1     0     1
SMALL
NO_CHARGES


@<TRIPOS>ATOM
      1 N1        -16.2250  -20.1520  -56.3810 N.2       1 FMN903      0.0000 
      2 C2        -15.5580  -19.1090  -55.8120 C.2       1 FMN903      0.0000 
      3 O2        -14.6500  -18.5960  -56.3740 O.2       1 FMN903      0.0000 
      4 N3        -15.9250  -18.6440  -54.5860 N.am      1 FMN903      0.0000 
      5 C4        -16.9380  -19.2070  -53.9430 C.2       1 FMN903      0.0000 
      6 O4        -17.2570  -18.8000  -52.8770 O.2       1 FMN903      0.0000 
      7 C4A       -17.6170  -20.2600  -54.5130 C.2       1 FMN903      0.0000 
      8 N5        -18.6510  -20.8270  -53.8470 N.2       1 FMN903      0.0000 
      9 C5A       -19.3210  -21.8530  -54.3910 C.ar      1 FMN903      0.0000 
     10 C6        -20.3950  -22.4330  -53.6870 C.ar      1 FMN903      0.0000 
     11 C7        -21.0980  -23.4950  -54.2370 C.ar      1 FMN903      0.0000 
     12 C7M       -22.2300  -24.0130  -53.3520 C.3       1 FMN903      0.0000 
     13 C8        -20.7400  -23.9890  -55.4880 C.ar      1 FMN903      0.0000 
     14 C8M       -21.4880  -25.1570  -56.1290 C.3       1 FMN903      0.0000 
     15 C9        -19.6830  -23.4150  -56.1810 C.ar      1 FMN903      0.0000 
     16 C9A       -18.9620  -22.3340  -55.6240 C.ar      1 FMN903      0.0000 
     17 N10       -17.9310  -21.7760  -56.2890 N.pl3     1 FMN903      0.0000 
     18 C10       -17.2550  -20.7290  -55.7340 C.2       1 FMN903      0.0000 
     19 C1'       -17.4350  -22.1670  -57.6040 C.3       1 FMN903      0.0000 
     20 C2'       -16.6090  -23.4560  -57.5520 C.3       1 FMN903      0.0000 
     21 O2'       -15.3810  -23.2040  -56.9340 O.3       1 FMN903      0.0000 
     22 C3'       -16.3870  -23.9620  -58.9800 C.3       1 FMN903      0.0000 
     23 O3'       -17.5670  -24.5450  -59.4600 O.3       1 FMN903      0.0000 
     24 C4'       -15.2420  -24.9780  -59.0270 C.3       1 FMN903      0.0000 
     25 O4'       -14.8700  -25.2020  -60.3580 O.3       1 FMN903      0.0000 
     26 C5'       -15.6570  -26.3090  -58.3960 C.3       1 FMN903      0.0000 
     27 O5'       -14.5560  -27.1770  -58.4350 O.3       1 FMN903      0.0000 
     28 P         -14.7330  -28.7800  -58.0750 P.3       1 FMN903      0.0000 
     29 O1P       -13.3670  -29.3860  -57.8660 O.co2     1 FMN903      0.0000 
     30 O2P       -15.4030  -29.5050  -59.2120 O.co2     1 FMN903      0.0000 
     31 O3P       -15.5650  -28.9470  -56.8270 O.co2     1 FMN903      0.0000 
@<TRIPOS>BOND
     1    1    2 1    
     2    1   18 2    
     3    2    3 2    
     4    2    4 am   
     5    4    5 am   
     6    5    6 2    
     7    5    7 1    
     8    7    8 2    
     9    7   18 1    
    10    8    9 1    
    11    9   10 ar   
    12    9   16 ar   
    13   10   11 ar   
    14   11   12 1    
    15   11   13 ar   
    16   13   14 1    
    17   13   15 ar   
    18   15   16 ar   
    19   16   17 1    
    20   17   18 1    
    21   17   19 1    
    22   19   20 1    
    23   20   21 1    
    24   20   22 1    
    25   22   23 1    
    26   22   24 1    
    27   24   25 1    
    28   24   26 1    
    29   26   27 1    
    30   27   28 1    
    31   28   29 ar   
    32   28   30 ar   
    33   28   31 ar   
@<TRIPOS>SUBSTRUCTURE
     1 FMN903      1 GROUP   
@<TRIPOS>SET
ATOM$ORANGE STATIC     ATOMS   COLORGROUP SYSTEM 
34 2 2 5 5 7 7 9 9 10 10 11 11 12 12 13 13 14 \
14 15 15 16 16 18 18 19 19 20 20 22 22 24 24 26 26 

