#    Name: 6j7a_2_FMN
#    Modification time : Fri May 22 19:34:38 2020

@<TRIPOS>MOLECULE
6j7a_2_FMN
   31    33     1     0     1
SMALL
NO_CHARGES


@<TRIPOS>ATOM
      1 N1        -14.6060    6.2010  -50.8760 N.2       1 FMN903      0.0000 
      2 C2        -14.3030    5.1330  -51.6630 C.2       1 FMN903      0.0000 
      3 O2        -13.2530    4.5930  -51.5680 O.2       1 FMN903      0.0000 
      4 N3        -15.2050    4.6700  -52.5720 N.am      1 FMN903      0.0000 
      5 C4        -16.3850    5.2610  -52.6920 C.2       1 FMN903      0.0000 
      6 O4        -17.1670    4.8550  -53.4840 O.2       1 FMN903      0.0000 
      7 C4A       -16.6970    6.3420  -51.8980 C.2       1 FMN903      0.0000 
      8 N5        -17.9050    6.9400  -52.0280 N.2       1 FMN903      0.0000 
      9 C5A       -18.2210    7.9930  -51.2610 C.ar      1 FMN903      0.0000 
     10 C6        -19.4840    8.6030  -51.4080 C.ar      1 FMN903      0.0000 
     11 C7        -19.8260    9.6940  -50.6220 C.ar      1 FMN903      0.0000 
     12 C7M       -21.2230   10.2480  -50.8940 C.3       1 FMN903      0.0000 
     13 C8        -18.9220   10.1850  -49.6870 C.ar      1 FMN903      0.0000 
     14 C8M       -19.2710   11.3840  -48.8060 C.3       1 FMN903      0.0000 
     15 C9        -17.6800    9.5820  -49.5420 C.ar      1 FMN903      0.0000 
     16 C9A       -17.3230    8.4710  -50.3410 C.ar      1 FMN903      0.0000 
     17 N10       -16.1160    7.8810  -50.2120 N.pl3     1 FMN903      0.0000 
     18 C10       -15.8020    6.8080  -50.9910 C.2       1 FMN903      0.0000 
     19 C1'       -15.0550    8.2620  -49.2830 C.3       1 FMN903      0.0000 
     20 C2'       -14.3070    9.5210  -49.7420 C.3       1 FMN903      0.0000 
     21 O2'       -13.4980    9.2180  -50.8420 O.3       1 FMN903      0.0000 
     22 C3'       -13.4520   10.0430  -48.5830 C.3       1 FMN903      0.0000 
     23 O3'       -14.2770   10.6360  -47.6190 O.3       1 FMN903      0.0000 
     24 C4'       -12.4090   11.0550  -49.0700 C.3       1 FMN903      0.0000 
     25 O4'       -11.5500   11.3820  -48.0130 O.3       1 FMN903      0.0000 
     26 C5'       -13.0640   12.3400  -49.5820 C.3       1 FMN903      0.0000 
     27 O5'       -12.0500   13.2650  -49.8730 O.3       1 FMN903      0.0000 
     28 P         -12.3990   14.8760  -49.9950 P.3       1 FMN903      0.0000 
     29 O1P       -11.2300   15.5960  -50.6240 O.co2     1 FMN903      0.0000 
     30 O2P       -12.6520   15.4430  -48.6190 O.co2     1 FMN903      0.0000 
     31 O3P       -13.6190   15.0810  -50.8600 O.co2     1 FMN903      0.0000 
@<TRIPOS>BOND
     1    1    2 1    
     2    1   18 2    
     3    2    3 2    
     4    2    4 am   
     5    4    5 am   
     6    5    6 2    
     7    5    7 1    
     8    7    8 2    
     9    7   18 1    
    10    8    9 1    
    11    9   10 ar   
    12    9   16 ar   
    13   10   11 ar   
    14   11   12 1    
    15   11   13 ar   
    16   13   14 1    
    17   13   15 ar   
    18   15   16 ar   
    19   16   17 1    
    20   17   18 1    
    21   17   19 1    
    22   19   20 1    
    23   20   21 1    
    24   20   22 1    
    25   22   23 1    
    26   22   24 1    
    27   24   25 1    
    28   24   26 1    
    29   26   27 1    
    30   27   28 1    
    31   28   29 ar   
    32   28   30 ar   
    33   28   31 ar   
@<TRIPOS>SUBSTRUCTURE
     1 FMN903      1 GROUP   
@<TRIPOS>SET
ATOM$ORANGE STATIC     ATOMS   COLORGROUP SYSTEM 
34 2 2 5 5 7 7 9 9 10 10 11 11 12 12 13 13 14 \
14 15 15 16 16 18 18 19 19 20 20 22 22 24 24 26 26 

