#    Name: 6j7a_4_FMN_CAVITY_N1_4
#    Modification time : Fri May 22 19:35:00 2020

@<TRIPOS>MOLECULE
6j7a_4_FMN_CAVITY_N1_4
   95     0     6     0     0
SMALL
NO_CHARGES


@<TRIPOS>ATOM
      1 OG        -16.9100  -27.6100  -61.5100 O.3       1 SER1        0.0000 
      2 OG        -19.9700  -26.5100  -58.0600 O.3       1 SER1        0.0000 
      3 OG        -18.7000  -26.6400  -58.8400 O.3       1 SER1        0.0000 
      4 OG        -16.1700  -26.8900  -60.4200 O.3       1 SER1        0.0000 
      5 OG        -15.8800  -28.2000  -59.7500 O.3       1 SER1        0.0000 
      6 OG        -14.9000  -27.0200  -61.2100 O.3       1 SER1        0.0000 
      7 OG        -21.3500  -21.7300  -58.1800 O.3       1 SER1        0.0000 
      8 OG        -21.0600  -23.0400  -57.5200 O.3       1 SER1        0.0000 
      9 OG        -17.9600  -25.9200  -57.7600 O.3       1 SER1        0.0000 
     10 OG        -16.6900  -26.0500  -58.5500 O.3       1 SER1        0.0000 
     11 OG        -15.1300  -27.4900  -58.6700 O.3       1 SER1        0.0000 
     12 OG        -20.3100  -22.3300  -56.4300 O.3       1 SER1        0.0000 
     13 OG        -15.9400  -25.3300  -57.4600 O.3       1 SER1        0.0000 
     14 OG        -22.1100  -21.3600  -53.7600 O.3       1 SER1        0.0000 
     15 OG        -20.5500  -22.8000  -53.8900 O.3       1 SER1        0.0000 
     16 OG        -16.0600  -19.5900  -52.8700 O.3       1 SER1        0.0000 
     17 O         -20.8200  -22.5700  -60.0600 O.2       2 ALA2        0.0000 
     18 O         -20.0800  -21.8600  -58.9700 O.2       2 ALA2        0.0000 
     19 N         -17.4900  -23.8900  -57.3400 N.am      2 ALA2        0.0000 
     20 N         -15.2400  -22.8400  -59.5900 N.am      2 ALA2        0.0000 
     21 N         -18.3000  -21.7400  -56.1300 N.am      2 ALA2        0.0000 
     22 N         -18.0100  -23.0500  -55.4600 N.am      2 ALA2        0.0000 
     23 N         -17.0300  -21.8700  -56.9200 N.am      2 ALA2        0.0000 
     24 N         -15.4800  -23.3100  -57.0400 N.am      2 ALA2        0.0000 
     25 O         -19.8100  -22.0800  -52.8000 O.2       2 ALA2        0.0000 
     26 N         -17.5500  -21.0200  -55.0500 N.am      2 ALA2        0.0000 
     27 O         -16.5700  -19.8400  -56.5000 O.2       2 ALA2        0.0000 
     28 N         -18.0700  -20.1800  -53.1700 N.am      2 ALA2        0.0000 
     29 N         -16.8000  -20.3100  -53.9600 N.am      2 ALA2        0.0000 
     30 N         -16.1000  -17.8100  -56.0900 N.am      2 ALA2        0.0000 
     31 N         -17.6100  -18.1500  -52.7500 N.am      2 ALA2        0.0000 
     32 N         -16.3400  -18.2800  -53.5400 N.am      2 ALA2        0.0000 
     33 NZ        -20.0200  -24.7300  -61.2700 N.4       3 LYS4        0.0000 
     34 NZ        -19.7300  -26.0400  -60.6000 N.4       3 LYS4        0.0000 
     35 NZ        -18.4700  -26.1700  -61.3900 N.4       3 LYS4        0.0000 
     36 NZ        -17.2000  -26.2900  -62.1800 N.4       3 LYS4        0.0000 
     37 NZ        -20.5400  -23.8800  -59.3900 N.4       3 LYS4        0.0000 
     38 NZ        -19.2700  -24.0100  -60.1800 N.4       3 LYS4        0.0000 
     39 NZ        -18.9900  -25.3200  -59.5100 N.4       3 LYS4        0.0000 
     40 NZ        -17.7200  -25.4500  -60.3000 N.4       3 LYS4        0.0000 
     41 NZ        -16.4500  -25.5800  -61.0900 N.4       3 LYS4        0.0000 
     42 NZ        -18.8100  -21.9800  -59.7600 N.4       3 LYS4        0.0000 
     43 NZ        -18.5200  -23.3000  -59.1000 N.4       3 LYS4        0.0000 
     44 NZ        -17.2500  -23.4200  -59.8800 N.4       3 LYS4        0.0000 
     45 NZ        -16.9700  -24.7400  -59.2200 N.4       3 LYS4        0.0000 
     46 NZ        -15.9900  -23.5500  -60.6700 N.4       3 LYS4        0.0000 
     47 NZ        -15.7000  -24.8600  -60.0100 N.4       3 LYS4        0.0000 
     48 CZ        -20.7800  -24.3500  -56.8500 C.ar      4 PHE5        0.0000 
     49 CZ        -20.4900  -25.6700  -56.1800 C.ar      4 PHE5        0.0000 
     50 CZ        -19.5100  -24.4800  -57.6400 C.ar      4 PHE5        0.0000 
     51 CZ        -19.2300  -25.7900  -56.9700 C.ar      4 PHE5        0.0000 
     52 CZ        -21.0200  -24.8200  -54.3000 C.ar      4 PHE5        0.0000 
     53 CZ        -20.0300  -23.6400  -55.7600 C.ar      4 PHE5        0.0000 
     54 CZ        -19.3300  -21.1400  -57.8900 C.ar      4 PHE5        0.0000 
     55 CZ        -19.0500  -22.4500  -57.2200 C.ar      4 PHE5        0.0000 
     56 CZ        -18.7600  -23.7700  -56.5500 C.ar      4 PHE5        0.0000 
     57 CZ        -17.2100  -25.2100  -56.6700 C.ar      4 PHE5        0.0000 
     58 CZ        -19.5700  -21.6100  -55.3400 C.ar      4 PHE5        0.0000 
     59 CZ        -19.2800  -22.9200  -54.6800 C.ar      4 PHE5        0.0000 
     60 CZ        -20.0900  -20.7700  -53.4700 C.ar      4 PHE5        0.0000 
     61 CZ        -18.8200  -20.9000  -54.2600 C.ar      4 PHE5        0.0000 
     62 CZ        -17.8300  -19.7100  -55.7200 C.ar      4 PHE5        0.0000 
     63 CZ        -18.3600  -18.8700  -53.8400 C.ar      4 PHE5        0.0000 
     64 CZ        -17.0900  -19.0000  -54.6300 C.ar      4 PHE5        0.0000 
     65 CZ        -19.1600  -16.7100  -52.6300 C.ar      4 PHE5        0.0000 
     66 CA        -21.2900  -24.6000  -60.4800 C.3       5 GLY6        0.0000 
     67 CA        -21.0000  -25.9100  -59.8100 C.3       5 GLY6        0.0000 
     68 CA        -20.7200  -27.2200  -59.1400 C.3       5 GLY6        0.0000 
     69 CA        -19.4500  -27.3500  -59.9300 C.3       5 GLY6        0.0000 
     70 CA        -18.1800  -27.4800  -60.7200 C.3       5 GLY6        0.0000 
     71 CA        -15.9300  -26.4200  -62.9700 C.3       5 GLY6        0.0000 
     72 CA        -21.8100  -23.7600  -58.6000 C.3       5 GLY6        0.0000 
     73 CA        -21.5300  -25.0700  -57.9300 C.3       5 GLY6        0.0000 
     74 CA        -21.2400  -26.3800  -57.2700 C.3       5 GLY6        0.0000 
     75 CA        -20.2600  -25.2000  -58.7200 C.3       5 GLY6        0.0000 
     76 CA        -17.4300  -26.7600  -59.6300 C.3       5 GLY6        0.0000 
     77 CA        -15.1800  -25.7100  -61.8800 C.3       5 GLY6        0.0000 
     78 CA        -14.4300  -24.9900  -60.7900 C.3       5 GLY6        0.0000 
     79 CA        -14.1500  -26.3000  -60.1300 C.3       5 GLY6        0.0000 
     80 CA        -13.8600  -27.6200  -59.4600 C.3       5 GLY6        0.0000 
     81 CA        -17.7800  -22.5800  -58.0100 C.3       5 GLY6        0.0000 
     82 CA        -16.7900  -21.4000  -59.4700 C.3       5 GLY6        0.0000 
     83 CA        -16.5100  -22.7100  -58.8000 C.3       5 GLY6        0.0000 
     84 CA        -14.9500  -24.1500  -58.9200 C.3       5 GLY6        0.0000 
     85 CA        -14.6700  -25.4600  -58.2500 C.3       5 GLY6        0.0000 
     86 CA        -17.3100  -20.5500  -57.5900 C.3       5 GLY6        0.0000 
     87 CA        -15.7600  -21.9900  -57.7100 C.3       5 GLY6        0.0000 
     88 CA        -18.5400  -22.2100  -53.5900 C.3       5 GLY6        0.0000 
     89 CA        -15.8200  -19.1200  -55.4200 C.3       5 GLY6        0.0000 
     90 CA        -16.6200  -16.9700  -54.2100 C.3       5 GLY6        0.0000 
     91 CA        -18.4100  -16.0000  -51.5500 C.3       5 GLY6        0.0000 
     92 DU        -19.7900  -23.1700  -58.3100 H         6 CUB7        0.0000 
     93 DU        -18.2400  -24.6100  -58.4300 H         6 CUB7        0.0000 
     94 DU        -15.4200  -26.1800  -59.3400 H         6 CUB7        0.0000 
     95 DU        -16.2200  -24.0200  -58.1300 H         6 CUB7        0.0000 
@<TRIPOS>BOND
@<TRIPOS>SUBSTRUCTURE
     1 SER1        1 GROUP   
     2 ALA2       17 GROUP   
     3 LYS4       33 GROUP   
     4 PHE5       48 GROUP   
     5 GLY6       66 GROUP   
     6 CUB7       92 GROUP   
@<TRIPOS>SET

