#    Name: 6j7a_3_FAD
#    Modification time : Fri May 22 19:34:47 2020

@<TRIPOS>MOLECULE
6j7a_3_FAD
   53    58     1     0     1
SMALL
NO_CHARGES


@<TRIPOS>ATOM
      1 PA         -8.0270   -9.8870  -83.7820 P.3       1 FAD902      0.0000 
      2 O1A        -7.2540  -10.7200  -84.7760 O.co2     1 FAD902      0.0000 
      3 O2A        -8.8910  -10.7900  -82.9240 O.co2     1 FAD902      0.0000 
      4 O5B        -6.9700   -9.0550  -82.8080 O.3       1 FAD902      0.0000 
      5 C5B        -7.4880   -8.1380  -81.8690 C.3       1 FAD902      0.0000 
      6 C4B        -6.3670   -7.8130  -80.8390 C.3       1 FAD902      0.0000 
      7 O4B        -5.6210   -6.8470  -81.2930 O.3       1 FAD902      0.0000 
      8 C3B        -6.9660   -7.2650  -79.5320 C.3       1 FAD902      0.0000 
      9 O3B        -7.1030   -8.2660  -78.6260 O.3       1 FAD902      0.0000 
     10 C2B        -5.9350   -6.2330  -79.0260 C.3       1 FAD902      0.0000 
     11 O2B        -5.2390   -6.7710  -77.8170 O.3       1 FAD902      0.0000 
     12 C1B        -5.0730   -6.0530  -79.9930 C.3       1 FAD902      0.0000 
     13 N9A        -4.9610   -4.6470  -80.3010 N.pl3     1 FAD902      0.0000 
     14 C8A        -5.8290   -3.9270  -81.0160 C.2       1 FAD902      0.0000 
     15 N7A        -5.3690   -2.6700  -81.0760 N.2       1 FAD902      0.0000 
     16 C5A        -4.2140   -2.6160  -80.3970 C.ar      1 FAD902      0.0000 
     17 C6A        -3.3340   -1.5840  -80.1440 C.ar      1 FAD902      0.0000 
     18 N6A        -3.1770   -0.1710  -80.4270 N.pl3     1 FAD902      0.0000 
     19 N1A        -2.2420   -1.8030  -79.4290 N.ar      1 FAD902      0.0000 
     20 C2A        -1.9870   -3.0410  -78.9440 C.ar      1 FAD902      0.0000 
     21 N3A        -2.8470   -4.0570  -79.1900 N.ar      1 FAD902      0.0000 
     22 C4A        -3.9600   -3.8370  -79.9180 C.ar      1 FAD902      0.0000 
     23 N1        -16.8330   -5.8580  -83.1950 N.2       1 FAD902      0.0000 
     24 C2        -17.4390   -4.8880  -84.1370 C.2       1 FAD902      0.0000 
     25 O2        -16.7430   -4.1900  -84.7920 O.2       1 FAD902      0.0000 
     26 N3        -18.9220   -4.7990  -84.2540 N.am      1 FAD902      0.0000 
     27 C4        -19.7660   -5.6670  -83.4400 C.2       1 FAD902      0.0000 
     28 O4        -20.9470   -5.6020  -83.5270 O.2       1 FAD902      0.0000 
     29 C4X       -19.1270   -6.6520  -82.4820 C.2       1 FAD902      0.0000 
     30 N5        -19.9580   -7.5210  -81.6650 N.2       1 FAD902      0.0000 
     31 C5X       -19.3260   -8.4910  -80.7240 C.ar      1 FAD902      0.0000 
     32 C6        -20.1260   -9.3290  -79.9380 C.ar      1 FAD902      0.0000 
     33 C7        -19.5330  -10.2330  -79.0590 C.ar      1 FAD902      0.0000 
     34 C7M       -20.6280  -11.0170  -78.3300 C.3       1 FAD902      0.0000 
     35 C8        -18.1340  -10.3060  -78.9600 C.ar      1 FAD902      0.0000 
     36 C8M       -17.5250  -11.3120  -77.9830 C.3       1 FAD902      0.0000 
     37 C9        -17.3330   -9.4720  -79.7430 C.ar      1 FAD902      0.0000 
     38 C9A       -17.9250   -8.5650  -80.6240 C.ar      1 FAD902      0.0000 
     39 N10       -17.0690   -7.6720  -81.4600 N.pl3     1 FAD902      0.0000 
     40 C10       -17.6800   -6.7290  -82.3790 C.2       1 FAD902      0.0000 
     41 C1'       -15.6080   -7.7530  -81.3600 C.3       1 FAD902      0.0000 
     42 C2'       -15.0980   -8.6320  -82.5180 C.3       1 FAD902      0.0000 
     43 O2'       -15.5230   -9.9410  -82.3350 O.3       1 FAD902      0.0000 
     44 C3'       -13.5700   -8.5920  -82.5620 C.3       1 FAD902      0.0000 
     45 O3'       -13.0690   -8.5230  -81.2630 O.3       1 FAD902      0.0000 
     46 C4'       -13.1260   -7.3610  -83.3570 C.3       1 FAD902      0.0000 
     47 O4'       -14.0130   -7.1420  -84.4090 O.3       1 FAD902      0.0000 
     48 C5'       -11.7250   -7.6130  -83.9220 C.3       1 FAD902      0.0000 
     49 O5'       -11.7040   -8.8820  -84.5430 O.3       1 FAD902      0.0000 
     50 P         -10.3540   -9.2950  -85.4180 P.3       1 FAD902      0.0000 
     51 O1P       -10.3160  -10.7930  -85.6040 O.co2     1 FAD902      0.0000 
     52 O2P       -10.3890   -8.6140  -86.7650 O.co2     1 FAD902      0.0000 
     53 O3P        -8.9970   -8.8190  -84.5950 O.3       1 FAD902      0.0000 
@<TRIPOS>BOND
     1    1    2 ar   
     2    1    3 ar   
     3    1    4 1    
     4    1   53 1    
     5    4    5 1    
     6    5    6 1    
     7    6    7 1    
     8    6    8 1    
     9    7   12 1    
    10    8    9 1    
    11    8   10 1    
    12   10   11 1    
    13   10   12 1    
    14   12   13 1    
    15   13   14 1    
    16   13   22 1    
    17   14   15 2    
    18   15   16 1    
    19   16   17 ar   
    20   16   22 ar   
    21   17   18 1    
    22   17   19 ar   
    23   19   20 ar   
    24   20   21 ar   
    25   21   22 ar   
    26   23   24 1    
    27   23   40 2    
    28   24   25 2    
    29   24   26 am   
    30   26   27 am   
    31   27   28 2    
    32   27   29 1    
    33   29   30 2    
    34   29   40 1    
    35   30   31 1    
    36   31   32 ar   
    37   31   38 ar   
    38   32   33 ar   
    39   33   34 1    
    40   33   35 ar   
    41   35   36 1    
    42   35   37 ar   
    43   37   38 ar   
    44   38   39 1    
    45   39   40 1    
    46   39   41 1    
    47   41   42 1    
    48   42   43 1    
    49   42   44 1    
    50   44   45 1    
    51   44   46 1    
    52   46   47 1    
    53   46   48 1    
    54   48   49 1    
    55   49   50 1    
    56   50   51 ar   
    57   50   52 ar   
    58   50   53 1    
@<TRIPOS>SUBSTRUCTURE
     1 FAD902      1 GROUP   
@<TRIPOS>SET
ATOM$ORANGE STATIC     ATOMS   COLORGROUP SYSTEM 
54 5 5 6 6 8 8 10 10 12 12 14 14 16 16 17 17 20 \
20 22 22 24 24 27 27 29 29 31 31 32 32 33 33 34 34 35 \
35 36 36 37 37 38 38 40 40 41 41 42 42 44 44 46 46 48 \
48 

