#    Name: 6i8a_2_DTP_CAVITY_N1_ALL
#    Modification time : Fri May 22 19:32:44 2020

@<TRIPOS>MOLECULE
6i8a_2_DTP_CAVITY_N1_ALL
   77     0     6     0     0
SMALL
NO_CHARGES


@<TRIPOS>ATOM
      1 O         189.4600   80.4200  199.1100 O.2       1 ALA2        0.0000 
      2 O         188.0500   80.5500  200.6900 O.2       1 ALA2        0.0000 
      3 O         190.5300   80.9600  200.0100 O.2       1 ALA2        0.0000 
      4 N         188.1700   92.4300  198.4400 N.am      1 ALA2        0.0000 
      5 O         189.6200   89.4000  198.5400 O.2       1 ALA2        0.0000 
      6 O         188.6700   90.4500  199.0400 O.2       1 ALA2        0.0000 
      7 O         187.7200   91.5000  199.5300 O.2       1 ALA2        0.0000 
      8 O         189.1600   88.4800  199.6300 O.2       1 ALA2        0.0000 
      9 O         187.2600   90.5800  200.6200 O.2       1 ALA2        0.0000 
     10 O         192.0900   89.8200  197.8700 O.2       1 ALA2        0.0000 
     11 O         191.1400   90.8700  198.3600 O.2       1 ALA2        0.0000 
     12 O         190.1900   91.9200  198.8600 O.2       1 ALA2        0.0000 
     13 O         191.6400   88.8900  198.9600 O.2       1 ALA2        0.0000 
     14 O         188.7800   92.0400  200.4400 O.2       1 ALA2        0.0000 
     15 O         191.1800   87.9700  200.0500 O.2       1 ALA2        0.0000 
     16 N         191.2600   92.4600  199.7600 N.am      1 ALA2        0.0000 
     17 OD1       187.4100   83.8300  197.0100 O.co2     2 ASP3        0.0000 
     18 OD1       188.9300   85.3000  196.8300 O.co2     2 ASP3        0.0000 
     19 OD1       187.9800   86.3500  197.3200 O.co2     2 ASP3        0.0000 
     20 OD1       188.4700   84.3700  197.9200 O.co2     2 ASP3        0.0000 
     21 OD1       190.8700   80.3000  197.5300 O.co2     2 ASP3        0.0000 
     22 OD1       188.9700   82.4000  198.5100 O.co2     2 ASP3        0.0000 
     23 OD1       187.5600   82.5200  200.0900 O.co2     2 ASP3        0.0000 
     24 OD1       189.5000   87.8100  197.1400 O.co2     2 ASP3        0.0000 
     25 OD1       190.0000   85.8400  197.7400 O.co2     2 ASP3        0.0000 
     26 OD1       189.0500   86.8900  198.2300 O.co2     2 ASP3        0.0000 
     27 OD1       188.1000   87.9400  198.7200 O.co2     2 ASP3        0.0000 
     28 OD1       190.4900   83.8600  198.3300 O.co2     2 ASP3        0.0000 
     29 OD1       190.9800   81.8900  198.9300 O.co2     2 ASP3        0.0000 
     30 OD1       190.0300   82.9400  199.4200 O.co2     2 ASP3        0.0000 
     31 OD1       191.4800   79.9100  199.5200 O.co2     2 ASP3        0.0000 
     32 OD1       189.5700   82.0100  200.5100 O.co2     2 ASP3        0.0000 
     33 OD1       190.5700   88.3500  198.0500 O.co2     2 ASP3        0.0000 
     34 OD1       192.0100   85.3300  198.1500 O.co2     2 ASP3        0.0000 
     35 OD1       191.0600   86.3800  198.6500 O.co2     2 ASP3        0.0000 
     36 OD1       191.5600   84.4000  199.2400 O.co2     2 ASP3        0.0000 
     37 OD1       192.0500   82.4300  199.8400 O.co2     2 ASP3        0.0000 
     38 NZ        187.8700   84.7600  195.9200 N.4       3 LYS4        0.0000 
     39 NZ        189.3100   81.7300  196.0200 N.4       3 LYS4        0.0000 
     40 NZ        188.3600   82.7800  196.5200 N.4       3 LYS4        0.0000 
     41 NZ        190.3800   82.2700  196.9300 N.4       3 LYS4        0.0000 
     42 NZ        189.4300   83.3200  197.4200 N.4       3 LYS4        0.0000 
     43 NZ        189.9600   88.7400  196.0500 N.4       3 LYS4        0.0000 
     44 NZ        191.4400   82.8100  197.8400 N.4       3 LYS4        0.0000 
     45 NZ        191.0300   89.2800  196.9600 N.4       3 LYS4        0.0000 
     46 CZ        190.5400   91.2500  196.3700 C.ar      4 PHE5        0.0000 
     47 CZ        189.5800   92.3000  196.8600 C.ar      4 PHE5        0.0000 
     48 CZ        188.6300   93.3500  197.3500 C.ar      4 PHE5        0.0000 
     49 CZ        191.6000   91.7900  197.2800 C.ar      4 PHE5        0.0000 
     50 CZ        190.6500   92.8400  197.7700 C.ar      4 PHE5        0.0000 
     51 CZ        189.7000   93.8900  198.2600 C.ar      4 PHE5        0.0000 
     52 CZ        189.2400   92.9700  199.3500 C.ar      4 PHE5        0.0000 
     53 CZ        188.2900   94.0200  199.8400 C.ar      4 PHE5        0.0000 
     54 CZ        190.3000   93.5100  200.2600 C.ar      4 PHE5        0.0000 
     55 CA        188.4400   87.2700  196.2300 C.3       5 GLY6        0.0000 
     56 CA        187.4900   88.3200  196.7300 C.3       5 GLY6        0.0000 
     57 CA        189.4700   90.7100  195.4600 C.3       5 GLY6        0.0000 
     58 CA        188.5200   91.7600  195.9500 C.3       5 GLY6        0.0000 
     59 CA        189.0100   89.7900  196.5500 C.3       5 GLY6        0.0000 
     60 CA        188.0600   90.8400  197.0400 C.3       5 GLY6        0.0000 
     61 CA        188.5500   88.8600  197.6400 C.3       5 GLY6        0.0000 
     62 CA        187.6000   89.9100  198.1300 C.3       5 GLY6        0.0000 
     63 CA        187.1400   88.9900  199.2200 C.3       5 GLY6        0.0000 
     64 CA        191.4900   90.2000  195.8800 C.3       5 GLY6        0.0000 
     65 CA        190.1100   87.4300  199.1400 C.3       5 GLY6        0.0000 
     66 CA        192.5900   87.8400  198.4700 C.3       5 GLY6        0.0000 
     67 CA        187.8300   93.0900  200.9300 C.3       5 GLY6        0.0000 
     68 CA        192.1300   86.9200  199.5500 C.3       5 GLY6        0.0000 
     69 DU        188.8500   80.8100  197.1100 H         6 CUB7        0.0000 
     70 DU        187.9000   81.8600  197.6000 H         6 CUB7        0.0000 
     71 DU        188.4000   79.8800  198.2000 H         6 CUB7        0.0000 
     72 DU        187.4400   80.9300  198.6900 H         6 CUB7        0.0000 
     73 DU        186.9900   80.0100  199.7800 H         6 CUB7        0.0000 
     74 DU        189.9200   81.3500  198.0200 H         6 CUB7        0.0000 
     75 DU        188.5100   81.4700  199.6000 H         6 CUB7        0.0000 
     76 DU        190.0800   90.3300  197.4600 H         6 CUB7        0.0000 
     77 DU        189.1300   91.3800  197.9500 H         6 CUB7        0.0000 
@<TRIPOS>BOND
@<TRIPOS>SUBSTRUCTURE
     1 ALA2        1 GROUP   
     2 ASP3       17 GROUP   
     3 LYS4       38 GROUP   
     4 PHE5       46 GROUP   
     5 GLY6       55 GROUP   
     6 CUB7       69 GROUP   
@<TRIPOS>SET

