#    Name: 6i8a_2_DTP
#    Modification time : Fri May 22 19:32:43 2020

@<TRIPOS>MOLECULE
6i8a_2_DTP
   30    32     1     0     0
SMALL
NO_CHARGES


@<TRIPOS>ATOM
      1 PG        191.5600   84.2730  198.9430 P.3       1 DTP1301     0.0000 
      2 O1G       191.3210   84.3910  197.4500 O.co2     1 DTP1301     0.0000 
      3 O2G       190.3700   83.6510  199.6380 O.co2     1 DTP1301     0.0000 
      4 O3G       192.7370   83.3720  199.2190 O.co2     1 DTP1301     0.0000 
      5 PB        191.3780   87.1110  198.7400 P.3       1 DTP1301     0.0000 
      6 O1B       192.1120   87.2200  197.4310 O.co2     1 DTP1301     0.0000 
      7 O2B       191.5740   88.3720  199.5140 O.co2     1 DTP1301     0.0000 
      8 O3B       191.8340   85.7740  199.5510 O.3       1 DTP1301     0.0000 
      9 PA        188.8270   87.4040  197.2940 P.3       1 DTP1301     0.0000 
     10 O1A       189.3910   86.9000  195.9930 O.co2     1 DTP1301     0.0000 
     11 O2A       187.5050   86.7970  197.6500 O.co2     1 DTP1301     0.0000 
     12 O3A       189.7660   86.9090  198.5420 O.3       1 DTP1301     0.0000 
     13 O5'       188.7280   89.0410  197.2720 O.3       1 DTP1301     0.0000 
     14 C5'       189.5220   89.7770  196.3860 C.3       1 DTP1301     0.0000 
     15 C4'       189.8800   91.0870  197.0630 C.3       1 DTP1301     0.0000 
     16 O4'       188.5630   92.0260  197.2430 O.3       1 DTP1301     0.0000 
     17 C3'       190.2950   90.8980  198.2920 C.3       1 DTP1301     0.0000 
     18 O3'       191.7100   90.4550  198.3460 O.3       1 DTP1301     0.0000 
     19 C2'       190.1070   92.2970  198.9140 C.3       1 DTP1301     0.0000 
     20 C1'       188.6540   92.5620  198.4510 C.3       1 DTP1301     0.0000 
     21 N9        187.7040   91.8310  199.3050 N.pl3     1 DTP1301     0.0000 
     22 C8        187.0290   90.6870  199.3910 C.2       1 DTP1301     0.0000 
     23 N7        186.3140   90.7110  200.5170 N.2       1 DTP1301     0.0000 
     24 C5        186.5470   91.8800  201.1110 C.ar      1 DTP1301     0.0000 
     25 C6        186.0640   92.3850  202.2780 C.ar      1 DTP1301     0.0000 
     26 N6        185.1460   91.9030  203.2880 N.pl3     1 DTP1301     0.0000 
     27 N1        186.4560   93.5850  202.6940 N.ar      1 DTP1301     0.0000 
     28 C2        187.3330   94.3090  201.9530 C.ar      1 DTP1301     0.0000 
     29 N3        187.8110   93.8040  200.7890 N.ar      1 DTP1301     0.0000 
     30 C4        187.4110   92.5840  200.3760 C.ar      1 DTP1301     0.0000 
@<TRIPOS>BOND
     1    1    2 ar   
     2    1    3 ar   
     3    1    4 ar   
     4    1    8 1    
     5    5    6 ar   
     6    5    7 ar   
     7    5    8 1    
     8    5   12 1    
     9    9   10 ar   
    10    9   11 ar   
    11    9   12 1    
    12    9   13 1    
    13   13   14 1    
    14   14   15 1    
    15   15   16 1    
    16   15   17 1    
    17   16   20 1    
    18   17   18 1    
    19   17   19 1    
    20   19   20 1    
    21   20   21 1    
    22   21   22 1    
    23   21   30 1    
    24   22   23 2    
    25   23   24 1    
    26   24   25 ar   
    27   24   30 ar   
    28   25   26 1    
    29   25   27 ar   
    30   27   28 ar   
    31   28   29 ar   
    32   29   30 ar   
@<TRIPOS>SUBSTRUCTURE
     1 DTP1301     1 GROUP   
@<TRIPOS>SET

