#    Name: 6jhb_1_ENO_CAVITY_N1_8
#    Modification time : Fri May 22 19:36:03 2020

@<TRIPOS>MOLECULE
6jhb_1_ENO_CAVITY_N1_8
   70     0     6     0     0
SMALL
NO_CHARGES


@<TRIPOS>ATOM
      1 OG         -6.0700   68.2900   17.6100 O.3       1 SER1        0.0000 
      2 OG         -4.2800   68.8300   18.6100 O.3       1 SER1        0.0000 
      3 OG         -4.8100   69.7900   16.8000 O.3       1 SER1        0.0000 
      4 OG         -3.7000   70.1100   19.1200 O.3       1 SER1        0.0000 
      5 OG         -3.0200   70.3300   17.8000 O.3       1 SER1        0.0000 
      6 OG         -4.2300   71.0700   17.3100 O.3       1 SER1        0.0000 
      7 OG         -1.9100   70.6500   20.1200 O.3       1 SER1        0.0000 
      8 OG         -1.3300   71.9400   20.6300 O.3       1 SER1        0.0000 
      9 OG          1.4200   75.0600   14.0400 O.3       1 SER1        0.0000 
     10 OG          0.2200   75.8000   13.5500 O.3       1 SER1        0.0000 
     11 N          -1.7300   68.5200   16.4600 N.am      2 ALA2        0.0000 
     12 N          -1.1400   69.8100   16.9700 N.am      2 ALA2        0.0000 
     13 N          -1.2300   70.8700   18.8000 N.am      2 ALA2        0.0000 
     14 N          -0.5600   71.0900   17.4800 N.am      2 ALA2        0.0000 
     15 OD1         1.9200   77.4100   16.3800 O.co2     3 ASP3        0.0000 
     16 CZ         -3.1100   71.4000   19.6300 C.ar      4 PHE5        0.0000 
     17 CZ         -2.4400   71.6200   18.3100 C.ar      4 PHE5        0.0000 
     18 CZ         -1.8600   72.9000   18.8200 C.ar      4 PHE5        0.0000 
     19 CZ         -2.3900   73.8600   17.0000 C.ar      4 PHE5        0.0000 
     20 CZ         -1.2700   74.1900   19.3300 C.ar      4 PHE5        0.0000 
     21 CZ         -0.6000   74.4000   18.0100 C.ar      4 PHE5        0.0000 
     22 CZ          0.0800   74.6200   16.6800 C.ar      4 PHE5        0.0000 
     23 CZ         -1.1300   75.3700   16.1900 C.ar      4 PHE5        0.0000 
     24 CZ         -0.4600   75.5800   14.8700 C.ar      4 PHE5        0.0000 
     25 CZ         -0.0200   75.6900   18.5200 C.ar      4 PHE5        0.0000 
     26 CZ          0.6600   75.9100   17.1900 C.ar      4 PHE5        0.0000 
     27 CZ          0.1300   76.8700   15.3800 C.ar      4 PHE5        0.0000 
     28 CA         -2.8900   65.9500   15.4400 C.3       5 GLY6        0.0000 
     29 CA         -3.6600   66.8000   18.5900 C.3       5 GLY6        0.0000 
     30 CA         -2.9800   67.0200   17.2700 C.3       5 GLY6        0.0000 
     31 CA         -4.7200   68.7200   14.9600 C.3       5 GLY6        0.0000 
     32 CA         -3.0700   68.0900   19.1000 C.3       5 GLY6        0.0000 
     33 CA         -2.4000   68.3000   17.7800 C.3       5 GLY6        0.0000 
     34 CA         -2.9300   69.2700   15.9700 C.3       5 GLY6        0.0000 
     35 CA         -2.2600   69.4800   14.6400 C.3       5 GLY6        0.0000 
     36 CA         -4.1400   70.0100   15.4700 C.3       5 GLY6        0.0000 
     37 CA         -2.4900   69.3700   19.6100 C.3       5 GLY6        0.0000 
     38 CA         -1.8200   69.5900   18.2900 C.3       5 GLY6        0.0000 
     39 CA         -2.3500   70.5500   16.4800 C.3       5 GLY6        0.0000 
     40 CA         -1.6700   70.7700   15.1500 C.3       5 GLY6        0.0000 
     41 CA         -3.5500   71.2900   15.9800 C.3       5 GLY6        0.0000 
     42 CA         -0.0300   70.1300   19.2900 C.3       5 GLY6        0.0000 
     43 CA         -1.0900   72.0500   15.6600 C.3       5 GLY6        0.0000 
     44 CA         -0.4200   72.2700   14.3400 C.3       5 GLY6        0.0000 
     45 CA         -2.9700   72.5800   16.4900 C.3       5 GLY6        0.0000 
     46 CA         -1.7100   74.0800   15.6800 C.3       5 GLY6        0.0000 
     47 CA         -1.0400   74.3000   14.3600 C.3       5 GLY6        0.0000 
     48 CA         -0.0700   73.4400   19.8200 C.3       5 GLY6        0.0000 
     49 CA          1.1900   74.9400   19.0100 C.3       5 GLY6        0.0000 
     50 CA          1.8600   75.1600   17.6900 C.3       5 GLY6        0.0000 
     51 CA          0.8000   77.0900   14.0600 C.3       5 GLY6        0.0000 
     52 DU         -4.7700   66.4800   16.2700 H         6 CUB7        0.0000 
     53 DU         -4.1000   66.7000   14.9500 H         6 CUB7        0.0000 
     54 DU         -5.3000   67.4400   14.4500 H         6 CUB7        0.0000 
     55 DU         -4.8600   67.5400   18.1000 H         6 CUB7        0.0000 
     56 DU         -4.1900   67.7600   16.7800 H         6 CUB7        0.0000 
     57 DU         -3.5100   67.9800   15.4600 H         6 CUB7        0.0000 
     58 DU         -5.4000   68.5100   16.2900 H         6 CUB7        0.0000 
     59 DU         -6.6000   69.2500   15.7900 H         6 CUB7        0.0000 
     60 DU         -3.6100   69.0500   17.2900 H         6 CUB7        0.0000 
     61 DU         -1.7700   71.8300   16.9900 H         6 CUB7        0.0000 
     62 DU         -0.6500   72.1600   19.3100 H         6 CUB7        0.0000 
     63 DU          0.0200   72.3800   17.9900 H         6 CUB7        0.0000 
     64 DU         -1.1800   73.1200   17.5000 H         6 CUB7        0.0000 
     65 DU         -0.5100   73.3400   16.1700 H         6 CUB7        0.0000 
     66 DU          0.1700   73.5600   14.8500 H         6 CUB7        0.0000 
     67 DU          0.6100   73.6600   18.5000 H         6 CUB7        0.0000 
     68 DU          1.2800   73.8800   17.1800 H         6 CUB7        0.0000 
     69 DU          0.7500   74.8400   15.3600 H         6 CUB7        0.0000 
     70 DU          1.3300   76.1200   15.8700 H         6 CUB7        0.0000 
@<TRIPOS>BOND
@<TRIPOS>SUBSTRUCTURE
     1 SER1        1 GROUP   
     2 ALA2       11 GROUP   
     3 ASP3       15 GROUP   
     4 PHE5       16 GROUP   
     5 GLY6       28 GROUP   
     6 CUB7       52 GROUP   
@<TRIPOS>SET

