#    Name: 6jhb_2_NDP
#    Modification time : Fri May 22 19:36:04 2020

@<TRIPOS>MOLECULE
6jhb_2_NDP
   48    52     1     0     1
SMALL
NO_CHARGES


@<TRIPOS>ATOM
      1 PA         21.9480   42.7400   -0.8820 P.3       1 NDP301      0.0000 
      2 O1A        21.5780   41.4460   -1.5910 O.co2     1 NDP301      0.0000 
      3 O2A        23.1000   43.6140   -1.3430 O.co2     1 NDP301      0.0000 
      4 O5B        22.2090   42.3120    0.6510 O.3       1 NDP301      0.0000 
      5 C5B        21.2490   41.4340    1.2250 C.3       1 NDP301      0.0000 
      6 C4B        21.7830   40.8610    2.5140 C.3       1 NDP301      0.0000 
      7 O4B        20.7320   40.1400    3.1570 O.3       1 NDP301      0.0000 
      8 C3B        22.8910   39.8610    2.2900 C.3       1 NDP301      0.0000 
      9 O3B        23.7370   39.9070    3.4450 O.3       1 NDP301      0.0000 
     10 C2B        22.1490   38.5420    2.1720 C.3       1 NDP301      0.0000 
     11 O2B        22.9600   37.4300    2.5190 O.3       1 NDP301      0.0000 
     12 C1B        21.0170   38.7290    3.1610 C.3       1 NDP301      0.0000 
     13 N9A        19.7720   37.9870    2.8720 N.pl3     1 NDP301      0.0000 
     14 C8A        19.0610   38.0800    1.7370 C.2       1 NDP301      0.0000 
     15 N7A        17.9720   37.2760    1.8000 N.2       1 NDP301      0.0000 
     16 C5A        17.9650   36.6700    2.9920 C.ar      1 NDP301      0.0000 
     17 C6A        17.0820   35.7050    3.6780 C.ar      1 NDP301      0.0000 
     18 N6A        15.9860   35.2670    3.0200 N.pl3     1 NDP301      0.0000 
     19 N1A        17.4210   35.2930    4.9390 N.ar      1 NDP301      0.0000 
     20 C2A        18.5230   35.7630    5.5550 C.ar      1 NDP301      0.0000 
     21 N3A        19.3710   36.6620    4.9770 N.ar      1 NDP301      0.0000 
     22 C4A        19.1520   37.1430    3.7150 C.ar      1 NDP301      0.0000 
     23 O3         20.6070   43.6350   -0.8490 O.3       1 NDP301      0.0000 
     24 PN         20.5580   45.1810   -0.3920 P.3       1 NDP301      0.0000 
     25 O1N        21.5690   45.3930    0.7280 O.co2     1 NDP301      0.0000 
     26 O2N        20.6700   46.0170   -1.6490 O.co2     1 NDP301      0.0000 
     27 O5D        19.0000   45.1940    0.0600 O.3       1 NDP301      0.0000 
     28 C5D        18.5150   45.5790    1.3520 C.3       1 NDP301      0.0000 
     29 C4D        16.9800   45.6660    1.3970 C.3       1 NDP301      0.0000 
     30 O4D        16.5190   46.9380    0.9070 O.3       1 NDP301      0.0000 
     31 C3D        16.2870   44.6080    0.5580 C.3       1 NDP301      0.0000 
     32 O3D        15.1390   44.1140    1.2550 O.3       1 NDP301      0.0000 
     33 C2D        15.8370   45.3410   -0.6780 C.3       1 NDP301      0.0000 
     34 O2D        14.6550   44.7480   -1.2080 O.3       1 NDP301      0.0000 
     35 C1D        15.5950   46.7530   -0.1640 C.3       1 NDP301      0.0000 
     36 N1N        15.8450   47.7230   -1.2200 N.pl3     1 NDP301      0.0000 
     37 C2N        17.1220   47.9830   -1.5180 C.2       1 NDP301      0.0000 
     38 C3N        17.4510   48.8840   -2.5250 C.2       1 NDP301      0.0000 
     39 C7N        18.8890   49.1810   -2.8180 C.2       1 NDP301      0.0000 
     40 O7N        19.1360   50.2490   -3.3640 O.2       1 NDP301      0.0000 
     41 N7N        19.8430   48.3100   -2.4730 N.am      1 NDP301      0.0000 
     42 C4N        16.3820   49.5930   -3.3260 C.3       1 NDP301      0.0000 
     43 C5N        15.0270   49.2170   -2.9130 C.2       1 NDP301      0.0000 
     44 C6N        14.8160   48.2970   -1.8830 C.2       1 NDP301      0.0000 
     45 P2B        22.5050   35.9380    2.1290 P.3       1 NDP301      0.0000 
     46 O1X        23.7440   35.1490    2.4800 O.co2     1 NDP301      0.0000 
     47 O2X        21.3070   35.6440    3.0040 O.co2     1 NDP301      0.0000 
     48 O3X        22.1630   35.9990    0.6520 O.co2     1 NDP301      0.0000 
@<TRIPOS>BOND
     1    1    2 ar   
     2    1    3 ar   
     3    1    4 1    
     4    1   23 1    
     5    4    5 1    
     6    5    6 1    
     7    6    7 1    
     8    6    8 1    
     9    7   12 1    
    10    8    9 1    
    11    8   10 1    
    12   10   11 1    
    13   10   12 1    
    14   11   45 1    
    15   12   13 1    
    16   13   14 1    
    17   13   22 1    
    18   14   15 2    
    19   15   16 1    
    20   16   17 ar   
    21   16   22 ar   
    22   17   18 1    
    23   17   19 ar   
    24   19   20 ar   
    25   20   21 ar   
    26   21   22 ar   
    27   23   24 1    
    28   24   25 ar   
    29   24   26 ar   
    30   24   27 1    
    31   27   28 1    
    32   28   29 1    
    33   29   30 1    
    34   29   31 1    
    35   30   35 1    
    36   31   32 1    
    37   31   33 1    
    38   33   34 1    
    39   33   35 1    
    40   35   36 1    
    41   36   37 1    
    42   36   44 1    
    43   37   38 2    
    44   38   39 1    
    45   38   42 1    
    46   39   40 2    
    47   39   41 am   
    48   42   43 1    
    49   43   44 2    
    50   45   46 ar   
    51   45   47 ar   
    52   45   48 ar   
@<TRIPOS>SUBSTRUCTURE
     1 NDP301      1 GROUP   
@<TRIPOS>SET
ATOM$ORANGE STATIC     ATOMS   COLORGROUP SYSTEM 
42 5 5 6 6 8 8 10 10 12 12 14 14 16 16 17 17 20 \
20 22 22 28 28 29 29 31 31 33 33 35 35 37 37 38 38 39 \
39 42 42 43 43 44 44 

