#    Name: 6jhb_1_ENO
#    Modification time : Fri May 22 19:36:02 2020

@<TRIPOS>MOLECULE
6jhb_1_ENO
   13    13     1     0     0
SMALL
NO_CHARGES


@<TRIPOS>ATOM
      1 O4          1.3610   74.2240   12.2320 O.2       1 ENO302      0.0000 
      2 C9         -0.8580   73.6280   16.0270 C.ar      1 ENO302      0.0000 
      3 C8         -0.6820   73.4550   17.3950 C.ar      1 ENO302      0.0000 
      4 C7          0.3360   74.1450   18.0370 C.ar      1 ENO302      0.0000 
      5 C6          1.1740   75.0110   17.3390 C.ar      1 ENO302      0.0000 
      6 C5          0.9900   75.1930   15.9650 C.ar      1 ENO302      0.0000 
      7 C4         -0.0160   74.4770   15.3090 C.ar      1 ENO302      0.0000 
      8 O3          0.4980   73.9600   19.3640 O.3       1 ENO302      0.0000 
      9 C3         -0.2670   74.6750   13.8300 C.3       1 ENO302      0.0000 
     10 C2          0.4280   73.7500   12.8660 C.2       1 ENO302      0.0000 
     11 C1         -0.0870   72.3790   12.6380 C.2       1 ENO302      0.0000 
     12 O2         -1.2900   72.2660   12.3940 O.co2     1 ENO302      0.0000 
     13 O1          0.5930   71.3370   12.6660 O.co2     1 ENO302      0.0000 
@<TRIPOS>BOND
     1    1   10 2    
     2    2    3 ar   
     3    2    7 ar   
     4    3    4 ar   
     5    4    5 ar   
     6    4    8 1    
     7    5    6 ar   
     8    6    7 ar   
     9    7    9 1    
    10    9   10 1    
    11   10   11 1    
    12   11   12 ar   
    13   11   13 ar   
@<TRIPOS>SUBSTRUCTURE
     1 ENO302      1 GROUP   
@<TRIPOS>SET

