#    Name: 6rax_1_ATP
#    Modification time : Fri May 22 19:28:56 2020

@<TRIPOS>MOLECULE
6rax_1_ATP
   31    33     1     0     1
SMALL
NO_CHARGES


@<TRIPOS>ATOM
      1 PG        217.8500  247.1980  203.5120 P.3       1 ATP901      0.0000 
      2 O1G       218.6110  246.0020  203.0050 O.co2     1 ATP901      0.0000 
      3 O2G       216.3530  247.0150  203.4760 O.co2     1 ATP901      0.0000 
      4 O3G       218.3800  247.7490  204.8130 O.co2     1 ATP901      0.0000 
      5 PB        218.5650  248.2200  200.9520 P.3       1 ATP901      0.0000 
      6 O1B       218.8750  246.7920  200.5980 O.co2     1 ATP901      0.0000 
      7 O2B       219.5590  249.3200  200.7200 O.co2     1 ATP901      0.0000 
      8 O3B       218.0930  248.4060  202.4750 O.3       1 ATP901      0.0000 
      9 PA        217.5490  249.2760  198.6440 P.3       1 ATP901      0.0000 
     10 O1A       216.3170  249.1000  197.8080 O.co2     1 ATP901      0.0000 
     11 O2A       218.9120  248.9040  198.1490 O.co2     1 ATP901      0.0000 
     12 O3A       217.2900  248.6880  200.1140 O.3       1 ATP901      0.0000 
     13 O5'       217.7430  250.8170  199.0510 O.3       1 ATP901      0.0000 
     14 C5'       218.9780  251.4480  198.7230 C.3       1 ATP901      0.0000 
     15 C4'       218.7200  252.5350  197.6940 C.3       1 ATP901      0.0000 
     16 O4'       219.9290  253.2650  197.4480 O.3       1 ATP901      0.0000 
     17 C3'       218.3010  251.9110  196.3800 C.3       1 ATP901      0.0000 
     18 O3'       217.1150  252.5400  195.9020 O.3       1 ATP901      0.0000 
     19 C2'       219.4100  252.2580  195.4330 C.3       1 ATP901      0.0000 
     20 O2'       218.8940  252.6300  194.1520 O.3       1 ATP901      0.0000 
     21 C1'       220.0870  253.4580  196.0450 C.3       1 ATP901      0.0000 
     22 N9        221.4950  253.3840  195.6370 N.pl3     1 ATP901      0.0000 
     23 C8        222.5830  253.4960  196.4160 C.2       1 ATP901      0.0000 
     24 N7        223.7140  253.4150  195.6760 N.2       1 ATP901      0.0000 
     25 C5        223.3300  253.2930  194.3980 C.ar      1 ATP901      0.0000 
     26 C6        223.9980  253.1720  193.0970 C.ar      1 ATP901      0.0000 
     27 N6        225.3450  253.1640  193.0130 N.pl3     1 ATP901      0.0000 
     28 N1        223.2270  253.0680  191.9960 N.ar      1 ATP901      0.0000 
     29 C2        221.8880  253.0730  192.0520 C.ar      1 ATP901      0.0000 
     30 N3        221.2170  253.1810  193.1990 N.ar      1 ATP901      0.0000 
     31 C4        221.8710  253.3110  194.3740 C.ar      1 ATP901      0.0000 
@<TRIPOS>BOND
     1    1    2 ar   
     2    1    3 ar   
     3    1    4 ar   
     4    1    8 1    
     5    5    6 ar   
     6    5    7 ar   
     7    5    8 1    
     8    5   12 1    
     9    9   10 ar   
    10    9   11 ar   
    11    9   12 1    
    12    9   13 1    
    13   13   14 1    
    14   14   15 1    
    15   15   16 1    
    16   15   17 1    
    17   16   21 1    
    18   17   18 1    
    19   17   19 1    
    20   19   20 1    
    21   19   21 1    
    22   21   22 1    
    23   22   23 1    
    24   22   31 1    
    25   23   24 2    
    26   24   25 1    
    27   25   26 ar   
    28   25   31 ar   
    29   26   27 1    
    30   26   28 ar   
    31   28   29 ar   
    32   29   30 ar   
    33   30   31 ar   
@<TRIPOS>SUBSTRUCTURE
     1 ATP901      1 GROUP   
@<TRIPOS>SET
ATOM$ORANGE STATIC     ATOMS   COLORGROUP SYSTEM 
20 14 14 15 15 17 17 19 19 21 21 23 23 25 25 26 26 29 \
29 31 31 

