#    Name: 6rax_3_ADP
#    Modification time : Fri May 22 19:29:41 2020

@<TRIPOS>MOLECULE
6rax_3_ADP
   27    29     1     0     1
SMALL
NO_CHARGES


@<TRIPOS>ATOM
      1 PB        192.7510  262.0780  216.2320 P.3       1 ADP901      0.0000 
      2 O1B       193.0890  261.7400  214.8040 O.co2     1 ADP901      0.0000 
      3 O2B       193.6210  263.1370  216.8590 O.co2     1 ADP901      0.0000 
      4 O3B       192.4640  260.8950  217.1160 O.co2     1 ADP901      0.0000 
      5 PA        191.1160  263.7390  214.8010 P.3       1 ADP901      0.0000 
      6 O1A       190.5220  262.9400  213.6680 O.co2     1 ADP901      0.0000 
      7 O2A       192.3950  264.5090  214.5890 O.co2     1 ADP901      0.0000 
      8 O3A       191.3430  262.8210  216.0910 O.3       1 ADP901      0.0000 
      9 O5'       190.0320  264.7790  215.3400 O.3       1 ADP901      0.0000 
     10 C5'       190.1600  266.1070  214.8790 C.3       1 ADP901      0.0000 
     11 C4'       188.8170  266.7930  214.7990 C.3       1 ADP901      0.0000 
     12 O4'       189.0300  268.1980  214.7580 O.3       1 ADP901      0.0000 
     13 C3'       188.1070  266.3780  213.5240 C.3       1 ADP901      0.0000 
     14 O3'       186.8290  265.8280  213.8380 O.3       1 ADP901      0.0000 
     15 C2'       187.9450  267.6520  212.7230 C.3       1 ADP901      0.0000 
     16 O2'       186.5930  267.7960  212.2840 O.3       1 ADP901      0.0000 
     17 C1'       188.2940  268.7670  213.6860 C.3       1 ADP901      0.0000 
     18 N9        189.1500  269.7560  213.0050 N.pl3     1 ADP901      0.0000 
     19 C8        190.2720  270.2720  213.5350 C.2       1 ADP901      0.0000 
     20 N7        190.8570  271.1430  212.6830 N.2       1 ADP901      0.0000 
     21 C5        190.0990  271.1770  211.5770 C.ar      1 ADP901      0.0000 
     22 C6        190.1520  271.8920  210.2920 C.ar      1 ADP901      0.0000 
     23 N6        191.1600  272.7520  210.0370 N.pl3     1 ADP901      0.0000 
     24 N1        189.1730  271.6560  209.3960 N.ar      1 ADP901      0.0000 
     25 C2        188.1720  270.7990  209.6570 C.ar      1 ADP901      0.0000 
     26 N3        188.0590  270.1130  210.8060 N.ar      1 ADP901      0.0000 
     27 C4        188.9790  270.2550  211.7850 C.ar      1 ADP901      0.0000 
@<TRIPOS>BOND
     1    1    2 ar   
     2    1    3 ar   
     3    1    4 ar   
     4    1    8 1    
     5    5    6 ar   
     6    5    7 ar   
     7    5    8 1    
     8    5    9 1    
     9    9   10 1    
    10   10   11 1    
    11   11   12 1    
    12   11   13 1    
    13   12   17 1    
    14   13   14 1    
    15   13   15 1    
    16   15   16 1    
    17   15   17 1    
    18   17   18 1    
    19   18   19 1    
    20   18   27 1    
    21   19   20 2    
    22   20   21 1    
    23   21   22 ar   
    24   21   27 ar   
    25   22   23 1    
    26   22   24 ar   
    27   24   25 ar   
    28   25   26 ar   
    29   26   27 ar   
@<TRIPOS>SUBSTRUCTURE
     1 ADP901      1 GROUP   
@<TRIPOS>SET
ATOM$ORANGE STATIC     ATOMS   COLORGROUP SYSTEM 
20 10 10 11 11 13 13 15 15 17 17 19 19 21 21 22 22 25 \
25 27 27 

