#    Name: 6rax_2_ADP
#    Modification time : Fri May 22 19:29:22 2020

@<TRIPOS>MOLECULE
6rax_2_ADP
   27    29     1     0     1
SMALL
NO_CHARGES


@<TRIPOS>ATOM
      1 PB        175.8710  244.7140  236.6820 P.3       1 ADP901      0.0000 
      2 O1B       175.0910  244.6540  235.3960 O.co2     1 ADP901      0.0000 
      3 O2B       176.0040  246.0990  237.2580 O.co2     1 ADP901      0.0000 
      4 O3B       177.1480  243.9160  236.7010 O.co2     1 ADP901      0.0000 
      5 PA        173.3770  244.1820  237.5760 P.3       1 ADP901      0.0000 
      6 O1A       172.6020  243.2270  236.7060 O.co2     1 ADP901      0.0000 
      7 O2A       173.2680  245.5990  237.1060 O.co2     1 ADP901      0.0000 
      8 O3A       174.9490  243.9620  237.7530 O.3       1 ADP901      0.0000 
      9 O5'       172.8070  244.0940  239.0700 O.3       1 ADP901      0.0000 
     10 C5'       171.9190  245.0870  239.5500 C.3       1 ADP901      0.0000 
     11 C4'       170.9270  244.5490  240.5560 C.3       1 ADP901      0.0000 
     12 O4'       170.4010  245.6190  241.3310 O.3       1 ADP901      0.0000 
     13 C3'       169.8070  243.8820  239.7810 C.3       1 ADP901      0.0000 
     14 O3'       169.6500  242.5230  240.1910 O.3       1 ADP901      0.0000 
     15 C2'       168.5790  244.6840  240.1510 C.3       1 ADP901      0.0000 
     16 O2'       167.4930  243.8260  240.5090 O.3       1 ADP901      0.0000 
     17 C1'       168.9810  245.5480  241.3350 C.3       1 ADP901      0.0000 
     18 N9        168.4750  246.9210  241.1930 N.pl3     1 ADP901      0.0000 
     19 C8        169.1720  248.0140  241.5430 C.2       1 ADP901      0.0000 
     20 N7        168.4500  249.1360  241.3340 N.2       1 ADP901      0.0000 
     21 C5        167.2560  248.7470  240.8580 C.ar      1 ADP901      0.0000 
     22 C6        166.0250  249.4320  240.4340 C.ar      1 ADP901      0.0000 
     23 N6        165.9640  250.7760  240.4960 N.pl3     1 ADP901      0.0000 
     24 N1        164.9920  248.6790  239.9980 N.ar      1 ADP901      0.0000 
     25 C2        165.0750  247.3360  239.9510 C.ar      1 ADP901      0.0000 
     26 N3        166.1660  246.6440  240.3240 N.ar      1 ADP901      0.0000 
     27 C4        167.2630  247.2840  240.7930 C.ar      1 ADP901      0.0000 
@<TRIPOS>BOND
     1    1    2 ar   
     2    1    3 ar   
     3    1    4 ar   
     4    1    8 1    
     5    5    6 ar   
     6    5    7 ar   
     7    5    8 1    
     8    5    9 1    
     9    9   10 1    
    10   10   11 1    
    11   11   12 1    
    12   11   13 1    
    13   12   17 1    
    14   13   14 1    
    15   13   15 1    
    16   15   16 1    
    17   15   17 1    
    18   17   18 1    
    19   18   19 1    
    20   18   27 1    
    21   19   20 2    
    22   20   21 1    
    23   21   22 ar   
    24   21   27 ar   
    25   22   23 1    
    26   22   24 ar   
    27   24   25 ar   
    28   25   26 ar   
    29   26   27 ar   
@<TRIPOS>SUBSTRUCTURE
     1 ADP901      1 GROUP   
@<TRIPOS>SET
ATOM$ORANGE STATIC     ATOMS   COLORGROUP SYSTEM 
20 10 10 11 11 13 13 15 15 17 17 19 19 21 21 22 22 25 \
25 27 27 

