#    Name: 5yni_1_SAM
#    Modification time : Fri May 22 19:14:04 2020

@<TRIPOS>MOLECULE
5yni_1_SAM
   27    29     1     0     0
SMALL
NO_CHARGES


@<TRIPOS>ATOM
      1 N          67.7160   85.6310  151.6240 N.4       1 SAM401      0.0000 
      2 CA         67.6410   84.3590  150.8960 C.3       1 SAM401      0.0000 
      3 C          68.8310   83.4880  151.3070 C.2       1 SAM401      0.0000 
      4 O          69.2250   82.6300  150.4860 O.co2     1 SAM401      0.0000 
      5 OXT        69.3070   83.7000  152.4460 O.co2     1 SAM401      0.0000 
      6 CB         67.6160   84.5870  149.3780 C.3       1 SAM401      0.0000 
      7 CG         66.3480   85.3860  149.0570 C.3       1 SAM401      0.0000 
      8 SD         66.1660   85.6640  147.2700 S.3       1 SAM401      0.0000 
      9 CE         67.6430   86.4500  146.6600 C.3       1 SAM401      0.0000 
     10 C5'        64.7490   86.7850  146.9750 C.3       1 SAM401      0.0000 
     11 C4'        63.5380   86.3440  147.7980 C.3       1 SAM401      0.0000 
     12 O4'        62.6150   87.4700  147.8510 O.3       1 SAM401      0.0000 
     13 C3'        62.7700   85.2210  147.0840 C.3       1 SAM401      0.0000 
     14 O3'        62.6680   84.0990  147.9730 O.3       1 SAM401      0.0000 
     15 C2'        61.4150   85.8980  146.8780 C.3       1 SAM401      0.0000 
     16 O2'        60.3410   84.9400  146.9020 O.3       1 SAM401      0.0000 
     17 C1'        61.3430   86.8580  148.0450 C.3       1 SAM401      0.0000 
     18 N9         60.2500   87.8770  147.8590 N.pl3     1 SAM401      0.0000 
     19 C8         60.1020   88.6520  146.7830 C.2       1 SAM401      0.0000 
     20 N7         59.0350   89.4330  146.9610 N.2       1 SAM401      0.0000 
     21 C5         58.5170   89.1500  148.1530 C.ar      1 SAM401      0.0000 
     22 C6         57.4510   89.6430  148.7990 C.ar      1 SAM401      0.0000 
     23 N6         56.7440   90.5950  148.1880 N.pl3     1 SAM401      0.0000 
     24 N1         57.1020   89.2000  150.0170 N.ar      1 SAM401      0.0000 
     25 C2         57.8730   88.1980  150.6140 C.ar      1 SAM401      0.0000 
     26 N3         58.9790   87.7000  149.9190 N.ar      1 SAM401      0.0000 
     27 C4         59.2740   88.1880  148.7040 C.ar      1 SAM401      0.0000 
@<TRIPOS>BOND
     1    1    2 1    
     2    2    3 1    
     3    2    6 1    
     4    3    4 ar   
     5    3    5 ar   
     6    6    7 1    
     7    7    8 1    
     8    8    9 1    
     9    8   10 1    
    10   10   11 1    
    11   11   12 1    
    12   11   13 1    
    13   12   17 1    
    14   13   14 1    
    15   13   15 1    
    16   15   16 1    
    17   15   17 1    
    18   17   18 1    
    19   18   19 1    
    20   18   27 1    
    21   19   20 2    
    22   20   21 1    
    23   21   22 ar   
    24   21   27 ar   
    25   22   23 1    
    26   22   24 ar   
    27   24   25 ar   
    28   25   26 ar   
    29   26   27 ar   
@<TRIPOS>SUBSTRUCTURE
     1 SAM401      1 GROUP   
@<TRIPOS>SET

