#    Name: 5yni_2_GTG
#    Modification time : Fri May 22 19:14:08 2020

@<TRIPOS>MOLECULE
5yni_2_GTG
   52    57     1     0     0
SMALL
NO_CHARGES


@<TRIPOS>ATOM
      1 PA         69.0190   94.3910  138.3370 P.3       1 GTG402      0.0000 
      2 O1A        68.7540   95.5510  139.2160 O.co2     1 GTG402      0.0000 
      3 O2A        68.8660   92.9650  138.7180 O.co2     1 GTG402      0.0000 
      4 O3A        70.5110   94.3620  139.0360 O.3       1 GTG402      0.0000 
      5 PB         71.7890   93.3600  138.6840 P.3       1 GTG402      0.0000 
      6 O1B        71.5890   92.3030  137.6620 O.co2     1 GTG402      0.0000 
      7 O2B        72.9970   93.4740  139.5390 O.co2     1 GTG402      0.0000 
      8 O3B        71.2020   92.3030  139.8470 O.3       1 GTG402      0.0000 
      9 N9A        72.6320   95.1080  134.2270 N.pl3     1 GTG402      0.0000 
     10 C8A        72.6800   95.5210  135.4880 C.2       1 GTG402      0.0000 
     11 N7A        73.9450   95.7730  135.7770 N.pl3     1 GTG402      0.0000 
     12 C7X        74.3530   96.2820  137.1010 C.3       1 GTG402      0.0000 
     13 C5A        74.6960   95.4840  134.7050 C.2       1 GTG402      0.0000 
     14 C6A        76.0090   95.5560  134.4800 C.2       1 GTG402      0.0000 
     15 O6A        76.8010   95.9470  135.3400 O.2       1 GTG402      0.0000 
     16 N1A        76.5140   95.1850  133.2380 N.am      1 GTG402      0.0000 
     17 C2A        75.6300   94.7390  132.2620 C.2       1 GTG402      0.0000 
     18 N2A        76.0900   94.3770  131.0720 N.pl3     1 GTG402      0.0000 
     19 N3A        74.3240   94.6840  132.5330 N.2       1 GTG402      0.0000 
     20 C4A        73.8670   95.0520  133.7430 C.2       1 GTG402      0.0000 
     21 O5D        69.6380   94.6950  136.9000 O.3       1 GTG402      0.0000 
     22 C5D        68.6410   94.7490  135.8490 C.3       1 GTG402      0.0000 
     23 C4D        69.3140   94.4580  134.5230 C.3       1 GTG402      0.0000 
     24 O4D        70.4450   95.3260  134.5580 O.3       1 GTG402      0.0000 
     25 C3D        69.9190   93.0870  134.6680 C.3       1 GTG402      0.0000 
     26 O3D        69.1220   92.1040  134.0120 O.3       1 GTG402      0.0000 
     27 C2D        71.2640   93.2580  134.0040 C.3       1 GTG402      0.0000 
     28 O2D        71.4520   92.4290  132.8600 O.3       1 GTG402      0.0000 
     29 C1D        71.3570   94.7170  133.6530 C.3       1 GTG402      0.0000 
     30 PG         71.7470   90.7260  139.9730 P.3       1 GTG402      0.0000 
     31 O1G        70.9290   89.6640  139.3340 O.co2     1 GTG402      0.0000 
     32 O2G        72.8770   90.4540  140.9030 O.co2     1 GTG402      0.0000 
     33 O5E        70.8150   90.4850  141.3060 O.3       1 GTG402      0.0000 
     34 C5E        69.3800   90.5800  141.2970 C.3       1 GTG402      0.0000 
     35 C4E        68.6840   89.4780  142.1360 C.3       1 GTG402      0.0000 
     36 O4E        69.0640   88.1650  141.6170 O.3       1 GTG402      0.0000 
     37 C3E        69.1170   89.4700  143.6130 C.3       1 GTG402      0.0000 
     38 O3E        68.0430   89.0030  144.4250 O.3       1 GTG402      0.0000 
     39 C2E        70.1760   88.4030  143.5720 C.3       1 GTG402      0.0000 
     40 O2E        70.4310   87.9110  144.8920 O.3       1 GTG402      0.0000 
     41 C1E        69.4570   87.3680  142.7460 C.3       1 GTG402      0.0000 
     42 N9B        70.3900   86.3380  142.2030 N.pl3     1 GTG402      0.0000 
     43 C8B        71.2350   86.7190  141.0720 C.2       1 GTG402      0.0000 
     44 N7B        72.0980   85.5640  140.9250 N.2       1 GTG402      0.0000 
     45 C5B        71.6680   84.6080  141.7460 C.2       1 GTG402      0.0000 
     46 C6B        72.1160   83.3580  141.8760 C.2       1 GTG402      0.0000 
     47 O6B        73.0400   82.9480  141.1750 O.2       1 GTG402      0.0000 
     48 N1B        71.5350   82.4960  142.8110 N.am      1 GTG402      0.0000 
     49 C2B        70.4880   82.9900  143.5900 C.2       1 GTG402      0.0000 
     50 N2B        69.9020   82.2110  144.4940 N.pl3     1 GTG402      0.0000 
     51 N3B        70.0800   84.2550  143.4200 N.2       1 GTG402      0.0000 
     52 C4B        70.6540   85.0650  142.5100 C.2       1 GTG402      0.0000 
@<TRIPOS>BOND
     1    1    3 ar   
     2    1    4 1    
     3    1   21 1    
     4    1    2 ar   
     5    4    5 1    
     6    5    6 ar   
     7    5    7 ar   
     8    5    8 1    
     9    8   30 1    
    10    9   10 1    
    11    9   20 1    
    12    9   29 1    
    13   10   11 2    
    14   11   12 1    
    15   11   13 1    
    16   13   14 1    
    17   13   20 2    
    18   14   15 2    
    19   14   16 am   
    20   16   17 1    
    21   17   18 1    
    22   17   19 2    
    23   19   20 1    
    24   21   22 1    
    25   22   23 1    
    26   23   24 1    
    27   23   25 1    
    28   24   29 1    
    29   25   26 1    
    30   25   27 1    
    31   27   28 1    
    32   27   29 1    
    33   30   31 ar   
    34   30   32 ar   
    35   30   33 1    
    36   33   34 1    
    37   34   35 1    
    38   35   36 1    
    39   35   37 1    
    40   36   41 1    
    41   37   38 1    
    42   37   39 1    
    43   39   40 1    
    44   39   41 1    
    45   41   42 1    
    46   42   43 1    
    47   42   52 1    
    48   43   44 2    
    49   44   45 1    
    50   45   46 1    
    51   45   52 2    
    52   46   47 2    
    53   46   48 am   
    54   48   49 1    
    55   49   50 1    
    56   49   51 2    
    57   51   52 1    
@<TRIPOS>SUBSTRUCTURE
     1 GTG402      1 GROUP   
@<TRIPOS>SET

