#    Name: 5yni_2_GTG_CAVITY_N1_ALL
#    Modification time : Fri May 22 19:14:10 2020

@<TRIPOS>MOLECULE
5yni_2_GTG_CAVITY_N1_ALL
  100     0     7     0     0
SMALL
NO_CHARGES


@<TRIPOS>ATOM
      1 OG         72.6700   93.1100  133.4700 O.3       1 SER1        0.0000 
      2 OG         73.4300   89.4300  141.7800 O.3       1 SER1        0.0000 
      3 OG         73.0700   90.0900  140.4800 O.3       1 SER1        0.0000 
      4 OG         71.2800   93.3700  133.9800 O.3       1 SER1        0.0000 
      5 OG         72.0400   89.7000  142.2900 O.3       1 SER1        0.0000 
      6 OG         71.6800   90.3500  140.9900 O.3       1 SER1        0.0000 
      7 OG         69.9000   93.6300  134.4900 O.3       1 SER1        0.0000 
      8 OG         73.1200   94.4300  134.0100 O.3       1 SER1        0.0000 
      9 OG         73.1600   92.0700  139.7200 O.3       1 SER1        0.0000 
     10 OG         72.8000   92.7300  138.4200 O.3       1 SER1        0.0000 
     11 OG         72.0900   94.0400  135.8200 O.3       1 SER1        0.0000 
     12 OG         71.7300   94.7000  134.5200 O.3       1 SER1        0.0000 
     13 OG         71.7800   92.3300  140.2400 O.3       1 SER1        0.0000 
     14 OG         70.7000   94.3000  136.3400 O.3       1 SER1        0.0000 
     15 OG         69.9900   95.6100  133.7300 O.3       1 SER1        0.0000 
     16 OG         68.6500   93.5100  139.9600 O.3       1 SER1        0.0000 
     17 OG         68.2900   94.1700  138.6600 O.3       1 SER1        0.0000 
     18 OG         73.2600   94.0500  138.9700 O.3       1 SER1        0.0000 
     19 OG         72.9000   94.7100  137.6700 O.3       1 SER1        0.0000 
     20 OG         71.5100   94.9700  138.1800 O.3       1 SER1        0.0000 
     21 OG         70.1300   95.2300  138.6900 O.3       1 SER1        0.0000 
     22 OG         68.7400   95.4900  139.2000 O.3       1 SER1        0.0000 
     23 N          77.0400   85.3500  140.4600 N.am      2 ALA2        0.0000 
     24 N          76.6800   86.0000  139.1600 N.am      2 ALA2        0.0000 
     25 N          76.1000   86.9300  141.5100 N.am      2 ALA2        0.0000 
     26 N          74.7200   87.1900  142.0300 N.am      2 ALA2        0.0000 
     27 O          73.3300   87.4600  142.5400 O.2       2 ALA2        0.0000 
     28 N          67.7000   93.2300  133.1600 N.am      2 ALA2        0.0000 
     29 N          76.2000   88.9100  140.7600 N.am      2 ALA2        0.0000 
     30 O          73.7800   88.7800  143.0800 O.2       2 ALA2        0.0000 
     31 O          72.4000   89.0400  143.6000 O.2       2 ALA2        0.0000 
     32 OD1        75.3000   86.2700  139.6700 O.co2     3 ASP3        0.0000 
     33 OD1        70.4200   88.3600  138.6100 O.co2     3 ASP3        0.0000 
     34 OD1        75.7500   87.5900  140.2100 O.co2     3 ASP3        0.0000 
     35 OD1        74.3600   87.8500  140.7300 O.co2     3 ASP3        0.0000 
     36 OD1        72.9800   88.1100  141.2400 O.co2     3 ASP3        0.0000 
     37 OD1        72.3000   87.0600  144.3500 O.co2     3 ASP3        0.0000 
     38 OD1        71.5900   88.3700  141.7500 O.co2     3 ASP3        0.0000 
     39 OD1        71.2300   89.0300  140.4500 O.co2     3 ASP3        0.0000 
     40 OD1        70.8800   89.6900  139.1500 O.co2     3 ASP3        0.0000 
     41 OD1        70.9200   87.3200  144.8600 O.co2     3 ASP3        0.0000 
     42 OD1        69.8500   89.2900  140.9600 O.co2     3 ASP3        0.0000 
     43 OD1        69.1800   88.2400  144.0800 O.co2     3 ASP3        0.0000 
     44 OD1        67.7900   88.5000  144.5900 O.co2     3 ASP3        0.0000 
     45 OD1        72.7600   88.3800  144.9000 O.co2     3 ASP3        0.0000 
     46 OD1        71.3300   91.0100  139.6900 O.co2     3 ASP3        0.0000 
     47 OD1        70.2500   92.9800  135.7900 O.co2     3 ASP3        0.0000 
     48 OD1        71.3700   88.6400  145.4100 O.co2     3 ASP3        0.0000 
     49 OD1        71.0100   89.3000  144.1100 O.co2     3 ASP3        0.0000 
     50 OD1        69.9400   91.2700  140.2100 O.co2     3 ASP3        0.0000 
     51 OD1        68.8700   93.2400  136.3000 O.co2     3 ASP3        0.0000 
     52 OD1        69.2700   90.2200  143.3200 O.co2     3 ASP3        0.0000 
     53 OD1        71.4200   92.9900  138.9400 O.co2     3 ASP3        0.0000 
     54 OD1        71.0600   93.6400  137.6400 O.co2     3 ASP3        0.0000 
     55 OD1        70.0300   93.2500  139.4500 O.co2     3 ASP3        0.0000 
     56 OD1        69.6800   93.9100  138.1500 O.co2     3 ASP3        0.0000 
     57 NZ         70.3500   94.9600  135.0300 N.4       4 LYS4        0.0000 
     58 NZ         72.5400   95.3600  136.3700 N.4       4 LYS4        0.0000 
     59 NZ         72.1800   96.0200  135.0700 N.4       4 LYS4        0.0000 
     60 NZ         71.1600   95.6200  136.8800 N.4       4 LYS4        0.0000 
     61 CZ         66.9800   87.8300  142.7400 C.ar      5 PHE5        0.0000 
     62 CZ         68.4600   89.5500  141.4800 C.ar      5 PHE5        0.0000 
     63 CZ         68.1000   90.2100  140.1700 C.ar      5 PHE5        0.0000 
     64 CZ         67.4300   89.1600  143.2900 C.ar      5 PHE5        0.0000 
     65 CZ         68.9100   90.8700  142.0200 C.ar      5 PHE5        0.0000 
     66 CZ         68.5600   91.5300  140.7200 C.ar      5 PHE5        0.0000 
     67 CZ         67.8800   90.4800  143.8300 C.ar      5 PHE5        0.0000 
     68 CZ         69.3200   94.5600  136.8500 C.ar      5 PHE5        0.0000 
     69 CZ         68.9600   95.2200  135.5500 C.ar      5 PHE5        0.0000 
     70 CZ         67.5800   95.4800  136.0600 C.ar      5 PHE5        0.0000 
     71 CZ         73.9300   95.1000  135.8500 C.ar      5 PHE5        0.0000 
     72 CZ         69.7700   95.8900  137.3900 C.ar      5 PHE5        0.0000 
     73 CZ         68.3900   96.1500  137.9000 C.ar      5 PHE5        0.0000 
     74 CA         69.4000   87.9700  140.4200 C.3       6 GLY6        0.0000 
     75 CA         77.1300   87.3300  139.7000 C.3       6 GLY6        0.0000 
     76 CA         73.6900   86.8000  143.8400 C.3       6 GLY6        0.0000 
     77 CA         68.0600   92.5700  134.4600 C.3       6 GLY6        0.0000 
     78 CA         74.8100   89.1700  141.2700 C.3       6 GLY6        0.0000 
     79 CA         74.4500   89.8300  139.9700 C.3       6 GLY6        0.0000 
     80 CA         72.7100   90.7500  139.1800 C.3       6 GLY6        0.0000 
     81 CA         68.5100   93.8900  135.0000 C.3       6 GLY6        0.0000 
     82 CA         68.1500   94.5500  133.7000 C.3       6 GLY6        0.0000 
     83 CA         67.4800   93.5000  136.8200 C.3       6 GLY6        0.0000 
     84 CA         67.1300   94.1600  135.5200 C.3       6 GLY6        0.0000 
     85 CA         71.1100   91.2800  143.3500 C.3       6 GLY6        0.0000 
     86 CA         70.7500   91.9400  142.0500 C.3       6 GLY6        0.0000 
     87 CA         70.3900   92.5900  140.7500 C.3       6 GLY6        0.0000 
     88 CA         68.6100   95.8700  134.2500 C.3       6 GLY6        0.0000 
     89 CA         69.7200   91.5400  143.8600 C.3       6 GLY6        0.0000 
     90 CA         67.9300   94.8200  137.3600 C.3       6 GLY6        0.0000 
     91 CA         70.4900   94.5700  139.9900 C.3       6 GLY6        0.0000 
     92 DU         75.6500   85.6100  140.9700 H         7 CUB7        0.0000 
     93 DU         68.7300   86.9200  143.5300 H         7 CUB7        0.0000 
     94 DU         67.3400   87.1800  144.0400 H         7 CUB7        0.0000 
     95 DU         71.9500   87.7200  143.0500 H         7 CUB7        0.0000 
     96 DU         70.5600   87.9800  143.5600 H         7 CUB7        0.0000 
     97 DU         70.2000   88.6300  142.2600 H         7 CUB7        0.0000 
     98 DU         68.8200   88.9000  142.7800 H         7 CUB7        0.0000 
     99 DU         70.6600   89.9600  142.8100 H         7 CUB7        0.0000 
    100 DU         70.3000   90.6100  141.5100 H         7 CUB7        0.0000 
@<TRIPOS>BOND
@<TRIPOS>SUBSTRUCTURE
     1 SER1        1 GROUP   
     2 ALA2       23 GROUP   
     3 ASP3       32 GROUP   
     4 LYS4       57 GROUP   
     5 PHE5       61 GROUP   
     6 GLY6       74 GROUP   
     7 CUB7       92 GROUP   
@<TRIPOS>SET

