#    Name: 5yni_1_SAM_CAVITY_N1_ALL
#    Modification time : Fri May 22 19:14:05 2020

@<TRIPOS>MOLECULE
5yni_1_SAM_CAVITY_N1_ALL
   90     0     6     0     0
SMALL
NO_CHARGES


@<TRIPOS>ATOM
      1 N          62.1900   83.3400  145.2500 N.am      1 ALA2        0.0000 
      2 N          60.8000   83.6000  145.7600 N.am      1 ALA2        0.0000 
      3 N          60.4500   84.2500  144.4600 N.am      1 ALA2        0.0000 
      4 N          59.0600   84.5100  144.9800 N.am      1 ALA2        0.0000 
      5 N          64.3800   83.7400  146.5800 N.am      1 ALA2        0.0000 
      6 N          64.8300   85.0600  147.1300 N.am      1 ALA2        0.0000 
      7 N          64.1200   86.3800  144.5300 N.am      1 ALA2        0.0000 
      8 N          63.0900   85.9800  146.3400 N.am      1 ALA2        0.0000 
      9 N          62.7300   86.6400  145.0400 N.am      1 ALA2        0.0000 
     10 N          61.3500   86.9000  145.5500 N.am      1 ALA2        0.0000 
     11 N          59.6100   87.8200  144.7600 N.am      1 ALA2        0.0000 
     12 N          65.2800   86.3900  147.6700 N.am      1 ALA2        0.0000 
     13 N          64.9300   87.0400  146.3700 N.am      1 ALA2        0.0000 
     14 N          64.5700   87.7000  145.0700 N.am      1 ALA2        0.0000 
     15 N          63.9000   86.6500  148.1800 N.am      1 ALA2        0.0000 
     16 O          63.5400   87.3000  146.8800 O.2       1 ALA2        0.0000 
     17 O          62.1600   87.5700  147.4000 O.2       1 ALA2        0.0000 
     18 N          60.4100   88.4800  146.6100 N.am      1 ALA2        0.0000 
     19 O          59.7400   87.4300  149.7200 O.2       1 ALA2        0.0000 
     20 O          58.3600   87.6900  150.2300 O.2       1 ALA2        0.0000 
     21 N          66.7600   88.1100  146.4000 N.am      1 ALA2        0.0000 
     22 O          60.8600   89.8100  147.1500 O.2       1 ALA2        0.0000 
     23 O          57.0700   89.9300  149.9900 O.2       1 ALA2        0.0000 
     24 OD1        68.1500   87.8400  145.8900 O.co2     2 ASP3        0.0000 
     25 OD1        67.7900   88.5000  144.5900 O.co2     2 ASP3        0.0000 
     26 NZ         63.5700   83.0700  144.7400 N.4       3 LYS4        0.0000 
     27 NZ         65.4100   84.1400  144.7700 N.4       3 LYS4        0.0000 
     28 NZ         63.0000   84.0000  147.1000 N.4       3 LYS4        0.0000 
     29 NZ         61.6100   84.2600  147.6100 N.4       3 LYS4        0.0000 
     30 NZ         61.2500   84.9200  146.3100 N.4       3 LYS4        0.0000 
     31 NZ         59.8700   85.1800  146.8200 N.4       3 LYS4        0.0000 
     32 NZ         63.4500   85.3300  147.6400 N.4       3 LYS4        0.0000 
     33 NZ         61.7100   86.2400  146.8500 N.4       3 LYS4        0.0000 
     34 NZ         60.3200   86.5000  147.3600 N.4       3 LYS4        0.0000 
     35 NZ         53.7100   89.5200  145.5100 N.4       3 LYS4        0.0000 
     36 NZ         68.0600   85.8600  146.6500 N.4       3 LYS4        0.0000 
     37 NZ         66.6700   86.1300  147.1600 N.4       3 LYS4        0.0000 
     38 NZ         62.5100   86.9100  148.7000 N.4       3 LYS4        0.0000 
     39 NZ         61.1300   87.1700  149.2100 N.4       3 LYS4        0.0000 
     40 NZ         58.3100   90.0600  144.5200 N.4       3 LYS4        0.0000 
     41 NZ         56.9300   90.3200  145.0300 N.4       3 LYS4        0.0000 
     42 NZ         55.5400   90.5800  145.5400 N.4       3 LYS4        0.0000 
     43 NZ         55.1900   91.2400  144.2400 N.4       3 LYS4        0.0000 
     44 NZ         54.1600   90.8400  146.0600 N.4       3 LYS4        0.0000 
     45 NZ         57.3800   91.6400  145.5700 N.4       3 LYS4        0.0000 
     46 NZ         56.7100   90.5900  148.6900 N.4       3 LYS4        0.0000 
     47 NZ         56.3500   91.2500  147.3900 N.4       3 LYS4        0.0000 
     48 NZ         55.9900   91.9000  146.0900 N.4       3 LYS4        0.0000 
     49 NZ         55.6400   92.5600  144.7900 N.4       3 LYS4        0.0000 
     50 NZ         54.6100   92.1600  146.6000 N.4       3 LYS4        0.0000 
     51 CZ         65.1500   86.7700  142.7100 C.ar      4 PHE5        0.0000 
     52 CZ         59.1200   90.7200  146.3600 C.ar      4 PHE5        0.0000 
     53 CZ         57.7400   90.9900  146.8800 C.ar      4 PHE5        0.0000 
     54 CA         61.9300   85.9700  143.1900 C.3       5 GLY6        0.0000 
     55 CA         59.5100   85.8400  145.5200 C.3       5 GLY6        0.0000 
     56 CA         59.1500   86.4900  144.2200 C.3       5 GLY6        0.0000 
     57 CA         59.9600   87.1600  146.0600 C.3       5 GLY6        0.0000 
     58 CA         58.9300   86.7700  147.8800 C.3       5 GLY6        0.0000 
     59 CA         57.8600   88.7300  143.9700 C.3       5 GLY6        0.0000 
     60 CA         56.4800   89.0000  144.4900 C.3       5 GLY6        0.0000 
     61 CA         55.0900   89.2600  145.0000 C.3       5 GLY6        0.0000 
     62 CA         65.9600   87.4400  144.5600 C.3       5 GLY6        0.0000 
     63 CA         60.7700   87.8300  147.9100 C.3       5 GLY6        0.0000 
     64 CA         59.3900   88.0900  148.4200 C.3       5 GLY6        0.0000 
     65 CA         59.0300   88.7500  147.1200 C.3       5 GLY6        0.0000 
     66 CA         58.6700   89.4000  145.8200 C.3       5 GLY6        0.0000 
     67 CA         58.0000   88.3500  148.9300 C.3       5 GLY6        0.0000 
     68 CA         57.6400   89.0100  147.6300 C.3       5 GLY6        0.0000 
     69 CA         57.2900   89.6600  146.3300 C.3       5 GLY6        0.0000 
     70 CA         56.6200   88.6100  149.4400 C.3       5 GLY6        0.0000 
     71 CA         56.2600   89.2700  148.1400 C.3       5 GLY6        0.0000 
     72 CA         55.9000   89.9200  146.8400 C.3       5 GLY6        0.0000 
     73 CA         61.2200   89.1500  148.4500 C.3       5 GLY6        0.0000 
     74 CA         59.8400   89.4100  148.9600 C.3       5 GLY6        0.0000 
     75 CA         59.4800   90.0700  147.6600 C.3       5 GLY6        0.0000 
     76 CA         58.8100   89.0200  150.7800 C.3       5 GLY6        0.0000 
     77 CA         58.4500   89.6700  149.4800 C.3       5 GLY6        0.0000 
     78 CA         58.0900   90.3300  148.1800 C.3       5 GLY6        0.0000 
     79 DU         64.0300   84.4000  145.2800 H         6 CUB7        0.0000 
     80 DU         63.6700   85.0500  143.9800 H         6 CUB7        0.0000 
     81 DU         62.6400   84.6600  145.8000 H         6 CUB7        0.0000 
     82 DU         62.2800   85.3100  144.4900 H         6 CUB7        0.0000 
     83 DU         60.9000   85.5800  145.0100 H         6 CUB7        0.0000 
     84 DU         66.2200   84.8000  146.6100 H         6 CUB7        0.0000 
     85 DU         65.5000   86.1200  144.0100 H         6 CUB7        0.0000 
     86 DU         64.4800   85.7200  145.8300 H         6 CUB7        0.0000 
     87 DU         67.7000   86.5200  145.3500 H         6 CUB7        0.0000 
     88 DU         67.3400   87.1800  144.0400 H         6 CUB7        0.0000 
     89 DU         66.3100   86.7800  145.8600 H         6 CUB7        0.0000 
     90 DU         54.2500   92.8200  145.3000 H         6 CUB7        0.0000 
@<TRIPOS>BOND
@<TRIPOS>SUBSTRUCTURE
     1 ALA2        1 GROUP   
     2 ASP3       24 GROUP   
     3 LYS4       26 GROUP   
     4 PHE5       51 GROUP   
     5 GLY6       54 GROUP   
     6 CUB7       79 GROUP   
@<TRIPOS>SET

