#    Name: 6ik9_1_DGT
#    Modification time : Fri May 22 19:30:49 2020

@<TRIPOS>MOLECULE
6ik9_1_DGT
   31    33     1     0     0
SMALL
NO_CHARGES


@<TRIPOS>ATOM
      1 PG        185.8360  281.5660 -119.1520 P.3       1 DGT601      0.0000 
      2 O1G       184.7520  282.4470 -119.7230 O.co2     1 DGT601      0.0000 
      3 O2G       185.9250  281.7480 -117.6590 O.co2     1 DGT601      0.0000 
      4 O3G       187.1440  281.9310 -119.8080 O.co2     1 DGT601      0.0000 
      5 O3B       185.4910  279.9930 -119.4730 O.3       1 DGT601      0.0000 
      6 PB        184.5730  279.5990 -120.7680 P.3       1 DGT601      0.0000 
      7 O1B       183.1200  279.5870 -120.3590 O.co2     1 DGT601      0.0000 
      8 O2B       184.9690  278.2410 -121.2850 O.co2     1 DGT601      0.0000 
      9 O3A       184.8440  280.7590 -121.9050 O.3       1 DGT601      0.0000 
     10 PA        184.6930  280.5100 -123.5210 P.3       1 DGT601      0.0000 
     11 O1A       185.9890  279.9770 -124.0790 O.co2     1 DGT601      0.0000 
     12 O2A       184.3610  281.8140 -124.2090 O.co2     1 DGT601      0.0000 
     13 O5'       183.5030  279.3840 -123.7370 O.3       1 DGT601      0.0000 
     14 C5'       182.1930  279.8350 -123.9100 C.3       1 DGT601      0.0000 
     15 C4'       181.2210  278.8550 -123.7080 C.3       1 DGT601      0.0000 
     16 O4'       180.9410  278.0780 -125.0420 O.3       1 DGT601      0.0000 
     17 C3'       181.6500  277.8070 -122.6630 C.3       1 DGT601      0.0000 
     18 O3'       180.8770  277.9940 -121.4020 O.3       1 DGT601      0.0000 
     19 C2'       181.3460  276.6370 -123.2000 C.3       1 DGT601      0.0000 
     20 C1'       181.2580  276.8330 -124.8210 C.3       1 DGT601      0.0000 
     21 N9        182.5270  276.5360 -125.4230 N.pl3     1 DGT601      0.0000 
     22 C8        183.6540  277.0700 -125.9310 C.2       1 DGT601      0.0000 
     23 N7        184.4510  276.0520 -126.3240 N.2       1 DGT601      0.0000 
     24 C5        183.8270  274.9100 -126.0620 C.2       1 DGT601      0.0000 
     25 C6        184.2200  273.4460 -126.2760 C.2       1 DGT601      0.0000 
     26 O6        185.2570  273.1650 -126.7600 O.2       1 DGT601      0.0000 
     27 N1        183.3350  272.4000 -125.8940 N.am      1 DGT601      0.0000 
     28 C2        182.0760  272.7330 -125.3040 C.2       1 DGT601      0.0000 
     29 N2        181.1700  271.6860 -124.9010 N.pl3     1 DGT601      0.0000 
     30 N3        181.7040  274.1220 -125.1030 N.2       1 DGT601      0.0000 
     31 C4        182.6260  275.2140 -125.5020 C.2       1 DGT601      0.0000 
@<TRIPOS>BOND
     1    1    2 ar   
     2    1    3 ar   
     3    1    4 ar   
     4    1    5 1    
     5    5    6 1    
     6    6    7 ar   
     7    6    8 ar   
     8    6    9 1    
     9    9   10 1    
    10   10   11 ar   
    11   10   12 ar   
    12   10   13 1    
    13   13   14 1    
    14   14   15 1    
    15   15   16 1    
    16   15   17 1    
    17   16   20 1    
    18   17   18 1    
    19   17   19 1    
    20   19   20 1    
    21   20   21 1    
    22   21   22 1    
    23   21   31 1    
    24   22   23 2    
    25   23   24 1    
    26   24   25 1    
    27   24   31 2    
    28   25   26 2    
    29   25   27 am   
    30   27   28 1    
    31   28   29 1    
    32   28   30 2    
    33   30   31 1    
@<TRIPOS>SUBSTRUCTURE
     1 DGT601      1 GROUP   
@<TRIPOS>SET

