#    Name: 6ik9_2_DGT
#    Modification time : Fri May 22 19:30:58 2020

@<TRIPOS>MOLECULE
6ik9_2_DGT
   31    33     1     0     0
SMALL
NO_CHARGES


@<TRIPOS>ATOM
      1 PG        212.1490  307.2150 -198.5910 P.3       1 DGT701      0.0000 
      2 O1G       213.0450  307.0220 -197.4430 O.co2     1 DGT701      0.0000 
      3 O2G       210.8770  307.8380 -198.1970 O.co2     1 DGT701      0.0000 
      4 O3G       212.6770  308.1590 -199.5470 O.co2     1 DGT701      0.0000 
      5 O3B       211.9830  305.8950 -199.4510 O.3       1 DGT701      0.0000 
      6 PB        212.2670  304.4640 -198.8490 P.3       1 DGT701      0.0000 
      7 O1B       211.2410  303.5410 -199.3290 O.co2     1 DGT701      0.0000 
      8 O2B       213.5480  303.9900 -199.3440 O.co2     1 DGT701      0.0000 
      9 O3A       212.2250  304.5020 -197.2500 O.3       1 DGT701      0.0000 
     10 PA        211.9510  303.1530 -196.4190 P.3       1 DGT701      0.0000 
     11 O1A       212.3630  303.2930 -195.0380 O.co2     1 DGT701      0.0000 
     12 O2A       210.5090  302.9210 -196.3610 O.co2     1 DGT701      0.0000 
     13 O5'       212.5420  301.9060 -197.2350 O.3       1 DGT701      0.0000 
     14 C5'       213.6320  301.2010 -196.8090 C.3       1 DGT701      0.0000 
     15 C4'       214.2290  300.4000 -197.7790 C.3       1 DGT701      0.0000 
     16 O4'       213.9540  298.9010 -197.5280 O.3       1 DGT701      0.0000 
     17 C3'       213.7690  300.6560 -199.2000 C.3       1 DGT701      0.0000 
     18 O3'       214.8730  301.3430 -199.8870 O.3       1 DGT701      0.0000 
     19 C2'       213.6180  299.4780 -199.7330 C.3       1 DGT701      0.0000 
     20 C1'       213.3350  298.4320 -198.5430 C.3       1 DGT701      0.0000 
     21 N9        211.9710  298.3610 -198.1970 N.pl3     1 DGT701      0.0000 
     22 C8        211.1120  298.8470 -197.3420 C.2       1 DGT701      0.0000 
     23 N7        209.9470  298.3160 -197.6030 N.2       1 DGT701      0.0000 
     24 C5        210.0960  297.5130 -198.5960 C.2       1 DGT701      0.0000 
     25 C6        209.0830  296.6620 -199.2850 C.2       1 DGT701      0.0000 
     26 O6        207.9980  296.6920 -198.9120 O.2       1 DGT701      0.0000 
     27 N1        209.4290  295.8360 -200.3390 N.am      1 DGT701      0.0000 
     28 C2        210.7730  295.8510 -200.7460 C.2       1 DGT701      0.0000 
     29 N2        211.1330  295.0290 -201.8370 N.pl3     1 DGT701      0.0000 
     30 N3        211.7410  296.6760 -200.0880 N.2       1 DGT701      0.0000 
     31 C4        211.3550  297.5250 -198.9710 C.2       1 DGT701      0.0000 
@<TRIPOS>BOND
     1    1    2 ar   
     2    1    3 ar   
     3    1    4 ar   
     4    1    5 1    
     5    5    6 1    
     6    6    7 ar   
     7    6    8 ar   
     8    6    9 1    
     9    9   10 1    
    10   10   11 ar   
    11   10   12 ar   
    12   10   13 1    
    13   13   14 1    
    14   14   15 1    
    15   15   16 1    
    16   15   17 1    
    17   16   20 1    
    18   17   18 1    
    19   17   19 1    
    20   19   20 1    
    21   20   21 1    
    22   21   22 1    
    23   21   31 1    
    24   22   23 2    
    25   23   24 1    
    26   24   25 1    
    27   24   31 2    
    28   25   26 2    
    29   25   27 am   
    30   27   28 1    
    31   28   29 1    
    32   28   30 2    
    33   30   31 1    
@<TRIPOS>SUBSTRUCTURE
     1 DGT701      1 GROUP   
@<TRIPOS>SET

