#    Name: 6ik9_1_DGT_CAVITY_N1_4
#    Modification time : Fri May 22 19:30:51 2020

@<TRIPOS>MOLECULE
6ik9_1_DGT_CAVITY_N1_4
  104     0     7     0     0
SMALL
NO_CHARGES


@<TRIPOS>ATOM
      1 OG        186.2900  283.0500 -114.1500 O.3       1 SER1        0.0000 
      2 N         180.2300  277.1000 -124.9600 N.am      2 ALA2        0.0000 
      3 N         181.8500  272.6800 -125.5200 N.am      2 ALA2        0.0000 
      4 N         182.2800  277.4000 -125.4400 N.am      2 ALA2        0.0000 
      5 N         184.2000  281.0200 -124.3500 N.am      2 ALA2        0.0000 
      6 O         184.4900  280.4300 -118.7800 O.2       2 ALA2        0.0000 
      7 O         184.9100  280.8300 -116.7400 O.2       2 ALA2        0.0000 
      8 O         185.7200  280.7800 -118.0000 O.2       2 ALA2        0.0000 
      9 O         189.7900  280.5100 -124.2900 O.2       2 ALA2        0.0000 
     10 OD1       181.4600  277.4500 -124.1800 O.co2     3 ASP3        0.0000 
     11 OD1       181.7300  276.0000 -123.9500 O.co2     3 ASP3        0.0000 
     12 OD1       182.5400  275.9400 -125.2100 O.co2     3 ASP3        0.0000 
     13 OD1       182.8100  274.4900 -124.9700 O.co2     3 ASP3        0.0000 
     14 OD1       180.8000  279.3700 -121.1200 O.co2     3 ASP3        0.0000 
     15 OD1       182.6900  277.8100 -123.4000 O.co2     3 ASP3        0.0000 
     16 OD1       183.5100  277.7500 -124.6600 O.co2     3 ASP3        0.0000 
     17 OD1       182.8400  279.6700 -121.6000 O.co2     3 ASP3        0.0000 
     18 OD1       183.1100  278.2100 -121.3600 O.co2     3 ASP3        0.0000 
     19 OD1       184.4700  279.5600 -124.1200 O.co2     3 ASP3        0.0000 
     20 OD1       185.2800  279.5100 -125.3800 O.co2     3 ASP3        0.0000 
     21 OD1       184.0700  280.0200 -120.8200 O.co2     3 ASP3        0.0000 
     22 OD1       184.3400  278.5700 -120.5800 O.co2     3 ASP3        0.0000 
     23 OD1       184.6200  281.4300 -122.3100 O.co2     3 ASP3        0.0000 
     24 OD1       184.8900  279.9700 -122.0800 O.co2     3 ASP3        0.0000 
     25 OD1       185.7000  279.9200 -123.3400 O.co2     3 ASP3        0.0000 
     26 OD1       186.5200  279.8600 -124.6000 O.co2     3 ASP3        0.0000 
     27 OD1       184.7600  278.9700 -118.5400 O.co2     3 ASP3        0.0000 
     28 OD1       185.0300  277.5100 -118.3100 O.co2     3 ASP3        0.0000 
     29 OD1       185.0400  281.8300 -120.2700 O.co2     3 ASP3        0.0000 
     30 OD1       185.3100  280.3700 -120.0400 O.co2     3 ASP3        0.0000 
     31 OD1       185.8500  281.7800 -121.5300 O.co2     3 ASP3        0.0000 
     32 OD1       186.1200  280.3200 -121.3000 O.co2     3 ASP3        0.0000 
     33 OD1       186.4000  283.1800 -123.0300 O.co2     3 ASP3        0.0000 
     34 OD1       186.6700  281.7200 -122.7900 O.co2     3 ASP3        0.0000 
     35 OD1       186.9300  280.2700 -122.5600 O.co2     3 ASP3        0.0000 
     36 OD1       187.7500  280.2100 -123.8100 O.co2     3 ASP3        0.0000 
     37 OD1       188.5600  280.1600 -125.0700 O.co2     3 ASP3        0.0000 
     38 OD1       188.8300  278.7000 -124.8400 O.co2     3 ASP3        0.0000 
     39 OD1       185.9900  279.3200 -117.7600 O.co2     3 ASP3        0.0000 
     40 OD1       186.2600  277.8700 -117.5300 O.co2     3 ASP3        0.0000 
     41 OD1       186.2700  282.1800 -119.4900 O.co2     3 ASP3        0.0000 
     42 OD1       186.5400  280.7300 -119.2600 O.co2     3 ASP3        0.0000 
     43 OD1       187.0800  282.1300 -120.7500 O.co2     3 ASP3        0.0000 
     44 OD1       187.3500  280.6700 -120.5200 O.co2     3 ASP3        0.0000 
     45 OD1       187.6300  283.5300 -122.2400 O.co2     3 ASP3        0.0000 
     46 OD1       188.1600  280.6200 -121.7700 O.co2     3 ASP3        0.0000 
     47 OD1       186.4100  279.7300 -115.7200 O.co2     3 ASP3        0.0000 
     48 OD1       186.9600  281.1300 -117.2200 O.co2     3 ASP3        0.0000 
     49 OD1       187.2200  279.6800 -116.9800 O.co2     3 ASP3        0.0000 
     50 OD1       187.4900  278.2200 -116.7500 O.co2     3 ASP3        0.0000 
     51 OD1       187.7700  281.0800 -118.4800 O.co2     3 ASP3        0.0000 
     52 OD1       188.5800  281.0300 -119.7300 O.co2     3 ASP3        0.0000 
     53 OD1       186.5600  281.5900 -113.9200 O.co2     3 ASP3        0.0000 
     54 OD1       187.1100  283.0000 -115.4100 O.co2     3 ASP3        0.0000 
     55 OD1       187.3700  281.5400 -115.1800 O.co2     3 ASP3        0.0000 
     56 OD1       187.9200  282.9400 -116.6700 O.co2     3 ASP3        0.0000 
     57 NZ        180.3800  278.9600 -123.1600 N.4       4 LYS4        0.0000 
     58 NZ        181.1900  278.9100 -124.4200 N.4       4 LYS4        0.0000 
     59 NZ        181.6100  279.3200 -122.3800 N.4       4 LYS4        0.0000 
     60 NZ        182.4300  279.2600 -123.6400 N.4       4 LYS4        0.0000 
     61 NZ        183.3900  281.0700 -123.0900 N.4       4 LYS4        0.0000 
     62 NZ        183.6600  279.6200 -122.8600 N.4       4 LYS4        0.0000 
     63 NZ        187.9000  282.0800 -122.0100 N.4       4 LYS4        0.0000 
     64 NZ        188.7100  282.0200 -123.2700 N.4       4 LYS4        0.0000 
     65 NZ        188.9800  280.5700 -123.0300 N.4       4 LYS4        0.0000 
     66 NZ        188.3100  282.4800 -119.9700 N.4       4 LYS4        0.0000 
     67 NZ        188.8600  283.8900 -121.4600 N.4       4 LYS4        0.0000 
     68 NZ        189.8100  281.3800 -118.9500 N.4       4 LYS4        0.0000 
     69 CZ        179.4200  277.1500 -123.7100 C.ar      5 PHE5        0.0000 
     70 CZ        180.5000  275.6400 -124.7300 C.ar      5 PHE5        0.0000 
     71 CZ        180.7700  274.1900 -124.4900 C.ar      5 PHE5        0.0000 
     72 CZ        179.5700  279.0200 -121.9000 C.ar      5 PHE5        0.0000 
     73 CZ        179.8400  277.5600 -121.6700 C.ar      5 PHE5        0.0000 
     74 CZ        180.6500  277.5100 -122.9200 C.ar      5 PHE5        0.0000 
     75 CZ        180.9200  276.0500 -122.6900 C.ar      5 PHE5        0.0000 
     76 CA        179.1500  278.6100 -123.9400 C.3       6 GLY6        0.0000 
     77 CA        182.0000  274.5400 -123.7100 C.3       6 GLY6        0.0000 
     78 CA        181.0700  277.9100 -120.8800 C.3       6 GLY6        0.0000 
     79 CA        181.8800  277.8600 -122.1400 C.3       6 GLY6        0.0000 
     80 CA        183.2400  279.2100 -124.9000 C.3       6 GLY6        0.0000 
     81 CA        182.3000  278.2700 -120.1000 C.3       6 GLY6        0.0000 
     82 CA        183.5300  278.6200 -119.3200 C.3       6 GLY6        0.0000 
     83 CA        184.6100  277.1100 -120.3500 C.3       6 GLY6        0.0000 
     84 CA        184.2200  277.5700 -117.0500 C.3       6 GLY6        0.0000 
     85 CA        185.3000  276.0600 -118.0700 C.3       6 GLY6        0.0000 
     86 CA        185.1800  279.3800 -116.5000 C.3       6 GLY6        0.0000 
     87 CA        185.4500  277.9200 -116.2700 C.3       6 GLY6        0.0000 
     88 CA        185.4600  282.2400 -118.2300 C.3       6 GLY6        0.0000 
     89 CA        185.3300  281.2400 -114.7000 C.3       6 GLY6        0.0000 
     90 CA        185.6000  279.7800 -114.4600 C.3       6 GLY6        0.0000 
     91 CA        185.8700  282.6400 -116.1900 C.3       6 GLY6        0.0000 
     92 CA        186.4200  284.0500 -117.6900 C.3       6 GLY6        0.0000 
     93 CA        186.6900  282.5900 -117.4500 C.3       6 GLY6        0.0000 
     94 CA        187.5000  282.5400 -118.7100 C.3       6 GLY6        0.0000 
     95 CA        186.8400  284.4500 -115.6500 C.3       6 GLY6        0.0000 
     96 CA        187.6500  284.4000 -116.9100 C.3       6 GLY6        0.0000 
     97 CA        188.1900  281.4900 -116.4400 C.3       6 GLY6        0.0000 
     98 CA        188.4600  284.3500 -118.1700 C.3       6 GLY6        0.0000 
     99 CA        188.7300  282.8900 -117.9300 C.3       6 GLY6        0.0000 
    100 CA        189.0000  281.4300 -117.7000 C.3       6 GLY6        0.0000 
    101 CA        189.2800  284.2900 -119.4200 C.3       6 GLY6        0.0000 
    102 DU        185.4300  281.3700 -123.5700 H         7 CUB7        0.0000 
    103 DU        187.4800  281.6700 -124.0500 H         7 CUB7        0.0000 
    104 DU        186.1400  281.1900 -115.9600 H         7 CUB7        0.0000 
@<TRIPOS>BOND
@<TRIPOS>SUBSTRUCTURE
     1 SER1        1 GROUP   
     2 ALA2        2 GROUP   
     3 ASP3       10 GROUP   
     4 LYS4       57 GROUP   
     5 PHE5       69 GROUP   
     6 GLY6       76 GROUP   
     7 CUB7      102 GROUP   
@<TRIPOS>SET

