#    Name: 6c7n_3_NAP
#    Modification time : Fri May 22 19:42:34 2020

@<TRIPOS>MOLECULE
6c7n_3_NAP
   48    52     1     0     1
SMALL
NO_CHARGES


@<TRIPOS>ATOM
      1 PA        -37.6040  -24.0470   92.9300 P.3       1 NAP1001     0.0000 
      2 O1A       -36.4640  -23.9640   91.9950 O.co2     1 NAP1001     0.0000 
      3 O2A       -38.6730  -25.1130   92.7140 O.co2     1 NAP1001     0.0000 
      4 O5B       -37.0220  -24.2240   94.4750 O.3       1 NAP1001     0.0000 
      5 C5B       -37.8840  -24.2490   95.6380 C.3       1 NAP1001     0.0000 
      6 C4B       -37.0390  -24.6400   96.8260 C.3       1 NAP1001     0.0000 
      7 O4B       -37.8410  -24.6700   98.0290 O.3       1 NAP1001     0.0000 
      8 C3B       -36.3680  -26.0140   96.7310 C.3       1 NAP1001     0.0000 
      9 O3B       -34.9640  -25.8930   96.9310 O.3       1 NAP1001     0.0000 
     10 C2B       -37.0420  -26.8500   97.8180 C.3       1 NAP1001     0.0000 
     11 O2B       -36.2070  -27.8770   98.3960 O.3       1 NAP1001     0.0000 
     12 C1B       -37.4030  -25.7610   98.8170 C.3       1 NAP1001     0.0000 
     13 N9A       -38.4610  -26.1280   99.7530 N.pl3     1 NAP1001     0.0000 
     14 C8A       -39.6750  -26.6970   99.4670 C.2       1 NAP1001     0.0000 
     15 N7A       -40.4520  -26.8500  100.5120 N.2       1 NAP1001     0.0000 
     16 C5A       -39.6970  -26.3490  101.5610 C.ar      1 NAP1001     0.0000 
     17 C6A       -39.9560  -26.2080  102.9400 C.ar      1 NAP1001     0.0000 
     18 N6A       -41.1190  -26.5320  103.5150 N.pl3     1 NAP1001     0.0000 
     19 N1A       -38.9820  -25.6770  103.7130 N.ar      1 NAP1001     0.0000 
     20 C2A       -37.8350  -25.2970  103.1360 C.ar      1 NAP1001     0.0000 
     21 N3A       -37.4840  -25.3640  101.8490 N.ar      1 NAP1001     0.0000 
     22 C4A       -38.4630  -25.9060  101.1080 C.ar      1 NAP1001     0.0000 
     23 O3        -38.3580  -22.6550   93.0250 O.3       1 NAP1001     0.0000 
     24 PN        -37.8520  -21.1670   92.7490 P.3       1 NAP1001     0.0000 
     25 O1N       -37.6770  -21.0130   91.2870 O.co2     1 NAP1001     0.0000 
     26 O2N       -36.6990  -20.8700   93.6300 O.co2     1 NAP1001     0.0000 
     27 O5D       -39.1300  -20.3320   93.2140 O.3       1 NAP1001     0.0000 
     28 C5D       -39.6790  -20.5440   94.5290 C.3       1 NAP1001     0.0000 
     29 C4D       -40.6690  -19.4550   94.8580 C.3       1 NAP1001     0.0000 
     30 O4D       -40.0540  -18.1550   94.7100 O.3       1 NAP1001     0.0000 
     31 C3D       -41.9620  -19.4340   94.0340 C.3       1 NAP1001     0.0000 
     32 O3D       -43.0720  -19.2310   94.9000 O.3       1 NAP1001     0.0000 
     33 C2D       -41.7490  -18.2440   93.0920 C.3       1 NAP1001     0.0000 
     34 O2D       -42.9570  -17.6110   92.6900 O.3       1 NAP1001     0.0000 
     35 C1D       -40.9150  -17.3210   93.9790 C.3       1 NAP1001     0.0000 
     36 N1N       -40.0530  -16.3220   93.1600 N.pl3     1 NAP1001     0.0000 
     37 C2N       -40.3810  -15.0300   93.3350 C.ar      1 NAP1001     0.0000 
     38 C3N       -39.6920  -14.0390   92.6570 C.ar      1 NAP1001     0.0000 
     39 C7N       -40.0080  -12.5830   92.8880 C.2       1 NAP1001     0.0000 
     40 O7N       -39.3820  -11.7170   92.2640 O.2       1 NAP1001     0.0000 
     41 N7N       -40.9560  -12.2800   93.7690 N.am      1 NAP1001     0.0000 
     42 C4N       -38.6700  -14.4160   91.7870 C.ar      1 NAP1001     0.0000 
     43 C5N       -38.3510  -15.7550   91.6270 C.ar      1 NAP1001     0.0000 
     44 C6N       -39.0580  -16.7070   92.3350 C.ar      1 NAP1001     0.0000 
     45 P2B       -35.5630  -29.1170   97.5760 P.3       1 NAP1001     0.0000 
     46 O1X       -35.1210  -30.1840   98.5320 O.co2     1 NAP1001     0.0000 
     47 O2X       -36.6280  -29.6230   96.5970 O.co2     1 NAP1001     0.0000 
     48 O3X       -34.3910  -28.5350   96.7930 O.co2     1 NAP1001     0.0000 
@<TRIPOS>BOND
     1    1    2 ar   
     2    1    3 ar   
     3    1    4 1    
     4    1   23 1    
     5    4    5 1    
     6    5    6 1    
     7    6    7 1    
     8    6    8 1    
     9    7   12 1    
    10    8    9 1    
    11    8   10 1    
    12   10   11 1    
    13   10   12 1    
    14   11   45 1    
    15   12   13 1    
    16   13   14 1    
    17   13   22 1    
    18   14   15 2    
    19   15   16 1    
    20   16   17 ar   
    21   16   22 ar   
    22   17   18 1    
    23   17   19 ar   
    24   19   20 ar   
    25   20   21 ar   
    26   21   22 ar   
    27   23   24 1    
    28   24   25 ar   
    29   24   26 ar   
    30   24   27 1    
    31   27   28 1    
    32   28   29 1    
    33   29   30 1    
    34   29   31 1    
    35   30   35 1    
    36   31   32 1    
    37   31   33 1    
    38   33   34 1    
    39   33   35 1    
    40   35   36 1    
    41   36   37 ar   
    42   36   44 ar   
    43   37   38 ar   
    44   38   39 1    
    45   38   42 ar   
    46   39   40 2    
    47   39   41 am   
    48   42   43 ar   
    49   43   44 ar   
    50   45   46 ar   
    51   45   47 ar   
    52   45   48 ar   
@<TRIPOS>SUBSTRUCTURE
     1 NAP1001     1 GROUP   
@<TRIPOS>SET
ATOM$ORANGE STATIC     ATOMS   COLORGROUP SYSTEM 
42 5 5 6 6 8 8 10 10 12 12 14 14 16 16 17 17 20 \
20 22 22 28 28 29 29 31 31 33 33 35 35 37 37 38 38 39 \
39 42 42 43 43 44 44 

