#    Name: 6c7n_2_NAP
#    Modification time : Fri May 22 19:42:29 2020

@<TRIPOS>MOLECULE
6c7n_2_NAP
   48    52     1     0     1
SMALL
NO_CHARGES


@<TRIPOS>ATOM
      1 PA        -65.2560  -35.5560   13.1070 P.3       1 NAP1001     0.0000 
      2 O1A       -66.4280  -35.7930   13.9800 O.co2     1 NAP1001     0.0000 
      3 O2A       -63.9510  -36.1150   13.5320 O.co2     1 NAP1001     0.0000 
      4 O5B       -65.6270  -36.0820   11.6350 O.3       1 NAP1001     0.0000 
      5 C5B       -64.7590  -35.9560   10.4930 C.3       1 NAP1001     0.0000 
      6 C4B       -65.4770  -36.6800    9.3780 C.3       1 NAP1001     0.0000 
      7 O4B       -64.7500  -36.4880    8.1430 O.3       1 NAP1001     0.0000 
      8 C3B       -65.5960  -38.2050    9.5710 C.3       1 NAP1001     0.0000 
      9 O3B       -66.8890  -38.6860    9.1940 O.3       1 NAP1001     0.0000 
     10 C2B       -64.4870  -38.7400    8.6590 C.3       1 NAP1001     0.0000 
     11 O2B       -64.6820  -40.0660    8.1210 O.3       1 NAP1001     0.0000 
     12 C1B       -64.6030  -37.7460    7.5180 C.3       1 NAP1001     0.0000 
     13 N9A       -63.4560  -37.7160    6.6170 N.pl3     1 NAP1001     0.0000 
     14 C8A       -62.1190  -37.6840    6.9220 C.2       1 NAP1001     0.0000 
     15 N7A       -61.3320  -37.7190    5.8740 N.2       1 NAP1001     0.0000 
     16 C5A       -62.2130  -37.7770    4.8030 C.ar      1 NAP1001     0.0000 
     17 C6A       -62.0150  -37.8450    3.4060 C.ar      1 NAP1001     0.0000 
     18 N6A       -60.8120  -37.8220    2.8210 N.pl3     1 NAP1001     0.0000 
     19 N1A       -63.1130  -37.9130    2.6190 N.ar      1 NAP1001     0.0000 
     20 C2A       -64.3220  -37.9090    3.1900 C.ar      1 NAP1001     0.0000 
     21 N3A       -64.6310  -37.8310    4.4900 N.ar      1 NAP1001     0.0000 
     22 C4A       -63.5250  -37.7720    5.2470 C.ar      1 NAP1001     0.0000 
     23 O3        -65.0030  -33.9910   12.9230 O.3       1 NAP1001     0.0000 
     24 PN        -66.0380  -32.7710   12.9390 P.3       1 NAP1001     0.0000 
     25 O1N       -66.2520  -32.3540   14.3450 O.co2     1 NAP1001     0.0000 
     26 O2N       -67.2210  -33.1030   12.1100 O.co2     1 NAP1001     0.0000 
     27 O5D       -65.2080  -31.6380   12.1760 O.3       1 NAP1001     0.0000 
     28 C5D       -64.8600  -31.7680   10.7700 C.3       1 NAP1001     0.0000 
     29 C4D       -64.3270  -30.4470   10.2600 C.3       1 NAP1001     0.0000 
     30 O4D       -65.3790  -29.4580   10.2950 O.3       1 NAP1001     0.0000 
     31 C3D       -63.1480  -29.8620   11.0630 C.3       1 NAP1001     0.0000 
     32 O3D       -62.1010  -29.3560   10.2430 O.3       1 NAP1001     0.0000 
     33 C2D       -63.7930  -28.7260   11.8580 C.3       1 NAP1001     0.0000 
     34 O2D       -62.8790  -27.6850   12.1940 O.3       1 NAP1001     0.0000 
     35 C1D       -64.8820  -28.2850   10.8890 C.3       1 NAP1001     0.0000 
     36 N1N       -66.0180  -27.6160   11.6610 N.pl3     1 NAP1001     0.0000 
     37 C2N       -66.2880  -26.3530   11.2820 C.ar      1 NAP1001     0.0000 
     38 C3N       -67.2240  -25.6020   11.9710 C.ar      1 NAP1001     0.0000 
     39 C7N       -67.5220  -24.1880   11.5280 C.2       1 NAP1001     0.0000 
     40 O7N       -68.5390  -23.5990   11.9620 O.2       1 NAP1001     0.0000 
     41 N7N       -66.7670  -23.6760   10.5810 N.am      1 NAP1001     0.0000 
     42 C4N       -67.8530  -26.1760   13.0690 C.ar      1 NAP1001     0.0000 
     43 C5N       -67.5640  -27.4830   13.4330 C.ar      1 NAP1001     0.0000 
     44 C6N       -66.6480  -28.2020   12.7000 C.ar      1 NAP1001     0.0000 
     45 P2B       -64.8100  -41.4060    9.0030 P.3       1 NAP1001     0.0000 
     46 O1X       -64.8800  -42.5020    8.0080 O.co2     1 NAP1001     0.0000 
     47 O2X       -63.5980  -41.4660    9.9100 O.co2     1 NAP1001     0.0000 
     48 O3X       -66.0880  -41.2680    9.7920 O.co2     1 NAP1001     0.0000 
@<TRIPOS>BOND
     1    1    2 ar   
     2    1    3 ar   
     3    1    4 1    
     4    1   23 1    
     5    4    5 1    
     6    5    6 1    
     7    6    7 1    
     8    6    8 1    
     9    7   12 1    
    10    8    9 1    
    11    8   10 1    
    12   10   11 1    
    13   10   12 1    
    14   11   45 1    
    15   12   13 1    
    16   13   14 1    
    17   13   22 1    
    18   14   15 2    
    19   15   16 1    
    20   16   17 ar   
    21   16   22 ar   
    22   17   18 1    
    23   17   19 ar   
    24   19   20 ar   
    25   20   21 ar   
    26   21   22 ar   
    27   23   24 1    
    28   24   25 ar   
    29   24   26 ar   
    30   24   27 1    
    31   27   28 1    
    32   28   29 1    
    33   29   30 1    
    34   29   31 1    
    35   30   35 1    
    36   31   32 1    
    37   31   33 1    
    38   33   34 1    
    39   33   35 1    
    40   35   36 1    
    41   36   37 ar   
    42   36   44 ar   
    43   37   38 ar   
    44   38   39 1    
    45   38   42 ar   
    46   39   40 2    
    47   39   41 am   
    48   42   43 ar   
    49   43   44 ar   
    50   45   46 ar   
    51   45   47 ar   
    52   45   48 ar   
@<TRIPOS>SUBSTRUCTURE
     1 NAP1001     1 GROUP   
@<TRIPOS>SET
ATOM$ORANGE STATIC     ATOMS   COLORGROUP SYSTEM 
42 5 5 6 6 8 8 10 10 12 12 14 14 16 16 17 17 20 \
20 22 22 28 28 29 29 31 31 33 33 35 35 37 37 38 38 39 \
39 42 42 43 43 44 44 

