#    Name: 6c7n_4_NAP_CAVITY_N1_8
#    Modification time : Fri May 22 19:42:38 2020

@<TRIPOS>MOLECULE
6c7n_4_NAP_CAVITY_N1_8
   85     0     6     0     0
SMALL
NO_CHARGES


@<TRIPOS>ATOM
      1 OG        -94.5200   -3.2800   72.6300 O.3       1 SER1        0.0000 
      2 OG        -93.7000   -4.5100   72.3800 O.3       1 SER1        0.0000 
      3 OG        -89.3800   -5.0600   71.2500 O.3       1 SER1        0.0000 
      4 OG        -90.2800   -5.8500   72.1500 O.3       1 SER1        0.0000 
      5 OG        -88.5100   -4.7200   72.4200 O.3       1 SER1        0.0000 
      6 OG        -90.3100   -6.2900   74.2300 O.3       1 SER1        0.0000 
      7 OG        -89.4900   -7.5200   73.9800 O.3       1 SER1        0.0000 
      8 OG        -90.4000   -8.3000   74.8900 O.3       1 SER1        0.0000 
      9 O         -97.7600    2.0900   71.5500 O.2       2 ALA2        0.0000 
     10 O         -98.6700    1.3000   72.4500 O.2       2 ALA2        0.0000 
     11 N         -95.3000   -1.6100   70.8000 N.am      2 ALA2        0.0000 
     12 O         -97.6200    5.6800   72.3100 O.2       2 ALA2        0.0000 
     13 O         -95.9000    5.2300   71.1500 O.2       2 ALA2        0.0000 
     14 O         -96.8000    4.4500   72.0600 O.2       2 ALA2        0.0000 
     15 O         -96.8900    2.4300   72.7200 O.2       2 ALA2        0.0000 
     16 N         -94.6000   -5.2900   73.2900 N.am      2 ALA2        0.0000 
     17 O         -91.9700   -4.9600   71.2300 O.2       2 ALA2        0.0000 
     18 N         -92.8800   -5.7400   72.1400 N.am      2 ALA2        0.0000 
     19 N         -93.7800   -6.5300   73.0400 N.am      2 ALA2        0.0000 
     20 N         -94.6900   -7.3100   73.9500 N.am      2 ALA2        0.0000 
     21 N         -92.0600   -6.9800   71.8900 N.am      2 ALA2        0.0000 
     22 N         -92.9600   -7.7600   72.8000 N.am      2 ALA2        0.0000 
     23 N         -92.9900   -8.2000   74.8700 N.am      2 ALA2        0.0000 
     24 N         -90.3700   -7.8600   72.8100 N.am      2 ALA2        0.0000 
     25 N         -91.2700   -8.6500   73.7200 N.am      2 ALA2        0.0000 
     26 OD1       -95.1700    1.9800   71.5600 O.co2     3 ASP3        0.0000 
     27 OD1       -95.2500   -0.0300   72.2200 O.co2     3 ASP3        0.0000 
     28 OD1       -94.4300   -1.2600   71.9700 O.co2     3 ASP3        0.0000 
     29 OD1       -90.2500   -5.4100   70.0800 O.co2     3 ASP3        0.0000 
     30 OD1       -95.0300    5.5700   72.3200 O.co2     3 ASP3        0.0000 
     31 OD1       -95.1100    3.5600   72.9800 O.co2     3 ASP3        0.0000 
     32 OD1       -94.2900    2.3300   72.7300 O.co2     3 ASP3        0.0000 
     33 OD1       -94.3800    0.3100   73.3900 O.co2     3 ASP3        0.0000 
     34 OD1       -92.6500   -0.1400   72.2400 O.co2     3 ASP3        0.0000 
     35 OD1       -93.5600   -0.9200   73.1400 O.co2     3 ASP3        0.0000 
     36 OD1       -91.8400   -1.3700   71.9900 O.co2     3 ASP3        0.0000 
     37 OD1       -88.4700   -4.2800   70.3400 O.co2     3 ASP3        0.0000 
     38 OD1       -92.6000    1.4400   73.6600 O.co2     3 ASP3        0.0000 
     39 OD1       -91.7800    0.2100   73.4100 O.co2     3 ASP3        0.0000 
     40 OD1       -90.9600   -1.0200   73.1600 O.co2     3 ASP3        0.0000 
     41 NZ        -95.0800    4.0000   70.9100 N.4       4 LYS4        0.0000 
     42 NZ        -93.6100   -2.5000   71.7300 N.4       4 LYS4        0.0000 
     43 NZ        -92.7900   -3.7300   71.4800 N.4       4 LYS4        0.0000 
     44 NZ        -91.0700   -4.1800   70.3300 N.4       4 LYS4        0.0000 
     45 NZ        -91.0200   -2.6000   71.7400 N.4       4 LYS4        0.0000 
     46 NZ        -89.2900   -3.0500   70.5900 N.4       4 LYS4        0.0000 
     47 NZ        -90.2000   -3.8300   71.5000 N.4       4 LYS4        0.0000 
     48 CA        -96.1200   -0.3800   71.0500 C.3       5 GLY6        0.0000 
     49 CA        -96.2100   -2.3900   71.7100 C.3       5 GLY6        0.0000 
     50 CA        -97.7100    3.6600   72.9600 C.3       5 GLY6        0.0000 
     51 CA        -95.9800    3.2100   71.8100 C.3       5 GLY6        0.0000 
     52 CA        -97.7900    1.6500   73.6200 C.3       5 GLY6        0.0000 
     53 CA        -96.0700    1.2000   72.4700 C.3       5 GLY6        0.0000 
     54 CA        -96.9700    0.4200   73.3700 C.3       5 GLY6        0.0000 
     55 CA        -96.1500   -0.8200   73.1300 C.3       5 GLY6        0.0000 
     56 CA        -95.3400   -2.0500   72.8800 C.3       5 GLY6        0.0000 
     57 CA        -91.1600   -6.1900   70.9800 C.3       5 GLY6        0.0000 
     58 CA        -90.1400   -2.2600   72.9100 C.3       5 GLY6        0.0000 
     59 CA        -91.0500   -3.0400   73.8200 C.3       5 GLY6        0.0000 
     60 CA        -88.4200   -2.7000   71.7600 C.3       5 GLY6        0.0000 
     61 CA        -89.3200   -3.4900   72.6700 C.3       5 GLY6        0.0000 
     62 CA        -90.2300   -4.2700   73.5700 C.3       5 GLY6        0.0000 
     63 CA        -89.4100   -5.5000   73.3200 C.3       5 GLY6        0.0000 
     64 CA        -90.1700   -2.6900   74.9900 C.3       5 GLY6        0.0000 
     65 CA        -89.3600   -3.9200   74.7400 C.3       5 GLY6        0.0000 
     66 CA        -90.2600   -4.7100   75.6500 C.3       5 GLY6        0.0000 
     67 CA        -89.4400   -5.9400   75.4000 C.3       5 GLY6        0.0000 
     68 DU        -95.9300    4.7900   73.2300 H         6 CUB7        0.0000 
     69 DU        -96.0200    2.7800   73.8900 H         6 CUB7        0.0000 
     70 DU        -95.2000    1.5400   73.6400 H         6 CUB7        0.0000 
     71 DU        -92.7400   -2.1500   72.9000 H         6 CUB7        0.0000 
     72 DU        -91.9200   -3.3800   72.6500 H         6 CUB7        0.0000 
     73 DU        -92.8200   -4.1700   73.5500 H         6 CUB7        0.0000 
     74 DU        -93.7300   -4.9500   74.4600 H         6 CUB7        0.0000 
     75 DU        -91.1000   -4.6200   72.4000 H         6 CUB7        0.0000 
     76 DU        -92.0100   -5.4000   73.3100 H         6 CUB7        0.0000 
     77 DU        -92.9100   -6.1800   74.2100 H         6 CUB7        0.0000 
     78 DU        -91.1900   -6.6300   73.0600 H         6 CUB7        0.0000 
     79 DU        -92.0900   -7.4100   73.9700 H         6 CUB7        0.0000 
     80 DU        -93.5000    0.6600   74.5600 H         6 CUB7        0.0000 
     81 DU        -92.6900   -0.5700   74.3100 H         6 CUB7        0.0000 
     82 DU        -91.8700   -1.8100   74.0700 H         6 CUB7        0.0000 
     83 DU        -91.1300   -5.0500   74.4800 H         6 CUB7        0.0000 
     84 DU        -91.2200   -7.0700   75.1400 H         6 CUB7        0.0000 
     85 DU        -91.0800   -3.4800   75.8900 H         6 CUB7        0.0000 
@<TRIPOS>BOND
@<TRIPOS>SUBSTRUCTURE
     1 SER1        1 GROUP   
     2 ALA2        9 GROUP   
     3 ASP3       26 GROUP   
     4 LYS4       41 GROUP   
     5 GLY6       48 GROUP   
     6 CUB7       68 GROUP   
@<TRIPOS>SET

