#    Name: 6c7n_4_NAP
#    Modification time : Fri May 22 19:42:37 2020

@<TRIPOS>MOLECULE
6c7n_4_NAP
   26    27     1     0     1
SMALL
NO_CHARGES


@<TRIPOS>ATOM
      1 PA        -96.4540    5.0990   72.7890 P.3       1 NAP1001     0.0000 
      2 O1A       -96.5270    5.0860   71.3040 O.3       1 NAP1001     0.0000 
      3 O2A       -95.3440    5.9760   73.4010 O.co2     1 NAP1001     0.0000 
      4 O5B       -97.8940    5.6040   73.4540 O.co2     1 NAP1001     0.0000 
      5 O3        -96.2630    3.6360   73.3900 O.3       1 NAP1001     0.0000 
      6 PN        -96.6870    2.1790   72.8840 P.3       1 NAP1001     0.0000 
      7 O1N       -95.7200    1.7580   71.8470 O.co2     1 NAP1001     0.0000 
      8 O2N       -98.1320    2.2190   72.5530 O.co2     1 NAP1001     0.0000 
      9 O5D       -96.4550    1.2750   74.1880 O.3       1 NAP1001     0.0000 
     10 C5D       -97.3170    1.4050   75.3450 C.3       1 NAP1001     0.0000 
     11 C4D       -97.1830    0.2280   76.2850 C.3       1 NAP1001     0.0000 
     12 O4D       -97.4690   -1.0120   75.5970 O.3       1 NAP1001     0.0000 
     13 C3D       -95.8280    0.0470   76.9780 C.3       1 NAP1001     0.0000 
     14 O3D       -95.9910   -0.2160   78.3680 O.3       1 NAP1001     0.0000 
     15 C2D       -95.2150   -1.1410   76.2300 C.3       1 NAP1001     0.0000 
     16 O2D       -94.2940   -1.8900   77.0120 O.3       1 NAP1001     0.0000 
     17 C1D       -96.4660   -1.9480   75.8850 C.3       1 NAP1001     0.0000 
     18 N1N       -96.2380   -2.8310   74.6200 N.pl3     1 NAP1001     0.0000 
     19 C2N       -96.3650   -4.1580   74.8090 C.ar      1 NAP1001     0.0000 
     20 C3N       -96.0530   -5.0390   73.7890 C.ar      1 NAP1001     0.0000 
     21 C7N       -96.1400   -6.5320   73.9700 C.2       1 NAP1001     0.0000 
     22 O7N       -95.9520   -7.2770   72.9960 O.2       1 NAP1001     0.0000 
     23 N7N       -96.4620   -6.9990   75.1720 N.am      1 NAP1001     0.0000 
     24 C4N       -95.6070   -4.5190   72.5760 C.ar      1 NAP1001     0.0000 
     25 C5N       -95.5110   -3.1500   72.3990 C.ar      1 NAP1001     0.0000 
     26 C6N       -95.8420   -2.3100   73.4400 C.ar      1 NAP1001     0.0000 
@<TRIPOS>BOND
     1    1    2 1    
     2    1    3 ar   
     3    1    4 ar   
     4    1    5 1    
     5    5    6 1    
     6    6    7 ar   
     7    6    8 ar   
     8    6    9 1    
     9    9   10 1    
    10   10   11 1    
    11   11   12 1    
    12   11   13 1    
    13   12   17 1    
    14   13   14 1    
    15   13   15 1    
    16   15   16 1    
    17   15   17 1    
    18   17   18 1    
    19   18   19 ar   
    20   18   26 ar   
    21   19   20 ar   
    22   20   21 1    
    23   20   24 ar   
    24   21   22 2    
    25   21   23 am   
    26   24   25 ar   
    27   25   26 ar   
@<TRIPOS>SUBSTRUCTURE
     1 NAP1001     1 GROUP   
@<TRIPOS>SET
ATOM$ORANGE STATIC     ATOMS   COLORGROUP SYSTEM 
22 10 10 11 11 13 13 15 15 17 17 19 19 20 20 21 21 24 \
24 25 25 26 26 

