#    Name: 6c7n_3_NAP_CAVITY_N1_8
#    Modification time : Fri May 22 19:42:35 2020

@<TRIPOS>MOLECULE
6c7n_3_NAP_CAVITY_N1_8
   89     0     6     0     0
SMALL
NO_CHARGES


@<TRIPOS>ATOM
      1 OG        -38.7300  -13.8800   91.8300 O.3       1 SER1        0.0000 
      2 OG        -40.7100  -19.4700   94.9600 O.3       1 SER1        0.0000 
      3 N         -44.4000  -25.3200   93.6700 N.am      2 ALA2        0.0000 
      4 N         -42.5400  -22.1800   93.2800 N.am      2 ALA2        0.0000 
      5 N         -41.7200  -23.4100   93.0300 N.am      2 ALA2        0.0000 
      6 N         -43.5300  -24.9800   94.8400 N.am      2 ALA2        0.0000 
      7 O         -38.3600  -26.3200   91.3800 O.2       2 ALA2        0.0000 
      8 O         -40.5100  -15.0100   91.5700 O.2       2 ALA2        0.0000 
      9 O         -41.4100  -15.7900   92.4700 O.2       2 ALA2        0.0000 
     10 O         -42.4000  -18.5900   94.0400 O.2       2 ALA2        0.0000 
     11 N         -41.5800  -19.8200   93.7900 N.am      2 ALA2        0.0000 
     12 N         -40.7600  -21.0500   93.5400 N.am      2 ALA2        0.0000 
     13 N         -41.7500  -23.8500   95.1100 N.am      2 ALA2        0.0000 
     14 N         -40.9300  -25.0800   94.8600 N.am      2 ALA2        0.0000 
     15 O         -38.3000  -24.7500   92.8000 O.2       2 ALA2        0.0000 
     16 N         -39.5500  -12.6500   92.0800 N.am      2 ALA2        0.0000 
     17 O         -40.4500  -13.4300   92.9800 O.2       2 ALA2        0.0000 
     18 O         -39.6300  -14.6600   92.7400 O.2       2 ALA2        0.0000 
     19 N         -40.5400  -15.4400   93.6400 N.am      2 ALA2        0.0000 
     20 N         -40.6200  -17.4600   94.3000 N.am      2 ALA2        0.0000 
     21 N         -38.9800  -19.9200   93.8100 N.am      2 ALA2        0.0000 
     22 N         -39.8900  -20.7100   94.7100 N.am      2 ALA2        0.0000 
     23 O         -40.7900  -21.4900   95.6200 O.2       2 ALA2        0.0000 
     24 O         -37.2600  -20.3700   92.6500 O.2       2 ALA2        0.0000 
     25 N         -38.1600  -21.1600   93.5600 N.am      2 ALA2        0.0000 
     26 N         -39.0700  -21.9400   94.4600 N.am      2 ALA2        0.0000 
     27 N         -39.9700  -22.7200   95.3700 N.am      2 ALA2        0.0000 
     28 O         -36.4400  -21.6000   92.4100 O.2       2 ALA2        0.0000 
     29 O         -37.3500  -22.3900   93.3100 O.2       2 ALA2        0.0000 
     30 N         -38.2500  -23.1700   94.2200 N.am      2 ALA2        0.0000 
     31 N         -39.1500  -23.9500   95.1200 N.am      2 ALA2        0.0000 
     32 N         -40.0600  -24.7400   96.0300 N.am      2 ALA2        0.0000 
     33 O         -37.4300  -24.4000   93.9700 O.2       2 ALA2        0.0000 
     34 O         -37.5200  -26.4200   94.6300 O.2       2 ALA2        0.0000 
     35 N         -38.6700  -12.3000   93.2500 N.am      2 ALA2        0.0000 
     36 N         -39.6600  -15.1000   94.8100 N.am      2 ALA2        0.0000 
     37 N         -38.1100  -19.5800   94.9800 N.am      2 ALA2        0.0000 
     38 N         -37.2900  -20.8100   94.7300 N.am      2 ALA2        0.0000 
     39 N         -37.3800  -22.8200   95.3900 N.am      2 ALA2        0.0000 
     40 N         -38.2800  -23.6100   96.2900 N.am      2 ALA2        0.0000 
     41 N         -38.3700  -25.6200   96.9500 N.am      2 ALA2        0.0000 
     42 O         -36.5900  -24.4900   97.2100 O.2       2 ALA2        0.0000 
     43 OD1       -39.6900  -16.2400   91.3200 O.co2     3 ASP3        0.0000 
     44 OD1       -40.5900  -17.0200   92.2300 O.co2     3 ASP3        0.0000 
     45 OD1       -41.4900  -17.8000   93.1300 O.co2     3 ASP3        0.0000 
     46 OD1       -40.6800  -19.0400   92.8800 O.co2     3 ASP3        0.0000 
     47 OD1       -39.8600  -20.2700   92.6400 O.co2     3 ASP3        0.0000 
     48 OD1       -38.1300  -20.7200   91.4800 O.co2     3 ASP3        0.0000 
     49 OD1       -39.0400  -21.5000   92.3900 O.co2     3 ASP3        0.0000 
     50 OD1       -38.2200  -22.7300   92.1400 O.co2     3 ASP3        0.0000 
     51 OD1       -39.7200  -16.6800   93.4000 O.co2     3 ASP3        0.0000 
     52 OD1       -39.8000  -18.6900   94.0500 O.co2     3 ASP3        0.0000 
     53 NZ        -37.3100  -21.9500   91.2400 N.4       4 LYS4        0.0000 
     54 NZ        -37.4000  -23.9600   91.8900 N.4       4 LYS4        0.0000 
     55 CA        -41.7700  -24.9900   91.6100 C.3       5 GLY6        0.0000 
     56 CA        -40.0500  -25.4400   90.4600 C.3       5 GLY6        0.0000 
     57 CA        -40.9500  -26.2200   91.3700 C.3       5 GLY6        0.0000 
     58 CA        -39.2300  -26.6700   90.2100 C.3       5 GLY6        0.0000 
     59 CA        -40.8100  -22.6300   92.1200 C.3       5 GLY6        0.0000 
     60 CA        -42.6200  -24.1900   93.9400 C.3       5 GLY6        0.0000 
     61 CA        -40.0000  -23.8600   91.8800 C.3       5 GLY6        0.0000 
     62 CA        -40.9000  -24.6400   92.7800 C.3       5 GLY6        0.0000 
     63 CA        -39.1800  -25.0900   91.6300 C.3       5 GLY6        0.0000 
     64 CA        -42.4800  -20.6000   94.6900 C.3       5 GLY6        0.0000 
     65 CA        -41.6600  -21.8300   94.4500 C.3       5 GLY6        0.0000 
     66 CA        -38.8100  -15.8900   92.4900 C.3       5 GLY6        0.0000 
     67 CA        -41.5300  -18.2400   95.2100 C.3       5 GLY6        0.0000 
     68 CA        -38.9000  -17.9100   93.1500 C.3       5 GLY6        0.0000 
     69 CA        -38.0800  -19.1400   92.9000 C.3       5 GLY6        0.0000 
     70 CA        -36.5300  -23.6200   93.0600 C.3       5 GLY6        0.0000 
     71 CA        -39.5800  -13.0800   94.1500 C.3       5 GLY6        0.0000 
     72 CA        -37.8600  -13.5300   93.0000 C.3       5 GLY6        0.0000 
     73 CA        -38.7600  -14.3200   93.9100 C.3       5 GLY6        0.0000 
     74 CA        -37.9400  -15.5500   93.6600 C.3       5 GLY6        0.0000 
     75 CA        -38.8400  -16.3300   94.5700 C.3       5 GLY6        0.0000 
     76 CA        -38.9300  -18.3500   95.2200 C.3       5 GLY6        0.0000 
     77 CA        -39.8300  -19.1300   96.1300 C.3       5 GLY6        0.0000 
     78 CA        -36.4700  -22.0400   94.4800 C.3       5 GLY6        0.0000 
     79 CA        -36.5600  -24.0600   95.1400 C.3       5 GLY6        0.0000 
     80 DU        -42.6800  -25.7700   92.5200 H         6 CUB7        0.0000 
     81 DU        -41.8000  -25.4300   93.6900 H         6 CUB7        0.0000 
     82 DU        -40.0800  -25.8800   92.5400 H         6 CUB7        0.0000 
     83 DU        -39.9400  -22.2800   93.2900 H         6 CUB7        0.0000 
     84 DU        -40.8500  -23.0700   94.2000 H         6 CUB7        0.0000 
     85 DU        -39.1200  -23.5200   93.0500 H         6 CUB7        0.0000 
     86 DU        -40.0300  -24.3000   93.9500 H         6 CUB7        0.0000 
     87 DU        -39.2100  -25.5300   93.7100 H         6 CUB7        0.0000 
     88 DU        -38.3300  -25.1800   94.8700 H         6 CUB7        0.0000 
     89 DU        -37.4600  -24.8400   96.0400 H         6 CUB7        0.0000 
@<TRIPOS>BOND
@<TRIPOS>SUBSTRUCTURE
     1 SER1        1 GROUP   
     2 ALA2        3 GROUP   
     3 ASP3       43 GROUP   
     4 LYS4       53 GROUP   
     5 GLY6       55 GROUP   
     6 CUB7       80 GROUP   
@<TRIPOS>SET

