#    Name: 6c7n_2_NAP_CAVITY_N1_ALL
#    Modification time : Fri May 22 19:42:30 2020

@<TRIPOS>MOLECULE
6c7n_2_NAP_CAVITY_N1_ALL
   75     0     6     0     0
SMALL
NO_CHARGES


@<TRIPOS>ATOM
      1 OG        -64.8200  -29.4200   10.1100 O.3       1 SER1        0.0000 
      2 OG        -64.0000  -30.6500    9.8600 O.3       1 SER1        0.0000 
      3 OG        -67.3100  -26.1600   12.9300 O.3       1 SER1        0.0000 
      4 OG        -64.6000  -23.1100   15.7800 O.3       1 SER1        0.0000 
      5 OG        -63.7300  -22.7600   16.9500 O.3       1 SER1        0.0000 
      6 N         -65.0400  -35.0300   10.0100 N.am      2 ALA2        0.0000 
      7 N         -64.2200  -36.2600    9.7600 N.am      2 ALA2        0.0000 
      8 N         -66.4600  -26.9600   10.6100 N.am      2 ALA2        0.0000 
      9 N         -65.6400  -28.1900   10.3600 N.am      2 ALA2        0.0000 
     10 N         -64.9000  -31.4300   10.7700 N.am      2 ALA2        0.0000 
     11 N         -65.8100  -32.2200   11.6700 N.am      2 ALA2        0.0000 
     12 O         -66.7100  -33.0000   12.5800 O.2       2 ALA2        0.0000 
     13 N         -64.0800  -32.6700   10.5200 N.am      2 ALA2        0.0000 
     14 N         -64.9900  -33.4500   11.4300 N.am      2 ALA2        0.0000 
     15 O         -65.8900  -34.2300   12.3300 O.2       2 ALA2        0.0000 
     16 N         -63.2600  -33.9000   10.2700 N.am      2 ALA2        0.0000 
     17 N         -64.1700  -34.6800   11.1800 N.am      2 ALA2        0.0000 
     18 O         -65.9800  -36.2500   12.9900 O.2       2 ALA2        0.0000 
     19 N         -63.3500  -35.9100   10.9300 N.am      2 ALA2        0.0000 
     20 O         -66.4000  -25.3800   12.0200 O.2       2 ALA2        0.0000 
     21 O         -65.5800  -26.6100   11.7800 O.2       2 ALA2        0.0000 
     22 O         -63.8600  -27.0600   10.6200 O.2       2 ALA2        0.0000 
     23 O         -64.7600  -27.8400   11.5300 O.2       2 ALA2        0.0000 
     24 O         -63.0400  -28.2900   10.3800 O.2       2 ALA2        0.0000 
     25 O         -65.1000  -35.9000   14.1600 O.2       2 ALA2        0.0000 
     26 O         -65.5300  -25.0300   13.1900 O.2       2 ALA2        0.0000 
     27 O         -64.7100  -26.2600   12.9500 O.2       2 ALA2        0.0000 
     28 N         -62.1700  -27.9500   11.5500 N.am      2 ALA2        0.0000 
     29 N         -62.2500  -29.9600   12.2000 N.am      2 ALA2        0.0000 
     30 N         -63.1600  -30.7400   13.1100 N.am      2 ALA2        0.0000 
     31 N         -62.3400  -31.9800   12.8600 N.am      2 ALA2        0.0000 
     32 O         -64.6600  -24.6900   14.3600 O.2       2 ALA2        0.0000 
     33 O         -63.8400  -25.9200   14.1200 O.2       2 ALA2        0.0000 
     34 OD1       -66.4900  -27.3900   12.6800 O.co2     3 ASP3        0.0000 
     35 OD1       -65.6700  -28.6200   12.4300 O.co2     3 ASP3        0.0000 
     36 OD1       -64.8500  -29.8600   12.1900 O.co2     3 ASP3        0.0000 
     37 OD1       -65.7500  -30.6400   13.0900 O.co2     3 ASP3        0.0000 
     38 OD1       -64.9300  -31.8700   12.8400 O.co2     3 ASP3        0.0000 
     39 OD1       -65.8400  -32.6500   13.7500 O.co2     3 ASP3        0.0000 
     40 OD1       -65.0200  -33.8900   13.5000 O.co2     3 ASP3        0.0000 
     41 OD1       -65.6100  -27.0500   13.8500 O.co2     3 ASP3        0.0000 
     42 OD1       -63.8900  -27.5000   12.7000 O.co2     3 ASP3        0.0000 
     43 OD1       -64.1500  -33.5400   14.6700 O.co2     3 ASP3        0.0000 
     44 OD1       -64.7400  -26.7000   15.0200 O.co2     3 ASP3        0.0000 
     45 OD1       -64.6900  -25.1200   16.4400 O.co2     3 ASP3        0.0000 
     46 NZ        -65.9200  -34.6700   14.4100 N.4       4 LYS4        0.0000 
     47 CA        -68.2300  -28.0800   10.3400 C.3       5 GLY6        0.0000 
     48 CA        -66.5100  -28.5300    9.1900 C.3       5 GLY6        0.0000 
     49 CA        -67.4100  -29.3200   10.0900 C.3       5 GLY6        0.0000 
     50 CA        -65.6900  -29.7600    8.9400 C.3       5 GLY6        0.0000 
     51 CA        -66.5900  -30.5500    9.8500 C.3       5 GLY6        0.0000 
     52 CA        -68.1800  -26.5100   11.7600 C.3       5 GLY6        0.0000 
     53 CA        -67.3600  -27.7400   11.5100 C.3       5 GLY6        0.0000 
     54 CA        -68.2600  -28.5200   12.4200 C.3       5 GLY6        0.0000 
     55 CA        -66.5400  -28.9700   11.2600 C.3       5 GLY6        0.0000 
     56 CA        -65.7200  -30.2000   11.0200 C.3       5 GLY6        0.0000 
     57 CA        -66.6300  -30.9800   11.9200 C.3       5 GLY6        0.0000 
     58 CA        -62.2200  -29.5200   10.1300 C.3       5 GLY6        0.0000 
     59 CA        -63.1300  -30.3100   11.0300 C.3       5 GLY6        0.0000 
     60 CA        -62.3100  -31.5400   10.7900 C.3       5 GLY6        0.0000 
     61 CA        -62.3900  -33.5500   11.4400 C.3       5 GLY6        0.0000 
     62 CA        -62.9900  -26.7100   11.7900 C.3       5 GLY6        0.0000 
     63 CA        -63.0700  -28.7300   12.4500 C.3       5 GLY6        0.0000 
     64 CA        -63.2400  -32.7600   13.7700 C.3       5 GLY6        0.0000 
     65 CA        -63.0200  -27.1500   13.8700 C.3       5 GLY6        0.0000 
     66 CA        -63.7800  -24.3400   15.5300 C.3       5 GLY6        0.0000 
     67 CA        -62.8200  -21.9800   16.0400 C.3       5 GLY6        0.0000 
     68 CA        -62.9100  -24.0000   16.7000 C.3       5 GLY6        0.0000 
     69 DU        -65.0700  -35.4600   12.0800 H         6 CUB7        0.0000 
     70 DU        -63.9400  -29.0700   11.2800 H         6 CUB7        0.0000 
     71 DU        -64.0300  -31.0900   11.9400 H         6 CUB7        0.0000 
     72 DU        -63.2100  -32.3200   11.6900 H         6 CUB7        0.0000 
     73 DU        -64.1100  -33.1000   12.6000 H         6 CUB7        0.0000 
     74 DU        -64.2000  -35.1200   13.2500 H         6 CUB7        0.0000 
     75 DU        -66.4300  -25.8200   14.1000 H         6 CUB7        0.0000 
@<TRIPOS>BOND
@<TRIPOS>SUBSTRUCTURE
     1 SER1        1 GROUP   
     2 ALA2        6 GROUP   
     3 ASP3       34 GROUP   
     4 LYS4       46 GROUP   
     5 GLY6       47 GROUP   
     6 CUB7       69 GROUP   
@<TRIPOS>SET

