#    Name: 5yf0_1_SAM_CAVITY_N1_8
#    Modification time : Fri May 22 19:12:12 2020

@<TRIPOS>MOLECULE
5yf0_1_SAM_CAVITY_N1_8
   69     0     7     0     0
SMALL
NO_CHARGES


@<TRIPOS>ATOM
      1 OG        -39.2500   52.1700  -13.1800 O.3       1 SER1        0.0000 
      2 OG        -40.8700   49.8800   -6.2300 O.3       1 SER1        0.0000 
      3 OG        -40.6500   51.9100   -6.8000 O.3       1 SER1        0.0000 
      4 OG        -40.1400   51.0700   -5.6700 O.3       1 SER1        0.0000 
      5 OG        -39.4200   52.2600   -5.1100 O.3       1 SER1        0.0000 
      6 OG        -38.1900   52.6000   -3.4100 O.3       1 SER1        0.0000 
      7 O         -43.8900   54.9500  -13.0300 O.2       2 ALA2        0.0000 
      8 N         -39.6600   49.5200   -7.0400 N.am      2 ALA2        0.0000 
      9 N         -38.2200   51.1900   -8.4100 N.am      2 ALA2        0.0000 
     10 N         -39.4400   51.5500   -7.6100 N.am      2 ALA2        0.0000 
     11 N         -38.9300   50.7100   -6.4700 N.am      2 ALA2        0.0000 
     12 N         -39.2100   53.5800   -8.1800 N.am      2 ALA2        0.0000 
     13 N         -37.5000   52.3800   -7.8500 N.am      2 ALA2        0.0000 
     14 N         -38.7100   52.7400   -7.0500 N.am      2 ALA2        0.0000 
     15 N         -39.9200   53.1000   -6.2400 N.am      2 ALA2        0.0000 
     16 N         -38.2100   51.9000   -5.9100 N.am      2 ALA2        0.0000 
     17 N         -39.1900   54.2900   -5.6800 N.am      2 ALA2        0.0000 
     18 N         -37.4800   53.0800   -5.3500 N.am      2 ALA2        0.0000 
     19 N         -38.6900   53.4400   -4.5500 N.am      2 ALA2        0.0000 
     20 O         -39.9000   53.8100   -3.7400 O.2       2 ALA2        0.0000 
     21 N         -36.9800   52.2400   -4.2200 N.am      2 ALA2        0.0000 
     22 N         -37.9600   54.6300   -3.9900 N.am      2 ALA2        0.0000 
     23 OD1       -46.0700   51.3900  -14.7100 O.co2     3 ASP3        0.0000 
     24 NZ        -39.7300   53.7200  -11.8200 N.4       4 LYS4        0.0000 
     25 NZ        -40.9400   54.0800  -11.0100 N.4       4 LYS4        0.0000 
     26 NZ        -40.4400   53.2400   -9.8800 N.4       4 LYS4        0.0000 
     27 NZ        -41.6500   53.6000   -9.0700 N.4       4 LYS4        0.0000 
     28 NZ        -39.7100   54.4300   -9.3200 N.4       4 LYS4        0.0000 
     29 NZ        -40.4200   53.9400   -7.3800 N.4       4 LYS4        0.0000 
     30 CZ        -45.5800   49.8400  -16.0800 C.ar      5 PHE5        0.0000 
     31 CZ        -44.1500   51.5100  -17.4600 C.ar      5 PHE5        0.0000 
     32 CZ        -44.8600   51.0300  -15.5200 C.ar      5 PHE5        0.0000 
     33 CZ        -45.1300   53.9000  -17.2300 C.ar      5 PHE5        0.0000 
     34 CZ        -44.6300   53.0600  -16.0900 C.ar      5 PHE5        0.0000 
     35 CZ        -44.9100   55.9300  -17.8000 C.ar      5 PHE5        0.0000 
     36 CZ        -44.4100   55.0900  -16.6700 C.ar      5 PHE5        0.0000 
     37 CZ        -43.9000   54.2400  -15.5300 C.ar      5 PHE5        0.0000 
     38 CZ        -43.4000   53.4000  -14.4000 C.ar      5 PHE5        0.0000 
     39 CZ        -42.6700   54.5900  -13.8400 C.ar      5 PHE5        0.0000 
     40 CZ        -42.1700   53.7400  -12.7000 C.ar      5 PHE5        0.0000 
     41 CZ        -40.4600   52.5400  -12.3800 C.ar      5 PHE5        0.0000 
     42 CZ        -39.0200   54.2000  -13.7600 C.ar      5 PHE5        0.0000 
     43 CZ        -38.5200   53.3600  -12.6200 C.ar      5 PHE5        0.0000 
     44 CZ        -38.0200   52.5200  -11.4900 C.ar      5 PHE5        0.0000 
     45 CZ        -37.7900   54.5500  -12.0600 C.ar      5 PHE5        0.0000 
     46 CA        -47.7800   52.6000  -15.0400 C.3       6 GLY6        0.0000 
     47 CA        -45.3400   52.5800  -14.1500 C.3       6 GLY6        0.0000 
     48 CA        -44.6100   53.7600  -13.5900 C.3       6 GLY6        0.0000 
     49 CA        -44.1100   52.9200  -12.4600 C.3       6 GLY6        0.0000 
     50 CA        -43.3800   54.1000  -11.9000 C.3       6 GLY6        0.0000 
     51 CA        -39.9600   51.6900  -11.2400 C.3       6 GLY6        0.0000 
     52 CA        -40.2300   54.5700  -12.9500 C.3       6 GLY6        0.0000 
     53 CA        -41.4400   54.9300  -12.1400 C.3       6 GLY6        0.0000 
     54 CA        -39.2300   52.8800  -10.6800 C.3       6 GLY6        0.0000 
     55 CA        -38.7300   52.0300   -9.5500 C.3       6 GLY6        0.0000 
     56 CA        -39.0000   54.9100  -11.2600 C.3       6 GLY6        0.0000 
     57 CA        -38.5000   54.0600  -10.1200 C.3       6 GLY6        0.0000 
     58 CA        -38.0000   53.2200   -8.9900 C.3       6 GLY6        0.0000 
     59 CA        -41.1300   53.4600   -5.4400 C.3       6 GLY6        0.0000 
     60 CA        -37.7000   51.0500   -4.7800 C.3       6 GLY6        0.0000 
     61 DU        -45.3600   51.8700  -16.6500 H         7 CUB7        0.0000 
     62 DU        -46.5700   52.2300  -15.8500 H         7 CUB7        0.0000 
     63 DU        -46.3400   54.2600  -16.4200 H         7 CUB7        0.0000 
     64 DU        -45.8400   53.4200  -15.2900 H         7 CUB7        0.0000 
     65 DU        -45.6200   55.4500  -15.8600 H         7 CUB7        0.0000 
     66 DU        -45.1200   54.6100  -14.7300 H         7 CUB7        0.0000 
     67 DU        -41.6700   52.9000  -11.5700 H         7 CUB7        0.0000 
     68 DU        -39.9400   52.4000   -8.7400 H         7 CUB7        0.0000 
     69 DU        -41.1500   52.7600   -7.9400 H         7 CUB7        0.0000 
@<TRIPOS>BOND
@<TRIPOS>SUBSTRUCTURE
     1 SER1        1 GROUP   
     2 ALA2        7 GROUP   
     3 ASP3       23 GROUP   
     4 LYS4       24 GROUP   
     5 PHE5       30 GROUP   
     6 GLY6       46 GROUP   
     7 CUB7       61 GROUP   
@<TRIPOS>SET

