#    Name: 5yf0_1_SAM
#    Modification time : Fri May 22 19:12:11 2020

@<TRIPOS>MOLECULE
5yf0_1_SAM
   27    29     1     0     0
SMALL
NO_CHARGES


@<TRIPOS>ATOM
      1 N         -36.2420   53.7560   -4.3200 N.4       1 SAM505      0.0000 
      2 CA        -37.4990   53.7730   -3.5670 C.3       1 SAM505      0.0000 
      3 C         -37.3890   52.9570   -2.2840 C.2       1 SAM505      0.0000 
      4 O         -38.2390   53.0600   -1.3970 O.co2     1 SAM505      0.0000 
      5 OXT       -36.4550   52.1710   -2.1080 O.co2     1 SAM505      0.0000 
      6 CB        -38.6580   53.2330   -4.4110 C.3       1 SAM505      0.0000 
      7 CG        -38.4630   51.8060   -4.9270 C.3       1 SAM505      0.0000 
      8 SD        -39.8470   51.2700   -5.9740 S.3       1 SAM505      0.0000 
      9 CE        -39.7670   49.4620   -5.8220 C.3       1 SAM505      0.0000 
     10 C5'       -39.1530   51.5180   -7.6410 C.3       1 SAM505      0.0000 
     11 C4'       -39.4660   52.9360   -8.1460 C.3       1 SAM505      0.0000 
     12 O4'       -38.8830   53.2070   -9.4130 O.3       1 SAM505      0.0000 
     13 C3'       -40.9630   53.1740   -8.3230 C.3       1 SAM505      0.0000 
     14 O3'       -41.2880   54.3210   -7.5710 O.3       1 SAM505      0.0000 
     15 C2'       -41.1680   53.3640   -9.8280 C.3       1 SAM505      0.0000 
     16 O2'       -42.1640   54.2970  -10.1520 O.3       1 SAM505      0.0000 
     17 C1'       -39.8110   53.8860  -10.2580 C.3       1 SAM505      0.0000 
     18 N9        -39.4260   53.6250  -11.6510 N.pl3     1 SAM505      0.0000 
     19 C8        -39.5870   52.4680  -12.3600 C.2       1 SAM505      0.0000 
     20 N7        -39.0380   52.6440  -13.5840 N.2       1 SAM505      0.0000 
     21 C5        -38.5240   53.8970  -13.6590 C.ar      1 SAM505      0.0000 
     22 C6        -37.8670   54.5930  -14.6680 C.ar      1 SAM505      0.0000 
     23 N6        -37.6330   54.0100  -15.8420 N.pl3     1 SAM505      0.0000 
     24 N1        -37.4500   55.8880  -14.4460 N.ar      1 SAM505      0.0000 
     25 C2        -37.6870   56.4910  -13.2330 C.ar      1 SAM505      0.0000 
     26 N3        -38.3440   55.7950  -12.2430 N.ar      1 SAM505      0.0000 
     27 C4        -38.7540   54.5200  -12.4500 C.ar      1 SAM505      0.0000 
@<TRIPOS>BOND
     1    1    2 1    
     2    2    3 1    
     3    2    6 1    
     4    3    4 ar   
     5    3    5 ar   
     6    6    7 1    
     7    7    8 1    
     8    8    9 1    
     9    8   10 1    
    10   10   11 1    
    11   11   12 1    
    12   11   13 1    
    13   12   17 1    
    14   13   14 1    
    15   13   15 1    
    16   15   16 1    
    17   15   17 1    
    18   17   18 1    
    19   18   19 1    
    20   18   27 1    
    21   19   20 2    
    22   20   21 1    
    23   21   22 ar   
    24   21   27 ar   
    25   22   23 1    
    26   22   24 ar   
    27   24   25 ar   
    28   25   26 ar   
    29   26   27 ar   
@<TRIPOS>SUBSTRUCTURE
     1 SAM505      1 GROUP   
@<TRIPOS>SET

