#    Name: 5yf0_2_SAM_CAVITY_N1_4
#    Modification time : Fri May 22 19:12:19 2020

@<TRIPOS>MOLECULE
5yf0_2_SAM_CAVITY_N1_4
   74     0     6     0     0
SMALL
NO_CHARGES


@<TRIPOS>ATOM
      1 OG        -64.0000   24.5800    1.0600 O.3       1 SER1        0.0000 
      2 OG        -62.2900   23.3800    1.3900 O.3       1 SER1        0.0000 
      3 OG        -63.5000   23.7400    2.1900 O.3       1 SER1        0.0000 
      4 OG        -61.7900   22.5300    2.5200 O.3       1 SER1        0.0000 
      5 OG        -58.6400   22.9900    1.4700 O.3       1 SER1        0.0000 
      6 OG        -59.8500   23.3600    2.2700 O.3       1 SER1        0.0000 
      7 OG        -53.0400   23.4400    1.3000 O.3       1 SER1        0.0000 
      8 OG        -52.5400   22.5900    2.4400 O.3       1 SER1        0.0000 
      9 OG        -52.3200   24.6200    1.8600 O.3       1 SER1        0.0000 
     10 OG        -51.8200   23.7800    3.0000 O.3       1 SER1        0.0000 
     11 OG        -51.3100   22.9300    4.1300 O.3       1 SER1        0.0000 
     12 O         -59.5900   19.7800    1.4800 O.2       2 ALA2        0.0000 
     13 N         -54.9800   22.6100    1.5500 N.am      2 ALA2        0.0000 
     14 N         -53.2700   21.4100    1.8800 N.am      2 ALA2        0.0000 
     15 N         -54.2600   23.8000    2.1100 N.am      2 ALA2        0.0000 
     16 N         -53.7500   22.9500    3.2400 N.am      2 ALA2        0.0000 
     17 O         -50.8300   21.3900    2.7700 O.2       2 ALA2        0.0000 
     18 N         -52.0400   21.7500    3.5700 N.am      2 ALA2        0.0000 
     19 N         -53.5300   24.9800    2.6700 N.am      2 ALA2        0.0000 
     20 NZ        -64.7300   23.4000    0.5000 N.4       3 LYS4        0.0000 
     21 NZ        -63.0200   22.1900    0.8300 N.4       3 LYS4        0.0000 
     22 NZ        -62.5200   21.3500    1.9600 N.4       3 LYS4        0.0000 
     23 NZ        -57.4400   21.9300   -1.8400 N.4       3 LYS4        0.0000 
     24 NZ        -58.6500   22.2900   -1.0300 N.4       3 LYS4        0.0000 
     25 NZ        -58.1500   21.4500    0.1000 N.4       3 LYS4        0.0000 
     26 NZ        -57.6500   20.6000    1.2300 N.4       3 LYS4        0.0000 
     27 NZ        -56.7200   23.1100   -1.2800 N.4       3 LYS4        0.0000 
     28 NZ        -55.0000   21.9100   -0.9500 N.4       3 LYS4        0.0000 
     29 NZ        -56.2100   22.2700   -0.1400 N.4       3 LYS4        0.0000 
     30 NZ        -57.4300   22.6300    0.6600 N.4       3 LYS4        0.0000 
     31 NZ        -54.5000   21.0600    0.1800 N.4       3 LYS4        0.0000 
     32 NZ        -55.7100   21.4300    0.9900 N.4       3 LYS4        0.0000 
     33 NZ        -53.7700   22.2500    0.7400 N.4       3 LYS4        0.0000 
     34 CZ        -64.2500   21.8500   -0.8700 C.ar      4 PHE5        0.0000 
     35 CZ        -62.3100   22.6700   -1.1100 C.ar      4 PHE5        0.0000 
     36 CZ        -63.5200   23.0300   -0.3100 C.ar      4 PHE5        0.0000 
     37 CZ        -58.4500   23.6100   -4.1100 C.ar      4 PHE5        0.0000 
     38 CZ        -62.0800   24.7000   -1.6900 C.ar      4 PHE5        0.0000 
     39 CZ        -59.1600   23.1300   -2.1700 C.ar      4 PHE5        0.0000 
     40 CZ        -60.3700   23.5000   -1.3600 C.ar      4 PHE5        0.0000 
     41 CZ        -60.5800   22.1700    1.7100 C.ar      4 PHE5        0.0000 
     42 CZ        -60.0700   21.3300    2.8500 C.ar      4 PHE5        0.0000 
     43 CZ        -60.1400   25.5300   -1.9300 C.ar      4 PHE5        0.0000 
     44 CZ        -58.1400   22.1500    2.6000 C.ar      4 PHE5        0.0000 
     45 CZ        -56.2000   22.9700    2.3600 C.ar      4 PHE5        0.0000 
     46 CA        -61.8100   21.8300    0.0200 C.3       5 GLY6        0.0000 
     47 CA        -61.3000   20.9800    1.1500 C.3       5 GLY6        0.0000 
     48 CA        -60.8000   20.1400    2.2900 C.3       5 GLY6        0.0000 
     49 CA        -57.2400   23.2500   -4.9100 C.3       5 GLY6        0.0000 
     50 CA        -57.9500   22.7700   -2.9700 C.3       5 GLY6        0.0000 
     51 CA        -59.8700   22.6500   -0.2300 C.3       5 GLY6        0.0000 
     52 CA        -61.0800   23.0100    0.5800 C.3       5 GLY6        0.0000 
     53 CA        -59.3600   21.8100    0.9100 C.3       5 GLY6        0.0000 
     54 CA        -58.8600   20.9600    2.0400 C.3       5 GLY6        0.0000 
     55 CA        -56.0100   23.6000   -3.2200 C.3       5 GLY6        0.0000 
     56 CA        -55.5000   22.7500   -2.0800 C.3       5 GLY6        0.0000 
     57 CA        -59.1400   23.8400    0.3300 C.3       5 GLY6        0.0000 
     58 CA        -53.7900   21.5500   -1.7600 C.3       5 GLY6        0.0000 
     59 CA        -53.2900   20.7000   -0.6200 C.3       5 GLY6        0.0000 
     60 CA        -56.9200   21.7900    1.8000 C.3       5 GLY6        0.0000 
     61 CA        -53.5600   23.5800   -2.3300 C.3       5 GLY6        0.0000 
     62 CA        -53.0600   22.7300   -1.2000 C.3       5 GLY6        0.0000 
     63 CA        -56.7000   23.8200    1.2200 C.3       5 GLY6        0.0000 
     64 CA        -52.5600   21.8900   -0.0600 C.3       5 GLY6        0.0000 
     65 CA        -52.0600   21.0400    1.0700 C.3       5 GLY6        0.0000 
     66 CA        -55.4700   24.1600    2.9200 C.3       5 GLY6        0.0000 
     67 DU        -57.7200   24.8000   -3.5500 H         6 CUB7        0.0000 
     68 DU        -57.2200   23.9600   -2.4100 H         6 CUB7        0.0000 
     69 DU        -57.9300   23.4800   -0.4700 H         6 CUB7        0.0000 
     70 DU        -55.2800   24.7800   -2.6600 H         6 CUB7        0.0000 
     71 DU        -54.7800   23.9400   -1.5200 H         6 CUB7        0.0000 
     72 DU        -54.2700   23.0900   -0.3900 H         6 CUB7        0.0000 
     73 DU        -55.4900   23.4600    0.4200 H         6 CUB7        0.0000 
     74 DU        -53.5500   24.2800    0.1700 H         6 CUB7        0.0000 
@<TRIPOS>BOND
@<TRIPOS>SUBSTRUCTURE
     1 SER1        1 GROUP   
     2 ALA2       12 GROUP   
     3 LYS4       20 GROUP   
     4 PHE5       34 GROUP   
     5 GLY6       46 GROUP   
     6 CUB7       67 GROUP   
@<TRIPOS>SET

