#    Name: 5yf0_2_SAM
#    Modification time : Fri May 22 19:12:17 2020

@<TRIPOS>MOLECULE
5yf0_2_SAM
   27    29     1     0     0
SMALL
NO_CHARGES


@<TRIPOS>ATOM
      1 N         -52.0330   21.0020    5.5780 N.4       1 SAM503      0.0000 
      2 CA        -51.1180   20.9690    4.4370 C.3       1 SAM503      0.0000 
      3 C         -49.7890   21.5960    4.8340 C.2       1 SAM503      0.0000 
      4 O         -48.7680   21.3840    4.1650 O.co2     1 SAM503      0.0000 
      5 OXT       -49.7110   22.3160    5.8430 O.co2     1 SAM503      0.0000 
      6 CB        -51.7050   21.6990    3.2310 C.3       1 SAM503      0.0000 
      7 CG        -52.1220   23.1450    3.5330 C.3       1 SAM503      0.0000 
      8 SD        -52.7840   23.9760    2.0500 S.3       1 SAM503      0.0000 
      9 CE        -52.4260   25.7230    2.3970 C.3       1 SAM503      0.0000 
     10 C5'       -54.5720   23.8540    2.4200 C.3       1 SAM503      0.0000 
     11 C4'       -55.1880   22.5820    1.8230 C.3       1 SAM503      0.0000 
     12 O4'       -56.5450   22.4160    2.1710 O.3       1 SAM503      0.0000 
     13 C3'       -55.1450   22.5370    0.2910 C.3       1 SAM503      0.0000 
     14 O3'       -54.5380   21.3110   -0.0620 O.3       1 SAM503      0.0000 
     15 C2'       -56.5960   22.5200   -0.1490 C.3       1 SAM503      0.0000 
     16 O2'       -56.8350   21.7170   -1.2790 O.3       1 SAM503      0.0000 
     17 C1'       -57.2740   21.9010    1.0610 C.3       1 SAM503      0.0000 
     18 N9        -58.6880   22.2830    1.2570 N.pl3     1 SAM503      0.0000 
     19 C8        -59.2450   23.5390    1.1280 C.2       1 SAM503      0.0000 
     20 N7        -60.5560   23.4580    1.4390 N.2       1 SAM503      0.0000 
     21 C5        -60.8450   22.1780    1.7760 C.ar      1 SAM503      0.0000 
     22 C6        -62.0150   21.5400    2.1700 C.ar      1 SAM503      0.0000 
     23 N6        -63.1560   22.2100    2.3000 N.pl3     1 SAM503      0.0000 
     24 N1        -61.9980   20.1910    2.4460 N.ar      1 SAM503      0.0000 
     25 C2        -60.8300   19.4810    2.3320 C.ar      1 SAM503      0.0000 
     26 N3        -59.6800   20.1150    1.9380 N.ar      1 SAM503      0.0000 
     27 C4        -59.6810   21.4360    1.6690 C.ar      1 SAM503      0.0000 
@<TRIPOS>BOND
     1    1    2 1    
     2    2    3 1    
     3    2    6 1    
     4    3    4 ar   
     5    3    5 ar   
     6    6    7 1    
     7    7    8 1    
     8    8    9 1    
     9    8   10 1    
    10   10   11 1    
    11   11   12 1    
    12   11   13 1    
    13   12   17 1    
    14   13   14 1    
    15   13   15 1    
    16   15   16 1    
    17   15   17 1    
    18   17   18 1    
    19   18   19 1    
    20   18   27 1    
    21   19   20 2    
    22   20   21 1    
    23   21   22 ar   
    24   21   27 ar   
    25   22   23 1    
    26   22   24 ar   
    27   24   25 ar   
    28   25   26 ar   
    29   26   27 ar   
@<TRIPOS>SUBSTRUCTURE
     1 SAM503      1 GROUP   
@<TRIPOS>SET

