#    Name: 6nqm_1_FAD
#    Modification time : Fri May 22 19:25:49 2020

@<TRIPOS>MOLECULE
6nqm_1_FAD
   84    89     1     0     1
SMALL
NO_CHARGES


@<TRIPOS>ATOM
      1 PA         22.6300   43.6110   55.3600 P.3       1 FAD901      0.0000 
      2 O1A        23.1400   44.7850   56.1140 O.co2     1 FAD901      0.0000 
      3 O2A        23.7170   42.6960   54.7780 O.co2     1 FAD901      0.0000 
      4 O5B        21.6410   42.7560   56.2290 O.3       1 FAD901      0.0000 
      5 C5B        21.4880   41.3380   56.0110 C.3       1 FAD901      0.0000 
      6 C4B        21.6750   40.6240   57.3270 C.3       1 FAD901      0.0000 
      7 O4B        21.4210   39.2120   57.1490 O.3       1 FAD901      0.0000 
      8 C3B        23.0770   40.7440   57.9290 C.3       1 FAD901      0.0000 
      9 O3B        23.0110   41.1200   59.3010 O.3       1 FAD901      0.0000 
     10 C2B        23.6580   39.3360   57.7630 C.3       1 FAD901      0.0000 
     11 O2B        24.5670   38.9800   58.7970 O.3       1 FAD901      0.0000 
     12 C1B        22.3920   38.4930   57.8690 C.3       1 FAD901      0.0000 
     13 N9A        22.5140   37.1570   57.3020 N.pl3     1 FAD901      0.0000 
     14 C8A        23.2660   36.7730   56.2270 C.2       1 FAD901      0.0000 
     15 N7A        23.1900   35.4900   55.9550 N.2       1 FAD901      0.0000 
     16 C5A        22.3360   35.0020   56.9220 C.ar      1 FAD901      0.0000 
     17 C6A        21.8370   33.7060   57.1910 C.ar      1 FAD901      0.0000 
     18 N6A        22.1540   32.6300   56.4660 N.pl3     1 FAD901      0.0000 
     19 N1A        20.9970   33.5610   58.2370 N.ar      1 FAD901      0.0000 
     20 C2A        20.6770   34.6320   58.9670 C.ar      1 FAD901      0.0000 
     21 N3A        21.0820   35.8960   58.8090 N.ar      1 FAD901      0.0000 
     22 C4A        21.9070   36.0100   57.7700 C.ar      1 FAD901      0.0000 
     23 N1         25.6080   52.3900   51.8720 N.2       1 FAD901      0.0000 
     24 C2         25.4140   53.7400   51.9490 C.2       1 FAD901      0.0000 
     25 O2         24.2890   54.2420   51.8480 O.2       1 FAD901      0.0000 
     26 N3         26.4980   54.5790   52.1410 N.am      1 FAD901      0.0000 
     27 C4         27.8150   54.1830   52.2710 C.2       1 FAD901      0.0000 
     28 O4         28.7020   55.0180   52.4390 O.2       1 FAD901      0.0000 
     29 C4X        28.0110   52.7510   52.1810 C.2       1 FAD901      0.0000 
     30 N5         29.2280   52.2910   52.2930 N.2       1 FAD901      0.0000 
     31 C5X        29.4160   50.9220   52.2210 C.ar      1 FAD901      0.0000 
     32 C6         30.7110   50.4150   52.3440 C.ar      1 FAD901      0.0000 
     33 C7         30.9560   49.0470   52.2730 C.ar      1 FAD901      0.0000 
     34 C7M        32.3640   48.5340   52.4110 C.3       1 FAD901      0.0000 
     35 C8         29.8820   48.1650   52.0800 C.ar      1 FAD901      0.0000 
     36 C8M        30.1080   46.6780   52.0060 C.3       1 FAD901      0.0000 
     37 C9         28.5920   48.6650   51.9610 C.ar      1 FAD901      0.0000 
     38 C9A        28.3480   50.0340   52.0290 C.ar      1 FAD901      0.0000 
     39 N10        27.0450   50.5730   51.9280 N.pl3     1 FAD901      0.0000 
     40 C10        26.8440   51.9310   51.9870 C.2       1 FAD901      0.0000 
     41 C1'        25.8870   49.6980   51.6890 C.3       1 FAD901      0.0000 
     42 C2'        24.9590   49.5470   52.9040 C.3       1 FAD901      0.0000 
     43 O2'        25.6500   48.9450   53.9990 O.3       1 FAD901      0.0000 
     44 C3'        23.7850   48.6510   52.5020 C.3       1 FAD901      0.0000 
     45 O3'        23.0700   49.3090   51.4590 O.3       1 FAD901      0.0000 
     46 C4'        22.8090   48.2770   53.6180 C.3       1 FAD901      0.0000 
     47 O4'        23.5310   48.0300   54.8230 O.3       1 FAD901      0.0000 
     48 C5'        21.9900   47.0590   53.2380 C.3       1 FAD901      0.0000 
     49 O5'        21.3580   46.5200   54.4180 O.3       1 FAD901      0.0000 
     50 P          20.5530   45.1680   54.3600 P.3       1 FAD901      0.0000 
     51 O1P        19.8560   44.8840   55.6960 O.co2     1 FAD901      0.0000 
     52 O2P        19.6550   45.1610   53.1800 O.co2     1 FAD901      0.0000 
     53 O3P        21.7040   44.0970   54.1690 O.3       1 FAD901      0.0000 
     54 H51A       20.6300   41.1610   55.6750 H         1 FAD901      0.0000 
     55 H52A       22.1330   41.0410   55.3970 H         1 FAD901      0.0000 
     56 H4B        21.0580   40.9470   57.9590 H         1 FAD901      0.0000 
     57 H3B        23.5810   41.3590   57.4300 H         1 FAD901      0.0000 
     58 HO3A       23.6940   40.8540   59.6950 H         1 FAD901      0.0000 
     59 H2B        24.0680   39.2530   56.9220 H         1 FAD901      0.0000 
     60 HO2A       25.1200   39.5920   58.9030 H         1 FAD901      0.0000 
     61 H1B        22.1290   38.4130   58.7660 H         1 FAD901      0.0000 
     62 H8A        23.7810   37.3660   55.7300 H         1 FAD901      0.0000 
     63 H61A       21.8340   31.8520   56.6800 H         1 FAD901      0.0000 
     64 H62A       22.6800   32.7080   55.7800 H         1 FAD901      0.0000 
     65 H2A        20.0960   34.4820   59.6760 H         1 FAD901      0.0000 
     66 HN3        26.3320   55.4300   52.1820 H         1 FAD901      0.0000 
     67 H6         31.3130   51.1110   52.4690 H         1 FAD901      0.0000 
     68 HM71       32.3590   47.7330   52.9000 H         1 FAD901      0.0000 
     69 HM72       32.7260   48.3790   51.5590 H         1 FAD901      0.0000 
     70 HM73       32.8860   49.1720   52.8610 H         1 FAD901      0.0000 
     71 HM81       30.8490   46.5010   51.4570 H         1 FAD901      0.0000 
     72 HM82       30.2710   46.3430   52.8680 H         1 FAD901      0.0000 
     73 HM83       29.3460   46.2630   51.6470 H         1 FAD901      0.0000 
     74 H9         28.1340   47.9780   51.5360 H         1 FAD901      0.0000 
     75 H1'1       26.2030   48.8460   51.4510 H         1 FAD901      0.0000 
     76 H1'2       25.3880   50.0560   50.9780 H         1 FAD901      0.0000 
     77 H2'        24.6480   50.3930   53.1690 H         1 FAD901      0.0000 
     78 HO2'       25.1340   48.8730   54.6470 H         1 FAD901      0.0000 
     79 H3'        24.1430   47.8440   52.1820 H         1 FAD901      0.0000 
     80 HO3'       22.3210   48.9570   51.3730 H         1 FAD901      0.0000 
     81 H4'        22.2350   49.0020   53.7770 H         1 FAD901      0.0000 
     82 HO4'       23.0260   47.6720   55.3810 H         1 FAD901      0.0000 
     83 H5'1       22.5520   46.4100   52.8590 H         1 FAD901      0.0000 
     84 H5'2       21.3330   47.3060   52.6150 H         1 FAD901      0.0000 
@<TRIPOS>BOND
     1    1    2 ar   
     2    1    3 ar   
     3    1    4 1    
     4    1   53 1    
     5    4    5 1    
     6    5    6 1    
     7    6    7 1    
     8    5   54 1    
     9    5   55 1    
    10    6    8 1    
    11    7   12 1    
    12    6   56 1    
    13    8    9 1    
    14    8   10 1    
    15   10   11 1    
    16    8   57 1    
    17    9   58 1    
    18   10   12 1    
    19   12   13 1    
    20   10   59 1    
    21   11   60 1    
    22   13   14 1    
    23   12   61 1    
    24   13   22 1    
    25   14   15 2    
    26   15   16 1    
    27   14   62 1    
    28   16   17 ar   
    29   16   22 ar   
    30   17   18 1    
    31   17   19 ar   
    32   19   20 ar   
    33   18   63 1    
    34   18   64 1    
    35   20   21 ar   
    36   21   22 ar   
    37   20   65 1    
    38   23   24 1    
    39   23   40 2    
    40   24   25 2    
    41   24   26 am   
    42   26   27 am   
    43   27   28 2    
    44   26   66 1    
    45   27   29 1    
    46   29   30 2    
    47   29   40 1    
    48   30   31 1    
    49   31   32 ar   
    50   31   38 ar   
    51   32   33 ar   
    52   33   34 1    
    53   32   67 1    
    54   33   35 ar   
    55   35   36 1    
    56   34   68 1    
    57   34   69 1    
    58   34   70 1    
    59   35   37 ar   
    60   37   74 1    
    61   37   38 ar   
    62   36   71 1    
    63   36   72 1    
    64   36   73 1    
    65   38   39 1    
    66   39   40 1    
    67   39   41 1    
    68   41   42 1    
    69   42   43 1    
    70   41   75 1    
    71   41   76 1    
    72   42   44 1    
    73   44   45 1    
    74   42   77 1    
    75   43   78 1    
    76   44   46 1    
    77   46   47 1    
    78   44   79 1    
    79   45   80 1    
    80   46   48 1    
    81   48   49 1    
    82   46   81 1    
    83   47   82 1    
    84   49   50 1    
    85   48   83 1    
    86   48   84 1    
    87   50   51 ar   
    88   50   52 ar   
    89   50   53 1    
@<TRIPOS>SUBSTRUCTURE
     1 FAD901      1 GROUP   
@<TRIPOS>SET
ATOM$ORANGE STATIC     ATOMS   COLORGROUP SYSTEM 
54 5 5 6 6 8 8 10 10 12 12 14 14 16 16 17 17 20 \
20 22 22 24 24 27 27 29 29 31 31 32 32 33 33 34 34 35 \
35 36 36 37 37 38 38 40 40 41 41 42 42 44 44 46 46 48 \
48 

