#    Name: 5o9v_1_COA
#    Modification time : Fri May 22 19:11:51 2020

@<TRIPOS>MOLECULE
5o9v_1_COA
   48    50     1     0     1
SMALL
NO_CHARGES


@<TRIPOS>ATOM
      1 N1A       -21.6700  -18.1500    9.0320 N.ar      1 COA501      0.0000 
      2 C2A       -22.7930  -17.5670    9.5550 C.ar      1 COA501      0.0000 
      3 N3A       -23.9410  -17.5350    8.8270 N.ar      1 COA501      0.0000 
      4 C4A       -23.9740  -18.0780    7.5900 C.ar      1 COA501      0.0000 
      5 C5A       -22.8680  -18.6550    7.0660 C.ar      1 COA501      0.0000 
      6 C6A       -21.7000  -18.6860    7.8100 C.ar      1 COA501      0.0000 
      7 N6A       -20.3170  -19.2340    7.5450 N.pl3     1 COA501      0.0000 
      8 N7A       -23.1800  -19.1090    5.8330 N.2       1 COA501      0.0000 
      9 C8A       -24.4860  -18.8100    5.5920 C.2       1 COA501      0.0000 
     10 N9A       -24.9680  -18.1770    6.6770 N.pl3     1 COA501      0.0000 
     11 C1B       -26.2910  -17.6940    6.8260 C.3       1 COA501      0.0000 
     12 C2B       -26.7510  -17.2060    5.6870 C.3       1 COA501      0.0000 
     13 O2B       -26.3190  -15.8200    5.5200 O.3       1 COA501      0.0000 
     14 C3B       -28.2820  -17.2770    5.9100 C.3       1 COA501      0.0000 
     15 O3B       -28.6640  -16.2810    6.7160 O.3       1 COA501      0.0000 
     16 P3B       -29.3790  -14.9280    6.0500 P.3       1 COA501      0.0000 
     17 O7A       -29.1310  -13.7640    6.9810 O.co2     1 COA501      0.0000 
     18 O8A       -30.8590  -15.1550    5.9250 O.co2     1 COA501      0.0000 
     19 O9A       -28.7660  -14.6470    4.7020 O.co2     1 COA501      0.0000 
     20 C4B       -28.4690  -18.6620    6.6620 C.3       1 COA501      0.0000 
     21 O4B       -27.3330  -18.9150    7.2530 O.3       1 COA501      0.0000 
     22 C5B       -28.7650  -19.7740    5.6520 C.3       1 COA501      0.0000 
     23 O5B       -29.2780  -20.8910    6.3580 O.3       1 COA501      0.0000 
     24 P1A       -29.0290  -22.3860    5.6890 P.3       1 COA501      0.0000 
     25 O1A       -28.9220  -23.4410    6.7800 O.co2     1 COA501      0.0000 
     26 O2A       -30.1760  -22.7010    4.7710 O.co2     1 COA501      0.0000 
     27 O3A       -27.5800  -22.3550    4.8070 O.3       1 COA501      0.0000 
     28 P2A       -26.6090  -23.7570    4.6620 P.3       1 COA501      0.0000 
     29 O4A       -25.8400  -23.7330    3.3450 O.co2     1 COA501      0.0000 
     30 O5A       -27.5190  -24.9770    4.7250 O.co2     1 COA501      0.0000 
     31 O6A       -25.5510  -23.7880    5.9650 O.3       1 COA501      0.0000 
     32 CBP       -23.1820  -23.7120    6.2960 C.3       1 COA501      0.0000 
     33 CCP       -24.4450  -22.8840    5.9480 C.3       1 COA501      0.0000 
     34 CDP       -21.9500  -22.7920    6.2410 C.3       1 COA501      0.0000 
     35 CEP       -23.3460  -24.2720    7.6770 C.3       1 COA501      0.0000 
     36 CAP       -23.0680  -24.8340    5.2910 C.3       1 COA501      0.0000 
     37 OAP       -23.1080  -24.2960    4.0020 O.3       1 COA501      0.0000 
     38 C9P       -21.7610  -25.6120    5.4540 C.2       1 COA501      0.0000 
     39 O9P       -21.6740  -26.4860    6.2430 O.2       1 COA501      0.0000 
     40 N8P       -20.6100  -25.2680    4.5920 N.am      1 COA501      0.0000 
     41 C7P       -19.3180  -26.0150    4.7260 C.3       1 COA501      0.0000 
     42 C6P       -18.6320  -25.6370    6.0690 C.3       1 COA501      0.0000 
     43 C5P       -18.6470  -24.1290    6.2860 C.2       1 COA501      0.0000 
     44 O5P       -18.4750  -23.3760    5.3570 O.2       1 COA501      0.0000 
     45 N4P       -18.8660  -23.6010    7.6480 N.am      1 COA501      0.0000 
     46 C3P       -18.8760  -22.1540    7.8970 C.3       1 COA501      0.0000 
     47 C2P       -17.3760  -21.6220    7.8420 C.3       1 COA501      0.0000 
     48 S1P       -17.3600  -19.8090    7.9920 S.3       1 COA501      0.0000 
@<TRIPOS>BOND
     1    1    2 ar   
     2    1    6 ar   
     3    2    3 ar   
     4    3    4 ar   
     5    4    5 ar   
     6    4   10 1    
     7    5    6 ar   
     8    5    8 1    
     9    6    7 1    
    10    8    9 2    
    11    9   10 1    
    12   10   11 1    
    13   11   12 1    
    14   11   21 1    
    15   12   13 1    
    16   12   14 1    
    17   14   15 1    
    18   14   20 1    
    19   15   16 1    
    20   16   17 ar   
    21   16   18 ar   
    22   16   19 ar   
    23   20   21 1    
    24   20   22 1    
    25   22   23 1    
    26   23   24 1    
    27   24   25 ar   
    28   24   26 ar   
    29   24   27 1    
    30   27   28 1    
    31   28   29 ar   
    32   28   30 ar   
    33   28   31 1    
    34   31   33 1    
    35   32   33 1    
    36   32   34 1    
    37   32   35 1    
    38   32   36 1    
    39   36   37 1    
    40   36   38 1    
    41   38   39 2    
    42   38   40 am   
    43   40   41 1    
    44   41   42 1    
    45   42   43 1    
    46   43   44 2    
    47   43   45 am   
    48   45   46 1    
    49   46   47 1    
    50   47   48 1    
@<TRIPOS>SUBSTRUCTURE
     1 COA501      1 GROUP   
@<TRIPOS>SET
ATOM$ORANGE STATIC     ATOMS   COLORGROUP SYSTEM 
42 2 2 4 4 5 5 6 6 9 9 11 11 12 12 14 14 20 \
20 22 22 32 32 33 33 34 34 35 35 36 36 38 38 41 41 42 \
42 43 43 46 46 47 47 

