#    Name: 5o9v_2_COA
#    Modification time : Fri May 22 19:11:56 2020

@<TRIPOS>MOLECULE
5o9v_2_COA
   48    50     1     0     1
SMALL
NO_CHARGES


@<TRIPOS>ATOM
      1 N1A        -6.7820  -15.7890   56.7410 N.ar      1 COA501      0.0000 
      2 C2A        -5.6520  -15.2780   56.1610 C.ar      1 COA501      0.0000 
      3 N3A        -4.5100  -15.1650   56.8890 N.ar      1 COA501      0.0000 
      4 C4A        -4.4880  -15.5610   58.1820 C.ar      1 COA501      0.0000 
      5 C5A        -5.6000  -16.0690   58.7610 C.ar      1 COA501      0.0000 
      6 C6A        -6.7630  -16.1810   58.0170 C.ar      1 COA501      0.0000 
      7 N6A        -8.1500  -16.6890   58.3320 N.pl3     1 COA501      0.0000 
      8 N7A        -5.2960  -16.3780   60.0420 N.2       1 COA501      0.0000 
      9 C8A        -3.9900  -16.0580   60.2540 C.2       1 COA501      0.0000 
     10 N9A        -3.5000  -15.5560   59.1050 N.pl3     1 COA501      0.0000 
     11 C1B        -2.1750  -15.0990   58.9060 C.3       1 COA501      0.0000 
     12 C2B        -1.7060  -14.5010   59.9860 C.3       1 COA501      0.0000 
     13 O2B        -2.1470  -13.1090   60.0320 O.3       1 COA501      0.0000 
     14 C3B        -0.1790  -14.5780   59.7380 C.3       1 COA501      0.0000 
     15 O3B         0.1760  -13.6470   58.8480 O.3       1 COA501      0.0000 
     16 P3B         0.9550  -12.2800   59.4020 P.3       1 COA501      0.0000 
     17 O7A         0.9040  -11.2240   58.3210 O.co2     1 COA501      0.0000 
     18 O8A         2.3890  -12.6070   59.7090 O.co2     1 COA501      0.0000 
     19 O9A         0.2620  -11.7830   60.6450 O.co2     1 COA501      0.0000 
     20 C4B         0.0240  -16.0140   59.0970 C.3       1 COA501      0.0000 
     21 O4B        -1.1420  -16.3690   58.6250 O.3       1 COA501      0.0000 
     22 C5B         0.4910  -17.0090   60.1660 C.3       1 COA501      0.0000 
     23 O5B         0.5850  -18.2860   59.5550 O.3       1 COA501      0.0000 
     24 P1A         0.5170  -19.6320   60.5230 P.3       1 COA501      0.0000 
     25 O1A         0.5020  -20.8770   59.6500 O.co2     1 COA501      0.0000 
     26 O2A         1.7150  -19.6460   61.4310 O.co2     1 COA501      0.0000 
     27 O3A        -0.9030  -19.5850   61.4500 O.3       1 COA501      0.0000 
     28 P2A        -1.8880  -20.9750   61.6300 P.3       1 COA501      0.0000 
     29 O4A        -2.7460  -20.8550   62.8840 O.co2     1 COA501      0.0000 
     30 O5A        -0.9830  -22.1990   61.7260 O.co2     1 COA501      0.0000 
     31 O6A        -2.8520  -21.1170   60.2620 O.3       1 COA501      0.0000 
     32 CBP        -5.2230  -21.1030   59.8860 C.3       1 COA501      0.0000 
     33 CCP        -3.9640  -20.2300   60.1250 C.3       1 COA501      0.0000 
     34 CDP        -6.4590  -20.1880   59.8370 C.3       1 COA501      0.0000 
     35 CEP        -5.0660  -21.8260   58.5810 C.3       1 COA501      0.0000 
     36 CAP        -5.3120  -22.0960   61.0240 C.3       1 COA501      0.0000 
     37 OAP        -5.1980  -21.4100   62.2350 O.3       1 COA501      0.0000 
     38 C9P        -6.6380  -22.8560   61.0170 C.2       1 COA501      0.0000 
     39 O9P        -6.7640  -23.8340   60.3660 O.2       1 COA501      0.0000 
     40 N8P        -7.7510  -22.3560   61.8550 N.am      1 COA501      0.0000 
     41 C7P        -9.0680  -23.0680   61.8870 C.3       1 COA501      0.0000 
     42 C6P        -9.8020  -22.8850   60.5280 C.3       1 COA501      0.0000 
     43 C5P        -9.7640  -21.4360   60.0590 C.2       1 COA501      0.0000 
     44 O5P        -9.8980  -20.5300   60.8470 O.2       1 COA501      0.0000 
     45 N4P        -9.5740  -21.1550   58.6210 N.am      1 COA501      0.0000 
     46 C3P        -9.5450  -19.7730   58.1280 C.3       1 COA501      0.0000 
     47 C2P       -11.0450  -19.2430   58.0610 C.3       1 COA501      0.0000 
     48 S1P       -11.0490  -17.4620   57.6880 S.3       1 COA501      0.0000 
@<TRIPOS>BOND
     1    1    2 ar   
     2    1    6 ar   
     3    2    3 ar   
     4    3    4 ar   
     5    4    5 ar   
     6    4   10 1    
     7    5    6 ar   
     8    5    8 1    
     9    6    7 1    
    10    8    9 2    
    11    9   10 1    
    12   10   11 1    
    13   11   12 1    
    14   11   21 1    
    15   12   13 1    
    16   12   14 1    
    17   14   15 1    
    18   14   20 1    
    19   15   16 1    
    20   16   17 ar   
    21   16   18 ar   
    22   16   19 ar   
    23   20   21 1    
    24   20   22 1    
    25   22   23 1    
    26   23   24 1    
    27   24   25 ar   
    28   24   26 ar   
    29   24   27 1    
    30   27   28 1    
    31   28   29 ar   
    32   28   30 ar   
    33   28   31 1    
    34   31   33 1    
    35   32   33 1    
    36   32   34 1    
    37   32   35 1    
    38   32   36 1    
    39   36   37 1    
    40   36   38 1    
    41   38   39 2    
    42   38   40 am   
    43   40   41 1    
    44   41   42 1    
    45   42   43 1    
    46   43   44 2    
    47   43   45 am   
    48   45   46 1    
    49   46   47 1    
    50   47   48 1    
@<TRIPOS>SUBSTRUCTURE
     1 COA501      1 GROUP   
@<TRIPOS>SET
ATOM$ORANGE STATIC     ATOMS   COLORGROUP SYSTEM 
42 2 2 4 4 5 5 6 6 9 9 11 11 12 12 14 14 20 \
20 22 22 32 32 33 33 34 34 35 35 36 36 38 38 41 41 42 \
42 43 43 46 46 47 47 

