#    Name: 6fhs_3_ADP
#    Modification time : Fri May 22 19:29:43 2020

@<TRIPOS>MOLECULE
6fhs_3_ADP
   27    29     1     0     1
SMALL
NO_CHARGES


@<TRIPOS>ATOM
      1 PB        184.4100  182.4840   95.5510 P.3       1 ADP501      0.0000 
      2 O1B       185.4550  181.4650   95.1800 O.co2     1 ADP501      0.0000 
      3 O2B       184.7820  183.3290   96.7390 O.co2     1 ADP501      0.0000 
      4 O3B       182.9950  181.9720   95.5900 O.co2     1 ADP501      0.0000 
      5 PA        183.5680  184.8610   94.3780 P.3       1 ADP501      0.0000 
      6 O1A       182.1110  184.5440   94.5870 O.co2     1 ADP501      0.0000 
      7 O2A       184.3110  185.7700   95.3220 O.co2     1 ADP501      0.0000 
      8 O3A       184.3920  183.4880   94.2990 O.3       1 ADP501      0.0000 
      9 O5'       183.7350  185.4770   92.9070 O.3       1 ADP501      0.0000 
     10 C5'       184.3410  186.7580   92.7840 C.3       1 ADP501      0.0000 
     11 C4'       183.5460  187.6320   91.8280 C.3       1 ADP501      0.0000 
     12 O4'       183.2470  186.9270   90.6300 O.3       1 ADP501      0.0000 
     13 C3'       182.2230  188.0430   92.4370 C.3       1 ADP501      0.0000 
     14 O3'       182.2410  189.4510   92.6600 O.3       1 ADP501      0.0000 
     15 C2'       181.1760  187.7390   91.3980 C.3       1 ADP501      0.0000 
     16 O2'       180.4690  188.9410   91.1080 O.3       1 ADP501      0.0000 
     17 C1'       181.9530  187.3110   90.1770 C.3       1 ADP501      0.0000 
     18 N9        181.3180  186.1510   89.5250 N.pl3     1 ADP501      0.0000 
     19 C8        181.5850  184.8690   89.8100 C.2       1 ADP501      0.0000 
     20 N7        180.8550  184.0360   89.0320 N.2       1 ADP501      0.0000 
     21 C5        180.1050  184.8020   88.2280 C.ar      1 ADP501      0.0000 
     22 C6        179.1150  184.5560   87.1700 C.ar      1 ADP501      0.0000 
     23 N6        178.7890  183.2960   86.8210 N.pl3     1 ADP501      0.0000 
     24 N1        178.5590  185.6240   86.5710 N.ar      1 ADP501      0.0000 
     25 C2        178.8910  186.8770   86.9200 C.ar      1 ADP501      0.0000 
     26 N3        179.7840  187.1730   87.8740 N.ar      1 ADP501      0.0000 
     27 C4        180.4130  186.1940   88.5530 C.ar      1 ADP501      0.0000 
@<TRIPOS>BOND
     1    1    2 ar   
     2    1    3 ar   
     3    1    4 ar   
     4    1    8 1    
     5    5    6 ar   
     6    5    7 ar   
     7    5    8 1    
     8    5    9 1    
     9    9   10 1    
    10   10   11 1    
    11   11   12 1    
    12   11   13 1    
    13   12   17 1    
    14   13   14 1    
    15   13   15 1    
    16   15   16 1    
    17   15   17 1    
    18   17   18 1    
    19   18   19 1    
    20   18   27 1    
    21   19   20 2    
    22   20   21 1    
    23   21   22 ar   
    24   21   27 ar   
    25   22   23 1    
    26   22   24 ar   
    27   24   25 ar   
    28   25   26 ar   
    29   26   27 ar   
@<TRIPOS>SUBSTRUCTURE
     1 ADP501      1 GROUP   
@<TRIPOS>SET
ATOM$ORANGE STATIC     ATOMS   COLORGROUP SYSTEM 
20 10 10 11 11 13 13 15 15 17 17 19 19 21 21 22 22 25 \
25 27 27 

