#    Name: 6fhs_4_ADP
#    Modification time : Fri May 22 19:29:55 2020

@<TRIPOS>MOLECULE
6fhs_4_ADP
   27    29     1     0     1
SMALL
NO_CHARGES


@<TRIPOS>ATOM
      1 PB        179.3050  154.8200  109.3780 P.3       1 ADP501      0.0000 
      2 O1B       180.4820  154.8730  108.4400 O.co2     1 ADP501      0.0000 
      3 O2B       178.9540  156.1410  110.0130 O.co2     1 ADP501      0.0000 
      4 O3B       179.3230  153.6590  110.3360 O.co2     1 ADP501      0.0000 
      5 PA        176.5560  154.5760  108.9670 P.3       1 ADP501      0.0000 
      6 O1A       176.1970  156.0340  109.0700 O.co2     1 ADP501      0.0000 
      7 O2A       176.4050  153.6600  110.1550 O.co2     1 ADP501      0.0000 
      8 O3A       178.0630  154.4870  108.4190 O.3       1 ADP501      0.0000 
      9 O5'       175.7460  153.9660  107.7240 O.3       1 ADP501      0.0000 
     10 C5'       175.7170  154.7140  106.5150 C.3       1 ADP501      0.0000 
     11 C4'       174.3300  154.6870  105.9060 C.3       1 ADP501      0.0000 
     12 O4'       174.1150  153.4600  105.2190 O.3       1 ADP501      0.0000 
     13 C3'       173.2900  154.8050  106.9950 C.3       1 ADP501      0.0000 
     14 O3'       172.4800  155.9510  106.7350 O.3       1 ADP501      0.0000 
     15 C2'       172.4460  153.5560  106.9030 C.3       1 ADP501      0.0000 
     16 O2'       171.0720  153.9060  106.7410 O.3       1 ADP501      0.0000 
     17 C1'       172.9220  152.8250  105.6670 C.3       1 ADP501      0.0000 
     18 N9        173.2730  151.4420  106.0330 N.pl3     1 ADP501      0.0000 
     19 C8        174.5240  150.9610  106.0610 C.2       1 ADP501      0.0000 
     20 N7        174.5380  149.6590  106.4270 N.2       1 ADP501      0.0000 
     21 C5        173.2670  149.2940  106.6380 C.ar      1 ADP501      0.0000 
     22 C6        172.5880  148.0540  107.0440 C.ar      1 ADP501      0.0000 
     23 N6        173.3000  146.9320  107.2990 N.pl3     1 ADP501      0.0000 
     24 N1        171.2450  148.0840  107.1460 N.ar      1 ADP501      0.0000 
     25 C2        170.5400  149.2000  106.8920 C.ar      1 ADP501      0.0000 
     26 N3        171.0960  150.3620  106.5180 N.ar      1 ADP501      0.0000 
     27 C4        172.4340  150.4700  106.3740 C.ar      1 ADP501      0.0000 
@<TRIPOS>BOND
     1    1    2 ar   
     2    1    3 ar   
     3    1    4 ar   
     4    1    8 1    
     5    5    6 ar   
     6    5    7 ar   
     7    5    8 1    
     8    5    9 1    
     9    9   10 1    
    10   10   11 1    
    11   11   12 1    
    12   11   13 1    
    13   12   17 1    
    14   13   14 1    
    15   13   15 1    
    16   15   16 1    
    17   15   17 1    
    18   17   18 1    
    19   18   19 1    
    20   18   27 1    
    21   19   20 2    
    22   20   21 1    
    23   21   22 ar   
    24   21   27 ar   
    25   22   23 1    
    26   22   24 ar   
    27   24   25 ar   
    28   25   26 ar   
    29   26   27 ar   
@<TRIPOS>SUBSTRUCTURE
     1 ADP501      1 GROUP   
@<TRIPOS>SET
ATOM$ORANGE STATIC     ATOMS   COLORGROUP SYSTEM 
20 10 10 11 11 13 13 15 15 17 17 19 19 21 21 22 22 25 \
25 27 27 

