#    Name: 6fhs_5_ADP
#    Modification time : Fri May 22 19:30:07 2020

@<TRIPOS>MOLECULE
6fhs_5_ADP
   27    29     1     0     1
SMALL
NO_CHARGES


@<TRIPOS>ATOM
      1 PB        216.0070  168.1090  149.8360 P.3       1 ADP501      0.0000 
      2 O1B       216.2280  167.1670  148.6810 O.co2     1 ADP501      0.0000 
      3 O2B       214.6150  168.6750  149.9230 O.co2     1 ADP501      0.0000 
      4 O3B       217.1130  169.1050  150.0490 O.co2     1 ADP501      0.0000 
      5 PA        215.5340  167.7230  152.5430 P.3       1 ADP501      0.0000 
      6 O1A       214.0450  167.5030  152.5500 O.co2     1 ADP501      0.0000 
      7 O2A       216.0970  169.0990  152.7850 O.co2     1 ADP501      0.0000 
      8 O3A       216.1040  167.1890  151.1420 O.3       1 ADP501      0.0000 
      9 O5'       216.2130  166.6890  153.5650 O.3       1 ADP501      0.0000 
     10 C5'       216.0310  165.2930  153.3590 C.3       1 ADP501      0.0000 
     11 C4'       215.7900  164.6260  154.6970 C.3       1 ADP501      0.0000 
     12 O4'       217.0210  164.5160  155.3990 O.3       1 ADP501      0.0000 
     13 C3'       214.8550  165.4780  155.5270 C.3       1 ADP501      0.0000 
     14 O3'       213.6850  164.7260  155.8410 O.3       1 ADP501      0.0000 
     15 C2'       215.5940  165.7870  156.8020 C.3       1 ADP501      0.0000 
     16 O2'       214.8230  165.3010  157.8970 O.3       1 ADP501      0.0000 
     17 C1'       216.8880  165.0110  156.7260 C.3       1 ADP501      0.0000 
     18 N9        218.0330  165.9000  156.9940 N.pl3     1 ADP501      0.0000 
     19 C8        218.7860  166.4970  156.0630 C.2       1 ADP501      0.0000 
     20 N7        219.7670  167.2410  156.6260 N.2       1 ADP501      0.0000 
     21 C5        219.6420  167.1110  157.9510 C.ar      1 ADP501      0.0000 
     22 C6        220.3530  167.6260  159.1300 C.ar      1 ADP501      0.0000 
     23 N6        221.4150  168.4500  158.9910 N.pl3     1 ADP501      0.0000 
     24 N1        219.9030  167.2490  160.3420 N.ar      1 ADP501      0.0000 
     25 C2        218.8470  166.4300  160.4780 C.ar      1 ADP501      0.0000 
     26 N3        218.1540  165.9260  159.4520 N.ar      1 ADP501      0.0000 
     27 C4        218.5010  166.2270  158.1880 C.ar      1 ADP501      0.0000 
@<TRIPOS>BOND
     1    1    2 ar   
     2    1    3 ar   
     3    1    4 ar   
     4    1    8 1    
     5    5    6 ar   
     6    5    7 ar   
     7    5    8 1    
     8    5    9 1    
     9    9   10 1    
    10   10   11 1    
    11   11   12 1    
    12   11   13 1    
    13   12   17 1    
    14   13   14 1    
    15   13   15 1    
    16   15   16 1    
    17   15   17 1    
    18   17   18 1    
    19   18   19 1    
    20   18   27 1    
    21   19   20 2    
    22   20   21 1    
    23   21   22 ar   
    24   21   27 ar   
    25   22   23 1    
    26   22   24 ar   
    27   24   25 ar   
    28   25   26 ar   
    29   26   27 ar   
@<TRIPOS>SUBSTRUCTURE
     1 ADP501      1 GROUP   
@<TRIPOS>SET
ATOM$ORANGE STATIC     ATOMS   COLORGROUP SYSTEM 
20 10 10 11 11 13 13 15 15 17 17 19 19 21 21 22 22 25 \
25 27 27 

