#    Name: 6fhs_7_ATP
#    Modification time : Fri May 22 19:30:27 2020

@<TRIPOS>MOLECULE
6fhs_7_ATP
   31    33     1     0     1
SMALL
NO_CHARGES


@<TRIPOS>ATOM
      1 PG        180.0270  238.1660  202.8820 P.3       1 ATP801      0.0000 
      2 O1G       179.9960  239.3400  201.9400 O.co2     1 ATP801      0.0000 
      3 O2G       179.8850  238.5250  204.3350 O.co2     1 ATP801      0.0000 
      4 O3G       179.1820  236.9960  202.4510 O.co2     1 ATP801      0.0000 
      5 PB        182.7670  238.5100  203.2720 P.3       1 ATP801      0.0000 
      6 O1B       182.8130  239.7940  202.4860 O.co2     1 ATP801      0.0000 
      7 O2B       182.7500  238.5400  204.7760 O.co2     1 ATP801      0.0000 
      8 O3B       181.5300  237.6220  202.7660 O.3       1 ATP801      0.0000 
      9 PA        185.5010  238.0310  203.1420 P.3       1 ATP801      0.0000 
     10 O1A       185.8990  239.1830  202.2610 O.co2     1 ATP801      0.0000 
     11 O2A       185.6270  238.1800  204.6330 O.co2     1 ATP801      0.0000 
     12 O3A       183.9970  237.6010  202.8000 O.3       1 ATP801      0.0000 
     13 O5'       186.3000  236.7140  202.6890 O.3       1 ATP801      0.0000 
     14 C5'       187.0790  235.9730  203.6250 C.3       1 ATP801      0.0000 
     15 C4'       187.5920  234.7140  202.9430 C.3       1 ATP801      0.0000 
     16 O4'       188.6900  235.0500  202.1020 O.3       1 ATP801      0.0000 
     17 C3'       188.1000  233.6770  203.9270 C.3       1 ATP801      0.0000 
     18 O3'       187.3230  232.4910  203.7930 O.3       1 ATP801      0.0000 
     19 C2'       189.5050  233.3390  203.4940 C.3       1 ATP801      0.0000 
     20 O2'       189.6280  231.9250  203.3480 O.3       1 ATP801      0.0000 
     21 C1'       189.6540  234.0050  202.1440 C.3       1 ATP801      0.0000 
     22 N9        191.0120  234.5600  201.9860 N.pl3     1 ATP801      0.0000 
     23 C8        191.5040  235.6460  202.6030 C.2       1 ATP801      0.0000 
     24 N7        192.7880  235.8750  202.2290 N.2       1 ATP801      0.0000 
     25 C5        193.1270  234.9150  201.3510 C.ar      1 ATP801      0.0000 
     26 C6        194.3300  234.5580  200.5660 C.ar      1 ATP801      0.0000 
     27 N6        195.4620  235.2960  200.6440 N.pl3     1 ATP801      0.0000 
     28 N1        194.2590  233.4720  199.7690 N.ar      1 ATP801      0.0000 
     29 C2        193.1410  232.7300  199.6820 C.ar      1 ATP801      0.0000 
     30 N3        192.0160  232.9940  200.3630 N.ar      1 ATP801      0.0000 
     31 C4        191.9510  234.0510  201.1990 C.ar      1 ATP801      0.0000 
@<TRIPOS>BOND
     1    1    2 ar   
     2    1    3 ar   
     3    1    4 ar   
     4    1    8 1    
     5    5    6 ar   
     6    5    7 ar   
     7    5    8 1    
     8    5   12 1    
     9    9   10 ar   
    10    9   11 ar   
    11    9   12 1    
    12    9   13 1    
    13   13   14 1    
    14   14   15 1    
    15   15   16 1    
    16   15   17 1    
    17   16   21 1    
    18   17   18 1    
    19   17   19 1    
    20   19   20 1    
    21   19   21 1    
    22   21   22 1    
    23   22   23 1    
    24   22   31 1    
    25   23   24 2    
    26   24   25 1    
    27   25   26 ar   
    28   25   31 ar   
    29   26   27 1    
    30   26   28 ar   
    31   28   29 ar   
    32   29   30 ar   
    33   30   31 ar   
@<TRIPOS>SUBSTRUCTURE
     1 ATP801      1 GROUP   
@<TRIPOS>SET
ATOM$ORANGE STATIC     ATOMS   COLORGROUP SYSTEM 
20 14 14 15 15 17 17 19 19 21 21 23 23 25 25 26 26 29 \
29 31 31 

