#    Name: 6fhs_6_ADP
#    Modification time : Fri May 22 19:30:18 2020

@<TRIPOS>MOLECULE
6fhs_6_ADP
   27    29     1     0     1
SMALL
NO_CHARGES


@<TRIPOS>ATOM
      1 PB        205.3530  204.2130  108.2700 P.3       1 ADP501      0.0000 
      2 O1B       204.5470  203.9920  107.0220 O.co2     1 ADP501      0.0000 
      3 O2B       204.5670  204.0610  109.5460 O.co2     1 ADP501      0.0000 
      4 O3B       206.6930  203.5300  108.2790 O.co2     1 ADP501      0.0000 
      5 PA        204.6170  206.8890  108.5410 P.3       1 ADP501      0.0000 
      6 O1A       203.4140  206.6800  107.6610 O.co2     1 ADP501      0.0000 
      7 O2A       204.4280  206.9130  110.0320 O.co2     1 ADP501      0.0000 
      8 O3A       205.7170  205.7730  108.1980 O.3       1 ADP501      0.0000 
      9 O5'       205.4150  208.2240  108.1400 O.3       1 ADP501      0.0000 
     10 C5'       206.5750  208.5620  108.8970 C.3       1 ADP501      0.0000 
     11 C4'       206.6120  210.0450  109.2190 C.3       1 ADP501      0.0000 
     12 O4'       207.0050  210.7980  108.0790 O.3       1 ADP501      0.0000 
     13 C3'       205.2470  210.5330  109.6350 C.3       1 ADP501      0.0000 
     14 O3'       205.3340  211.0090  110.9740 O.3       1 ADP501      0.0000 
     15 C2'       204.9130  211.6900  108.7280 C.3       1 ADP501      0.0000 
     16 O2'       204.6370  212.8390  109.5230 O.3       1 ADP501      0.0000 
     17 C1'       206.1580  211.9290  107.9030 C.3       1 ADP501      0.0000 
     18 N9        205.8120  212.0060  106.4700 N.pl3     1 ADP501      0.0000 
     19 C8        205.6480  210.9480  105.6680 C.2       1 ADP501      0.0000 
     20 N7        205.3470  211.3270  104.4050 N.2       1 ADP501      0.0000 
     21 C5        205.3200  212.6650  104.3950 C.ar      1 ADP501      0.0000 
     22 C6        205.0640  213.7030  103.3820 C.ar      1 ADP501      0.0000 
     23 N6        204.7710  213.3640  102.1080 N.pl3     1 ADP501      0.0000 
     24 N1        205.1340  214.9900  103.7710 N.ar      1 ADP501      0.0000 
     25 C2        205.4260  215.3240  105.0410 C.ar      1 ADP501      0.0000 
     26 N3        205.6680  214.4320  106.0140 N.ar      1 ADP501      0.0000 
     27 C4        205.6290  213.1100  105.7560 C.ar      1 ADP501      0.0000 
@<TRIPOS>BOND
     1    1    2 ar   
     2    1    3 ar   
     3    1    4 ar   
     4    1    8 1    
     5    5    6 ar   
     6    5    7 ar   
     7    5    8 1    
     8    5    9 1    
     9    9   10 1    
    10   10   11 1    
    11   11   12 1    
    12   11   13 1    
    13   12   17 1    
    14   13   14 1    
    15   13   15 1    
    16   15   16 1    
    17   15   17 1    
    18   17   18 1    
    19   18   19 1    
    20   18   27 1    
    21   19   20 2    
    22   20   21 1    
    23   21   22 ar   
    24   21   27 ar   
    25   22   23 1    
    26   22   24 ar   
    27   24   25 ar   
    28   25   26 ar   
    29   26   27 ar   
@<TRIPOS>SUBSTRUCTURE
     1 ADP501      1 GROUP   
@<TRIPOS>SET
ATOM$ORANGE STATIC     ATOMS   COLORGROUP SYSTEM 
20 10 10 11 11 13 13 15 15 17 17 19 19 21 21 22 22 25 \
25 27 27 

