#    Name: 6fhs_2_ADP
#    Modification time : Fri May 22 19:29:31 2020

@<TRIPOS>MOLECULE
6fhs_2_ADP
   27    29     1     0     1
SMALL
NO_CHARGES


@<TRIPOS>ATOM
      1 PB        220.4470  195.9380  134.4600 P.3       1 ADP501      0.0000 
      2 O1B       221.1630  195.2300  133.3410 O.co2     1 ADP501      0.0000 
      3 O2B       219.5590  195.0340  135.2730 O.co2     1 ADP501      0.0000 
      4 O3B       219.8180  197.2510  134.0770 O.co2     1 ADP501      0.0000 
      5 PA        221.3190  197.4330  136.6150 P.3       1 ADP501      0.0000 
      6 O1A       221.3880  198.8030  135.9930 O.co2     1 ADP501      0.0000 
      7 O2A       220.0800  197.0120  137.3580 O.co2     1 ADP501      0.0000 
      8 O3A       221.6230  196.3450  135.4780 O.3       1 ADP501      0.0000 
      9 O5'       222.5440  197.3060  137.6380 O.3       1 ADP501      0.0000 
     10 C5'       222.3700  197.9740  138.8780 C.3       1 ADP501      0.0000 
     11 C4'       223.6110  197.9030  139.7450 C.3       1 ADP501      0.0000 
     12 O4'       224.7020  198.5360  139.0860 O.3       1 ADP501      0.0000 
     13 C3'       223.3490  198.6650  141.0260 C.3       1 ADP501      0.0000 
     14 O3'       223.6410  197.8190  142.1380 O.3       1 ADP501      0.0000 
     15 C2'       224.3090  199.8260  141.0170 C.3       1 ADP501      0.0000 
     16 O2'       224.9530  199.8910  142.2850 O.3       1 ADP501      0.0000 
     17 C1'       225.3290  199.4670  139.9630 C.3       1 ADP501      0.0000 
     18 N9        225.7580  200.6420  139.1770 N.pl3     1 ADP501      0.0000 
     19 C8        225.6060  200.7450  137.8540 C.2       1 ADP501      0.0000 
     20 N7        226.1040  201.9110  137.3890 N.2       1 ADP501      0.0000 
     21 C5        226.6060  202.5700  138.4370 C.ar      1 ADP501      0.0000 
     22 C6        227.2790  203.8620  138.6290 C.ar      1 ADP501      0.0000 
     23 N6        227.5160  204.6750  137.5790 N.pl3     1 ADP501      0.0000 
     24 N1        227.6510  204.1990  139.8760 N.ar      1 ADP501      0.0000 
     25 C2        227.4170  203.3850  140.9170 C.ar      1 ADP501      0.0000 
     26 N3        226.8060  202.1940  140.8140 N.ar      1 ADP501      0.0000 
     27 C4        226.3830  201.7330  139.6170 C.ar      1 ADP501      0.0000 
@<TRIPOS>BOND
     1    1    2 ar   
     2    1    3 ar   
     3    1    4 ar   
     4    1    8 1    
     5    5    6 ar   
     6    5    7 ar   
     7    5    8 1    
     8    5    9 1    
     9    9   10 1    
    10   10   11 1    
    11   11   12 1    
    12   11   13 1    
    13   12   17 1    
    14   13   14 1    
    15   13   15 1    
    16   15   16 1    
    17   15   17 1    
    18   17   18 1    
    19   18   19 1    
    20   18   27 1    
    21   19   20 2    
    22   20   21 1    
    23   21   22 ar   
    24   21   27 ar   
    25   22   23 1    
    26   22   24 ar   
    27   24   25 ar   
    28   25   26 ar   
    29   26   27 ar   
@<TRIPOS>SUBSTRUCTURE
     1 ADP501      1 GROUP   
@<TRIPOS>SET
ATOM$ORANGE STATIC     ATOMS   COLORGROUP SYSTEM 
20 10 10 11 11 13 13 15 15 17 17 19 19 21 21 22 22 25 \
25 27 27 

