#    Name: 6fhs_1_ADP
#    Modification time : Fri May 22 19:29:19 2020

@<TRIPOS>MOLECULE
6fhs_1_ADP
   27    29     1     0     1
SMALL
NO_CHARGES


@<TRIPOS>ATOM
      1 PB        195.6060  147.4330  136.8410 P.3       1 ADP501      0.0000 
      2 O1B       196.1360  147.5380  135.4390 O.co2     1 ADP501      0.0000 
      3 O2B       194.7150  148.5740  137.2490 O.co2     1 ADP501      0.0000 
      4 O3B       196.6200  147.0400  137.8790 O.co2     1 ADP501      0.0000 
      5 PA        193.3720  146.1060  137.7800 P.3       1 ADP501      0.0000 
      6 O1A       192.2900  146.9610  137.1790 O.co2     1 ADP501      0.0000 
      7 O2A       193.8520  146.3510  139.1840 O.co2     1 ADP501      0.0000 
      8 O3A       194.6290  146.1660  136.7910 O.3       1 ADP501      0.0000 
      9 O5'       192.9270  144.5790  137.6160 O.3       1 ADP501      0.0000 
     10 C5'       192.0590  144.2690  136.5360 C.3       1 ADP501      0.0000 
     11 C4'       191.4090  142.9280  136.7970 C.3       1 ADP501      0.0000 
     12 O4'       192.3840  141.9930  137.2410 O.3       1 ADP501      0.0000 
     13 C3'       190.3940  143.0600  137.9100 C.3       1 ADP501      0.0000 
     14 O3'       189.0800  142.8730  137.3850 O.3       1 ADP501      0.0000 
     15 C2'       190.7080  141.9620  138.8960 C.3       1 ADP501      0.0000 
     16 O2'       189.5600  141.1330  139.0540 O.3       1 ADP501      0.0000 
     17 C1'       191.8090  141.1610  138.2430 C.3       1 ADP501      0.0000 
     18 N9        192.8410  140.7810  139.2270 N.pl3     1 ADP501      0.0000 
     19 C8        194.0850  141.2760  139.2810 C.2       1 ADP501      0.0000 
     20 N7        194.7900  140.7080  140.2870 N.2       1 ADP501      0.0000 
     21 C5        193.9800  139.8270  140.8880 C.ar      1 ADP501      0.0000 
     22 C6        194.1020  138.8900  142.0130 C.ar      1 ADP501      0.0000 
     23 N6        195.2580  138.7970  142.7000 N.pl3     1 ADP501      0.0000 
     24 N1        193.0290  138.1410  142.3250 N.ar      1 ADP501      0.0000 
     25 C2        191.8790  138.2340  141.6390 C.ar      1 ADP501      0.0000 
     26 N3        191.7020  139.0650  140.6020 N.ar      1 ADP501      0.0000 
     27 C4        192.7010  139.8700  140.1840 C.ar      1 ADP501      0.0000 
@<TRIPOS>BOND
     1    1    2 ar   
     2    1    3 ar   
     3    1    4 ar   
     4    1    8 1    
     5    5    6 ar   
     6    5    7 ar   
     7    5    8 1    
     8    5    9 1    
     9    9   10 1    
    10   10   11 1    
    11   11   12 1    
    12   11   13 1    
    13   12   17 1    
    14   13   14 1    
    15   13   15 1    
    16   15   16 1    
    17   15   17 1    
    18   17   18 1    
    19   18   19 1    
    20   18   27 1    
    21   19   20 2    
    22   20   21 1    
    23   21   22 ar   
    24   21   27 ar   
    25   22   23 1    
    26   22   24 ar   
    27   24   25 ar   
    28   25   26 ar   
    29   26   27 ar   
@<TRIPOS>SUBSTRUCTURE
     1 ADP501      1 GROUP   
@<TRIPOS>SET
ATOM$ORANGE STATIC     ATOMS   COLORGROUP SYSTEM 
20 10 10 11 11 13 13 15 15 17 17 19 19 21 21 22 22 25 \
25 27 27 

