#    Name: 6deb_2_MTX
#    Modification time : Fri May 22 19:26:25 2020

@<TRIPOS>MOLECULE
6deb_2_MTX
   33    35     1     0     0
SMALL
NO_CHARGES


@<TRIPOS>ATOM
      1 N1        -24.7660   -6.7650  -21.5370 N.ar      1 MTX302      0.0000 
      2 C2        -25.6120   -7.7770  -21.8530 C.ar      1 MTX302      0.0000 
      3 NA2       -25.3450   -9.0150  -21.3820 N.pl3     1 MTX302      0.0000 
      4 N3        -26.7030   -7.5750  -22.6510 N.ar      1 MTX302      0.0000 
      5 C4        -26.9690   -6.3220  -23.1110 C.ar      1 MTX302      0.0000 
      6 NA4       -28.0520   -6.0760  -23.8940 N.pl3     1 MTX302      0.0000 
      7 C4A       -26.1060   -5.2730  -22.7760 C.ar      1 MTX302      0.0000 
      8 N5        -26.3520   -4.0260  -23.2290 N.ar      1 MTX302      0.0000 
      9 C6        -25.5010   -3.0080  -22.9170 C.ar      1 MTX302      0.0000 
     10 C7        -24.3870   -3.2520  -22.1110 C.ar      1 MTX302      0.0000 
     11 N8        -24.1320   -4.4900  -21.6510 N.ar      1 MTX302      0.0000 
     12 C8A       -24.9810   -5.5090  -21.9760 C.ar      1 MTX302      0.0000 
     13 C9        -25.8400   -1.6290  -23.4480 C.3       1 MTX302      0.0000 
     14 N10       -26.3110   -0.7170  -22.3990 N.pl3     1 MTX302      0.0000 
     15 CM        -25.4090    0.3840  -22.0790 C.3       1 MTX302      0.0000 
     16 C11       -29.9740   -1.1070  -20.2270 C.ar      1 MTX302      0.0000 
     17 C12       -29.5730   -2.0770  -21.1480 C.ar      1 MTX302      0.0000 
     18 C13       -28.3830   -1.9510  -21.8740 C.ar      1 MTX302      0.0000 
     19 C14       -27.5380   -0.8560  -21.6890 C.ar      1 MTX302      0.0000 
     20 C15       -27.9380    0.1120  -20.7620 C.ar      1 MTX302      0.0000 
     21 C16       -29.1400    0.0020  -20.0550 C.ar      1 MTX302      0.0000 
     22 C         -31.2710   -1.2860  -19.4530 C.2       1 MTX302      0.0000 
     23 O         -31.4190   -0.7620  -18.3460 O.2       1 MTX302      0.0000 
     24 N         -32.2210   -2.0440  -20.0110 N.am      1 MTX302      0.0000 
     25 CA        -33.2300   -2.8600  -19.3130 C.3       1 MTX302      0.0000 
     26 CT        -34.4130   -2.0710  -18.8240 C.2       1 MTX302      0.0000 
     27 O1        -35.1310   -1.4580  -19.6060 O.co2     1 MTX302      0.0000 
     28 O2        -34.6840   -2.0510  -17.5170 O.co2     1 MTX302      0.0000 
     29 CB        -32.7110   -3.6900  -18.1350 C.3       1 MTX302      0.0000 
     30 CG        -32.0020   -4.9850  -18.5410 C.3       1 MTX302      0.0000 
     31 CD        -32.5560   -5.6580  -19.7810 C.2       1 MTX302      0.0000 
     32 OE1       -33.3930   -6.5430  -19.6780 O.co2     1 MTX302      0.0000 
     33 OE2       -32.1240   -5.3120  -21.0000 O.co2     1 MTX302      0.0000 
@<TRIPOS>BOND
     1    1    2 ar   
     2    1   12 ar   
     3    2    3 1    
     4    2    4 ar   
     5    4    5 ar   
     6    5    6 1    
     7    5    7 ar   
     8    7    8 ar   
     9    7   12 ar   
    10    8    9 ar   
    11    9   10 ar   
    12    9   13 1    
    13   10   11 ar   
    14   11   12 ar   
    15   13   14 1    
    16   14   15 1    
    17   14   19 1    
    18   16   17 ar   
    19   16   21 ar   
    20   16   22 1    
    21   17   18 ar   
    22   18   19 ar   
    23   19   20 ar   
    24   20   21 ar   
    25   22   23 2    
    26   22   24 am   
    27   24   25 1    
    28   25   26 1    
    29   25   29 1    
    30   26   27 ar   
    31   26   28 ar   
    32   29   30 1    
    33   30   31 1    
    34   31   32 ar   
    35   31   33 ar   
@<TRIPOS>SUBSTRUCTURE
     1 MTX302      1 GROUP   
@<TRIPOS>SET

