#    Name: 6deb_3_MTX
#    Modification time : Fri May 22 19:26:30 2020

@<TRIPOS>MOLECULE
6deb_3_MTX
   33    35     1     0     0
SMALL
NO_CHARGES


@<TRIPOS>ATOM
      1 N1        -36.1890    4.0350  -21.8960 N.ar      1 MTX303      0.0000 
      2 C2        -36.6950    3.9740  -23.1510 C.ar      1 MTX303      0.0000 
      3 NA2       -37.9740    4.3310  -23.4160 N.pl3     1 MTX303      0.0000 
      4 N3        -35.9330    3.5390  -24.1700 N.ar      1 MTX303      0.0000 
      5 C4        -34.6530    3.1720  -23.9840 C.ar      1 MTX303      0.0000 
      6 NA4       -33.9200    2.7590  -25.0220 N.pl3     1 MTX303      0.0000 
      7 C4A       -34.1100    3.2240  -22.7190 C.ar      1 MTX303      0.0000 
      8 N5        -32.8370    2.8610  -22.5060 N.ar      1 MTX303      0.0000 
      9 C6        -32.3430    2.9410  -21.2630 C.ar      1 MTX303      0.0000 
     10 C7        -33.1530    3.3800  -20.2270 C.ar      1 MTX303      0.0000 
     11 N8        -34.4090    3.7440  -20.4300 N.ar      1 MTX303      0.0000 
     12 C8A       -34.9120    3.6690  -21.6690 C.ar      1 MTX303      0.0000 
     13 C9        -30.9160    2.5450  -20.9960 C.3       1 MTX303      0.0000 
     14 N10       -30.0820    3.0100  -22.0860 N.pl3     1 MTX303      0.0000 
     15 CM        -29.7460    4.4170  -22.2150 C.3       1 MTX303      0.0000 
     16 C11       -28.8890    0.3510  -25.0480 C.ar      1 MTX303      0.0000 
     17 C12       -30.0030    0.1010  -24.2760 C.ar      1 MTX303      0.0000 
     18 C13       -30.3880    0.9740  -23.2790 C.ar      1 MTX303      0.0000 
     19 C14       -29.6470    2.1160  -23.0710 C.ar      1 MTX303      0.0000 
     20 C15       -28.5320    2.3800  -23.8720 C.ar      1 MTX303      0.0000 
     21 C16       -28.1340    1.4940  -24.8600 C.ar      1 MTX303      0.0000 
     22 C         -28.5370   -0.6560  -26.0830 C.2       1 MTX303      0.0000 
     23 O         -27.9290   -0.3080  -27.0530 O.2       1 MTX303      0.0000 
     24 N         -28.9290   -1.9010  -25.8570 N.am      1 MTX303      0.0000 
     25 CA        -29.0020   -3.0050  -26.7810 C.3       1 MTX303      0.0000 
     26 CT        -30.1640   -3.8690  -26.3760 C.2       1 MTX303      0.0000 
     27 O1        -30.7420   -4.5440  -27.1980 O.co2     1 MTX303      0.0000 
     28 O2        -30.5440   -3.9050  -25.0740 O.co2     1 MTX303      0.0000 
     29 CB        -27.8030   -3.9170  -26.6400 C.3       1 MTX303      0.0000 
     30 CG        -26.4490   -3.2330  -26.5560 C.3       1 MTX303      0.0000 
     31 CD        -25.3880   -4.2430  -26.1950 C.2       1 MTX303      0.0000 
     32 OE1       -24.3770   -3.8990  -25.5950 O.co2     1 MTX303      0.0000 
     33 OE2       -25.6010   -5.5030  -26.5400 O.co2     1 MTX303      0.0000 
@<TRIPOS>BOND
     1    1    2 ar   
     2    1   12 ar   
     3    2    3 1    
     4    2    4 ar   
     5    4    5 ar   
     6    5    6 1    
     7    5    7 ar   
     8    7    8 ar   
     9    7   12 ar   
    10    8    9 ar   
    11    9   10 ar   
    12    9   13 1    
    13   10   11 ar   
    14   11   12 ar   
    15   13   14 1    
    16   14   15 1    
    17   14   19 1    
    18   16   17 ar   
    19   16   21 ar   
    20   16   22 1    
    21   17   18 ar   
    22   18   19 ar   
    23   19   20 ar   
    24   20   21 ar   
    25   22   23 2    
    26   22   24 am   
    27   24   25 1    
    28   25   26 1    
    29   25   29 1    
    30   26   27 ar   
    31   26   28 ar   
    32   29   30 1    
    33   30   31 1    
    34   31   32 ar   
    35   31   33 ar   
@<TRIPOS>SUBSTRUCTURE
     1 MTX303      1 GROUP   
@<TRIPOS>SET

