#    Name: 6deb_2_MTX_CAVITY_N1_4
#    Modification time : Fri May 22 19:26:26 2020

@<TRIPOS>MOLECULE
6deb_2_MTX_CAVITY_N1_4
   61     0     7     0     0
SMALL
NO_CHARGES


@<TRIPOS>ATOM
      1 OG        -24.5000   -1.4600  -23.1400 O.3       1 SER1        0.0000 
      2 OG        -25.2600   -2.4400  -22.2900 O.3       1 SER1        0.0000 
      3 OG        -24.0200   -3.2800  -22.1600 O.3       1 SER1        0.0000 
      4 O         -26.8200   -5.5100  -27.2000 O.2       2 ALA2        0.0000 
      5 N         -30.4100   -5.0200  -24.5400 N.am      2 ALA2        0.0000 
      6 N         -28.4200   -4.8800  -25.2600 N.am      2 ALA2        0.0000 
      7 O         -26.4300   -4.7500  -25.9700 O.2       2 ALA2        0.0000 
      8 O         -27.1800   -5.7200  -25.1200 O.2       2 ALA2        0.0000 
      9 N         -27.9400   -6.7000  -24.2700 N.am      2 ALA2        0.0000 
     10 O         -26.7100   -7.5400  -24.1400 O.2       2 ALA2        0.0000 
     11 N         -25.4700   -8.3800  -24.0000 N.am      2 ALA2        0.0000 
     12 N         -28.7900   -5.0900  -23.1800 N.am      2 ALA2        0.0000 
     13 O         -26.3200   -6.7700  -22.9100 O.2       2 ALA2        0.0000 
     14 O         -27.0700   -7.7500  -22.0600 O.2       2 ALA2        0.0000 
     15 N         -25.8400   -8.5900  -21.9300 N.am      2 ALA2        0.0000 
     16 OD1       -24.4400   -4.6100  -26.6900 O.co2     3 ASP3        0.0000 
     17 OD1       -25.1900   -5.5900  -25.8400 O.co2     3 ASP3        0.0000 
     18 OD1       -25.9500   -6.5600  -24.9900 O.co2     3 ASP3        0.0000 
     19 OD1       -24.8000   -4.8200  -24.6100 O.co2     3 ASP3        0.0000 
     20 OD1       -25.5600   -5.7900  -23.7600 O.co2     3 ASP3        0.0000 
     21 OD1       -24.3200   -6.6300  -23.6300 O.co2     3 ASP3        0.0000 
     22 OD1       -25.0800   -7.6100  -22.7800 O.co2     3 ASP3        0.0000 
     23 NZ        -24.6900   -6.8400  -21.5500 N.4       4 LYS4        0.0000 
     24 NZ        -25.4500   -7.8200  -20.7000 N.4       4 LYS4        0.0000 
     25 CZ        -28.0500   -4.6700  -27.3400 C.ar      5 PHE5        0.0000 
     26 CZ        -26.9100   -2.9300  -26.9600 C.ar      5 PHE5        0.0000 
     27 CZ        -27.6600   -3.9000  -26.1100 C.ar      5 PHE5        0.0000 
     28 CZ        -25.5400   -5.2300  -20.4500 C.ar      5 PHE5        0.0000 
     29 CA        -26.9900   -0.3400  -26.7200 C.3       6 GLY6        0.0000 
     30 CA        -27.5500   -5.9300  -23.0400 C.3       6 GLY6        0.0000 
     31 CA        -28.4000   -4.3200  -21.9500 C.3       6 GLY6        0.0000 
     32 CA        -29.1500   -5.3000  -21.1000 C.3       6 GLY6        0.0000 
     33 CA        -24.1300   -1.2600  -25.2200 C.3       6 GLY6        0.0000 
     34 CA        -27.1600   -5.1600  -21.8200 C.3       6 GLY6        0.0000 
     35 CA        -27.9200   -6.1400  -20.9700 C.3       6 GLY6        0.0000 
     36 CA        -23.6600   -3.0700  -24.2400 C.3       6 GLY6        0.0000 
     37 CA        -24.4100   -4.0500  -23.3800 C.3       6 GLY6        0.0000 
     38 CA        -26.6800   -6.9800  -20.8300 C.3       6 GLY6        0.0000 
     39 CA        -29.2400   -2.7100  -20.8600 C.3       6 GLY6        0.0000 
     40 CA        -26.4900   -1.6000  -22.4300 C.3       6 GLY6        0.0000 
     41 CA        -27.2500   -2.5800  -21.5700 C.3       6 GLY6        0.0000 
     42 CA        -26.0200   -3.4200  -21.4400 C.3       6 GLY6        0.0000 
     43 CA        -26.7700   -4.3900  -20.5900 C.3       6 GLY6        0.0000 
     44 CA        -24.7800   -4.2600  -21.3100 C.3       6 GLY6        0.0000 
     45 CA        -26.1000   -0.8300  -21.2000 C.3       6 GLY6        0.0000 
     46 DU        -25.6700   -3.7700  -26.8300 H         7 CUB7        0.0000 
     47 DU        -25.7600   -1.1800  -26.5800 H         7 CUB7        0.0000 
     48 DU        -28.0300   -4.1100  -24.0300 H         7 CUB7        0.0000 
     49 DU        -24.5200   -2.0200  -26.4500 H         7 CUB7        0.0000 
     50 DU        -25.2800   -3.0000  -25.6000 H         7 CUB7        0.0000 
     51 DU        -26.0400   -3.9800  -24.7500 H         7 CUB7        0.0000 
     52 DU        -26.7900   -4.9500  -23.9000 H         7 CUB7        0.0000 
     53 DU        -25.3700   -0.4200  -25.3600 H         7 CUB7        0.0000 
     54 DU        -27.6400   -3.3400  -22.8000 H         7 CUB7        0.0000 
     55 DU        -24.8900   -2.2300  -24.3700 H         7 CUB7        0.0000 
     56 DU        -25.6500   -3.2100  -23.5200 H         7 CUB7        0.0000 
     57 DU        -26.4000   -4.1800  -22.6700 H         7 CUB7        0.0000 
     58 DU        -25.1700   -5.0300  -22.5300 H         7 CUB7        0.0000 
     59 DU        -25.9300   -6.0000  -21.6800 H         7 CUB7        0.0000 
     60 DU        -27.7300   -0.7600  -22.5600 H         7 CUB7        0.0000 
     61 DU        -25.7400   -0.6200  -23.2800 H         7 CUB7        0.0000 
@<TRIPOS>BOND
@<TRIPOS>SUBSTRUCTURE
     1 SER1        1 GROUP   
     2 ALA2        4 GROUP   
     3 ASP3       16 GROUP   
     4 LYS4       23 GROUP   
     5 PHE5       25 GROUP   
     6 GLY6       29 GROUP   
     7 CUB7       46 GROUP   
@<TRIPOS>SET

