#    Name: 6gnk_1_CNA_CAVITY_N1_ALL
#    Modification time : Fri May 22 19:28:50 2020

@<TRIPOS>MOLECULE
6gnk_1_CNA_CAVITY_N1_ALL
  145     0     7     0     0
SMALL
NO_CHARGES


@<TRIPOS>ATOM
      1 OG        110.3600   -0.6400    2.2000 O.3       1 SER1        0.0000 
      2 OG        111.2600    0.2000    3.0600 O.3       1 SER1        0.0000 
      3 OG        110.6900    3.5100    3.0200 O.3       1 SER1        0.0000 
      4 OG        112.2500    3.8100    6.3300 O.3       1 SER1        0.0000 
      5 OG        110.5600    4.8900    7.0300 O.3       1 SER1        0.0000 
      6 OG        111.5200    5.0400    5.8800 O.3       1 SER1        0.0000 
      7 N         108.5100   -1.6300    2.4800 N.am      2 ALA2        0.0000 
      8 N         111.0300   -1.1800    4.6500 N.am      2 ALA2        0.0000 
      9 N         113.6100   -1.4200    4.8200 N.am      2 ALA2        0.0000 
     10 N         111.9200   -0.3400    5.5100 N.am      2 ALA2        0.0000 
     11 N         106.5300    7.6000    5.9600 N.am      2 ALA2        0.0000 
     12 N         105.8000    8.8300    5.5100 N.am      2 ALA2        0.0000 
     13 N         106.7600    8.9800    4.3700 N.am      2 ALA2        0.0000 
     14 O         109.1100    7.3600    6.1300 O.2       2 ALA2        0.0000 
     15 N         116.2900    1.1100    7.4000 N.am      2 ALA2        0.0000 
     16 O         110.7300    6.9700    7.4400 O.2       2 ALA2        0.0000 
     17 N         115.7300    4.4200    7.3600 N.am      2 ALA2        0.0000 
     18 N         116.6900    4.5700    6.2200 N.am      2 ALA2        0.0000 
     19 N         111.3600   11.8100    4.6700 N.am      2 ALA2        0.0000 
     20 N         112.3200   11.9600    3.5200 N.am      2 ALA2        0.0000 
     21 N         110.6300   13.0400    4.2200 N.am      2 ALA2        0.0000 
     22 N         118.3100    4.1800    7.5300 N.am      2 ALA2        0.0000 
     23 N         117.5800    5.4100    7.0800 N.am      2 ALA2        0.0000 
     24 N         112.2500   12.6500    5.5300 N.am      2 ALA2        0.0000 
     25 N         110.5600   13.7300    6.2200 N.am      2 ALA2        0.0000 
     26 O         111.4600   14.5700    7.0800 O.2       2 ALA2        0.0000 
     27 O         110.7300   15.8100    6.6300 O.2       2 ALA2        0.0000 
     28 OD1       110.8600    5.5800    3.4300 O.co2     3 ASP3        0.0000 
     29 OD1       110.1300    6.8200    2.9800 O.co2     3 ASP3        0.0000 
     30 OD1       109.4000    8.0500    2.5300 O.co2     3 ASP3        0.0000 
     31 OD1       108.6700    9.2800    2.0800 O.co2     3 ASP3        0.0000 
     32 OD1       111.7500    6.4300    4.2900 O.co2     3 ASP3        0.0000 
     33 OD1       111.0300    7.6600    3.8400 O.co2     3 ASP3        0.0000 
     34 OD1       108.3800    8.5900    5.6800 O.co2     3 ASP3        0.0000 
     35 OD1       109.3400    8.7400    4.5400 O.co2     3 ASP3        0.0000 
     36 OD1       110.3000    8.8900    3.3900 O.co2     3 ASP3        0.0000 
     37 OD1       107.6500    9.8200    5.2300 O.co2     3 ASP3        0.0000 
     38 OD1       108.6100    9.9700    4.0900 O.co2     3 ASP3        0.0000 
     39 OD1       109.5700   10.1200    2.9400 O.co2     3 ASP3        0.0000 
     40 OD1       110.5300   10.2700    1.8000 O.co2     3 ASP3        0.0000 
     41 OD1       106.9200   11.0500    4.7800 O.co2     3 ASP3        0.0000 
     42 OD1       107.8800   11.2000    3.6400 O.co2     3 ASP3        0.0000 
     43 OD1       112.4200    5.8900    6.7400 O.co2     3 ASP3        0.0000 
     44 OD1       113.3800    6.0400    5.6000 O.co2     3 ASP3        0.0000 
     45 OD1       111.6900    7.1200    6.3000 O.co2     3 ASP3        0.0000 
     46 OD1       112.6500    7.2700    5.1500 O.co2     3 ASP3        0.0000 
     47 OD1       110.0000    8.2000    6.9900 O.co2     3 ASP3        0.0000 
     48 OD1       110.9600    8.3500    5.8500 O.co2     3 ASP3        0.0000 
     49 OD1       111.9200    8.5000    4.7000 O.co2     3 ASP3        0.0000 
     50 OD1       110.2300    9.5800    5.4000 O.co2     3 ASP3        0.0000 
     51 OD1       109.5000   10.8100    4.9500 O.co2     3 ASP3        0.0000 
     52 OD1       108.7800   12.0500    4.5000 O.co2     3 ASP3        0.0000 
     53 OD1       115.0000    5.6500    6.9100 O.co2     3 ASP3        0.0000 
     54 OD1       115.9600    5.8000    5.7700 O.co2     3 ASP3        0.0000 
     55 OD1       112.8100    9.3400    5.5600 O.co2     3 ASP3        0.0000 
     56 OD1       111.1300   10.4200    6.2600 O.co2     3 ASP3        0.0000 
     57 OD1       112.0900   10.5700    5.1100 O.co2     3 ASP3        0.0000 
     58 OD1       110.4000   11.6600    5.8100 O.co2     3 ASP3        0.0000 
     59 OD1       109.6700   12.8900    5.3600 O.co2     3 ASP3        0.0000 
     60 OD1       112.9800   11.4200    5.9800 O.co2     3 ASP3        0.0000 
     61 OD1       111.2900   12.5000    6.6700 O.co2     3 ASP3        0.0000 
     62 OD1       109.6000   13.5800    7.3600 O.co2     3 ASP3        0.0000 
     63 OD1       110.5000   14.4200    8.2200 O.co2     3 ASP3        0.0000 
     64 NZ        112.1900   13.3400    7.5300 N.4       4 LYS4        0.0000 
     65 CZ        110.2000   -2.7100    1.7800 C.ar      5 PHE5        0.0000 
     66 CZ        110.1300   -2.0200    3.7900 C.ar      5 PHE5        0.0000 
     67 CZ        109.4000   -0.7900    3.3400 C.ar      5 PHE5        0.0000 
     68 CZ        111.9900   -1.0300    3.5100 C.ar      5 PHE5        0.0000 
     69 CZ        112.9400   -0.8800    2.3600 C.ar      5 PHE5        0.0000 
     70 CZ        110.3000    0.0500    4.2000 C.ar      5 PHE5        0.0000 
     71 CZ        111.4900    1.5900    1.4600 C.ar      5 PHE5        0.0000 
     72 CZ        112.8800   -0.1900    4.3700 C.ar      5 PHE5        0.0000 
     73 CZ        110.2300    0.7400    6.2000 C.ar      5 PHE5        0.0000 
     74 CZ        111.1900    0.9000    5.0600 C.ar      5 PHE5        0.0000 
     75 CZ        112.1500    1.0500    3.9200 C.ar      5 PHE5        0.0000 
     76 CZ        110.4600    2.1300    4.6100 C.ar      5 PHE5        0.0000 
     77 CZ        111.4200    2.2800    3.4700 C.ar      5 PHE5        0.0000 
     78 CZ        111.6500    3.6600    1.8800 C.ar      5 PHE5        0.0000 
     79 CZ        112.6100    3.8100    0.7300 C.ar      5 PHE5        0.0000 
     80 CZ        109.9700    4.7400    2.5700 C.ar      5 PHE5        0.0000 
     81 CZ        113.7700    0.6600    5.2300 C.ar      5 PHE5        0.0000 
     82 CZ        111.1300    1.5900    7.0600 C.ar      5 PHE5        0.0000 
     83 CZ        113.0400    1.8900    4.7800 C.ar      5 PHE5        0.0000 
     84 CZ        110.4000    2.8200    6.6200 C.ar      5 PHE5        0.0000 
     85 CZ        111.3600    2.9700    5.4700 C.ar      5 PHE5        0.0000 
     86 CZ        112.3200    3.1200    4.3300 C.ar      5 PHE5        0.0000 
     87 CZ        110.6300    4.2000    5.0200 C.ar      5 PHE5        0.0000 
     88 CZ        111.5900    4.3500    3.8800 C.ar      5 PHE5        0.0000 
     89 CZ        112.5500    4.5000    2.7400 C.ar      5 PHE5        0.0000 
     90 CZ        109.9000    5.4300    4.5700 C.ar      5 PHE5        0.0000 
     91 CZ        108.2100    6.5200    5.2700 C.ar      5 PHE5        0.0000 
     92 CZ        109.1700    6.6700    4.1300 C.ar      5 PHE5        0.0000 
     93 CZ        114.6700    1.5000    6.0900 C.ar      5 PHE5        0.0000 
     94 CZ        113.9400    2.7300    5.6400 C.ar      5 PHE5        0.0000 
     95 CZ        113.2100    3.9600    5.1900 C.ar      5 PHE5        0.0000 
     96 CZ        112.4800    5.1900    4.7400 C.ar      5 PHE5        0.0000 
     97 CZ        113.4400    5.3400    3.6000 C.ar      5 PHE5        0.0000 
     98 CZ        109.8400    6.1300    6.5800 C.ar      5 PHE5        0.0000 
     99 CZ        117.2500    1.2600    6.2500 C.ar      5 PHE5        0.0000 
    100 CZ        116.5200    2.4900    5.8000 C.ar      5 PHE5        0.0000 
    101 CZ        115.7900    3.7200    5.3600 C.ar      5 PHE5        0.0000 
    102 CZ        115.0600    4.9500    4.9100 C.ar      5 PHE5        0.0000 
    103 CZ        118.3700    3.4800    5.5200 C.ar      5 PHE5        0.0000 
    104 CZ        117.6500    4.7200    5.0700 C.ar      5 PHE5        0.0000 
    105 CA        111.0900   -1.8700    2.6400 C.3       6 GLY6        0.0000 
    106 CA        112.0500   -1.7200    1.5000 C.3       6 GLY6        0.0000 
    107 CA        112.7100   -2.2600    3.9500 C.3       6 GLY6        0.0000 
    108 CA        106.5900    6.9000    3.9600 C.3       6 GLY6        0.0000 
    109 CA        111.8600    0.3600    7.5100 C.3       6 GLY6        0.0000 
    110 CA        107.4800    7.7500    4.8200 C.3       6 GLY6        0.0000 
    111 CA        115.4000    0.2700    6.5400 C.3       6 GLY6        0.0000 
    112 CA        113.7100    1.3500    7.2300 C.3       6 GLY6        0.0000 
    113 CA        112.9800    2.5800    6.7800 C.3       6 GLY6        0.0000 
    114 CA        107.4200    8.4400    6.8200 C.3       6 GLY6        0.0000 
    115 CA        115.5600    2.3400    6.9500 C.3       6 GLY6        0.0000 
    116 CA        114.8300    3.5700    6.5000 C.3       6 GLY6        0.0000 
    117 CA        114.1000    4.8000    6.0500 C.3       6 GLY6        0.0000 
    118 CA        118.1400    2.1000    7.1100 C.3       6 GLY6        0.0000 
    119 CA        116.4600    3.1800    7.8100 C.3       6 GLY6        0.0000 
    120 CA        117.4200    3.3300    6.6700 C.3       6 GLY6        0.0000 
    121 CA        113.0400   10.7300    3.9700 C.3       6 GLY6        0.0000 
    122 CA        107.9800   13.9700    6.0500 C.3       6 GLY6        0.0000 
    123 CA        108.8800   14.8100    6.9100 C.3       6 GLY6        0.0000 
    124 CA        110.7900   15.1100    4.6300 C.3       6 GLY6        0.0000 
    125 CA        107.1900   15.8900    7.6100 C.3       6 GLY6        0.0000 
    126 CA        108.1500   16.0400    6.4700 C.3       6 GLY6        0.0000 
    127 CA        108.8100   15.5000    8.9200 C.3       6 GLY6        0.0000 
    128 CA        109.7700   15.6600    7.7800 C.3       6 GLY6        0.0000 
    129 CA        108.0800   16.7400    8.4700 C.3       6 GLY6        0.0000 
    130 CA        111.3900   15.2700    9.0900 C.3       6 GLY6        0.0000 
    131 CA        110.6600   16.5000    8.6400 C.3       6 GLY6        0.0000 
    132 DU        112.8100    0.5100    6.3700 H         7 CUB7        0.0000 
    133 DU        112.0900    1.7400    5.9200 H         7 CUB7        0.0000 
    134 DU        108.4400    7.9000    3.6800 H         7 CUB7        0.0000 
    135 DU        107.7200    9.1300    3.2300 H         7 CUB7        0.0000 
    136 DU        110.7900    6.2800    5.4300 H         7 CUB7        0.0000 
    137 DU        110.0700    7.5100    4.9900 H         7 CUB7        0.0000 
    138 DU        108.8400   11.3500    2.4900 H         7 CUB7        0.0000 
    139 DU        111.1900    9.7300    4.2500 H         7 CUB7        0.0000 
    140 DU        112.1500    9.8800    3.1100 H         7 CUB7        0.0000 
    141 DU        110.4600   10.9600    3.8000 H         7 CUB7        0.0000 
    142 DU        111.4200   11.1100    2.6600 H         7 CUB7        0.0000 
    143 DU        109.7300   12.2000    3.3600 H         7 CUB7        0.0000 
    144 DU        108.9400   14.1200    4.9100 H         7 CUB7        0.0000 
    145 DU        109.8400   14.9600    5.7700 H         7 CUB7        0.0000 
@<TRIPOS>BOND
@<TRIPOS>SUBSTRUCTURE
     1 SER1        1 GROUP   
     2 ALA2        7 GROUP   
     3 ASP3       28 GROUP   
     4 LYS4       64 GROUP   
     5 PHE5       65 GROUP   
     6 GLY6      105 GROUP   
     7 CUB7      132 GROUP   
@<TRIPOS>SET

