#    Name: 6gnk_1_CNA
#    Modification time : Fri May 22 19:28:48 2020

@<TRIPOS>MOLECULE
6gnk_1_CNA
   44    48     1     0     0
SMALL
NO_CHARGES


@<TRIPOS>ATOM
      1 PA        110.4600    8.2530    6.0510 P.3       1 CNA501      0.0000 
      2 O1A       111.1340    8.8080    7.3080 O.co2     1 CNA501      0.0000 
      3 O2A       109.0510    8.3540    6.3770 O.co2     1 CNA501      0.0000 
      4 O5B       110.8800    8.9130    4.6740 O.3       1 CNA501      0.0000 
      5 C5B       110.2500    8.9050    3.3810 C.3       1 CNA501      0.0000 
      6 C4B       110.6410   10.2080    2.6220 C.3       1 CNA501      0.0000 
      7 O4B       109.9050   11.2900    3.1460 O.3       1 CNA501      0.0000 
      8 C3B       112.0980   10.6660    2.8550 C.3       1 CNA501      0.0000 
      9 O3B       112.8930   10.1170    1.9010 O.3       1 CNA501      0.0000 
     10 C2B       111.9590   12.1550    2.6280 C.3       1 CNA501      0.0000 
     11 O2B       111.7390   12.5060    1.3510 O.3       1 CNA501      0.0000 
     12 C1B       110.6860   12.4580    3.3480 C.3       1 CNA501      0.0000 
     13 N9A       110.8220   12.8980    4.7950 N.pl3     1 CNA501      0.0000 
     14 C8A       111.4160   12.2510    5.7840 C.2       1 CNA501      0.0000 
     15 N7A       111.3100   12.8960    6.9220 N.2       1 CNA501      0.0000 
     16 C5A       110.6730   14.0190    6.6690 C.ar      1 CNA501      0.0000 
     17 C6A       110.3240   15.0780    7.4930 C.ar      1 CNA501      0.0000 
     18 N6A       110.6340   15.0190    8.8400 N.pl3     1 CNA501      0.0000 
     19 N1A       109.6850   16.1490    6.9300 N.ar      1 CNA501      0.0000 
     20 C2A       109.3230   16.2740    5.4950 C.ar      1 CNA501      0.0000 
     21 N3A       109.7030   15.0760    4.7240 N.ar      1 CNA501      0.0000 
     22 C4A       110.3660   14.0350    5.3240 C.ar      1 CNA501      0.0000 
     23 O3        110.9090    6.7370    5.9320 O.3       1 CNA501      0.0000 
     24 PN        112.1460    5.8680    5.4460 P.3       1 CNA501      0.0000 
     25 O1N       112.2450    5.8640    3.8970 O.co2     1 CNA501      0.0000 
     26 O2N       113.4260    6.1720    6.1220 O.co2     1 CNA501      0.0000 
     27 O5D       111.7640    4.4330    6.0790 O.3       1 CNA501      0.0000 
     28 C5D       110.9310    3.5390    5.4130 C.3       1 CNA501      0.0000 
     29 C4D       111.3600    2.0240    5.3780 C.3       1 CNA501      0.0000 
     30 C4'       112.7820    1.8370    5.1290 C.3       1 CNA501      0.0000 
     31 C3D       111.0790    1.2400    6.6280 C.3       1 CNA501      0.0000 
     32 O3D       110.9780   -0.1090    6.0450 O.3       1 CNA501      0.0000 
     33 C2D       112.3260    1.4480    7.4210 C.3       1 CNA501      0.0000 
     34 O2D       112.5610    0.3030    8.2940 O.3       1 CNA501      0.0000 
     35 C1D       113.3560    1.4340    6.3860 C.3       1 CNA501      0.0000 
     36 N1N       114.6940    2.0380    6.4920 N.pl3     1 CNA501      0.0000 
     37 C2N       115.0140    3.3530    5.9930 C.ar      1 CNA501      0.0000 
     38 C3N       116.2970    3.8520    5.9800 C.ar      1 CNA501      0.0000 
     39 C7N       116.7280    5.1340    5.4540 C.2       1 CNA501      0.0000 
     40 O7N       117.8600    5.4030    5.4230 O.2       1 CNA501      0.0000 
     41 N7N       115.9670    6.0590    4.9640 N.am      1 CNA501      0.0000 
     42 C4N       117.2570    2.9680    6.5520 C.ar      1 CNA501      0.0000 
     43 C5N       116.9620    1.7320    7.1320 C.ar      1 CNA501      0.0000 
     44 C6N       115.6700    1.2410    7.0700 C.ar      1 CNA501      0.0000 
@<TRIPOS>BOND
     1    1    2 ar   
     2    1    3 ar   
     3    1    4 1    
     4    1   23 1    
     5    4    5 1    
     6    5    6 1    
     7    6    7 1    
     8    6    8 1    
     9    7   12 1    
    10    8    9 1    
    11    8   10 1    
    12   10   11 1    
    13   10   12 1    
    14   12   13 1    
    15   13   14 1    
    16   13   22 1    
    17   14   15 2    
    18   15   16 1    
    19   16   17 ar   
    20   16   22 ar   
    21   17   18 1    
    22   17   19 ar   
    23   19   20 ar   
    24   20   21 ar   
    25   21   22 ar   
    26   23   24 1    
    27   24   25 ar   
    28   24   26 ar   
    29   24   27 1    
    30   27   28 1    
    31   28   29 1    
    32   29   30 1    
    33   29   31 1    
    34   30   35 1    
    35   31   32 1    
    36   31   33 1    
    37   33   34 1    
    38   33   35 1    
    39   35   36 1    
    40   36   37 ar   
    41   36   44 ar   
    42   37   38 ar   
    43   38   39 1    
    44   38   42 ar   
    45   39   40 2    
    46   39   41 am   
    47   42   43 ar   
    48   43   44 ar   
@<TRIPOS>SUBSTRUCTURE
     1 CNA501      1 GROUP   
@<TRIPOS>SET

