#    Name: 5zqt_2_ANP
#    Modification time : Fri May 22 19:28:15 2020

@<TRIPOS>MOLECULE
5zqt_2_ANP
   31    33     1     0     1
SMALL
NO_CHARGES


@<TRIPOS>ATOM
      1 PG        -18.1950  -33.7850  -64.6670 P.3       1 ANP601      0.0000 
      2 O1G       -17.2490  -33.7850  -65.8620 O.co2     1 ANP601      0.0000 
      3 O2G       -18.1050  -35.1080  -63.9450 O.co2     1 ANP601      0.0000 
      4 O3G       -18.1800  -32.5070  -63.8450 O.co2     1 ANP601      0.0000 
      5 PB        -20.1200  -34.7010  -66.7060 P.3       1 ANP601      0.0000 
      6 O1B       -19.0870  -34.2030  -67.7520 O.co2     1 ANP601      0.0000 
      7 O2B       -20.1660  -36.1910  -66.3000 O.co2     1 ANP601      0.0000 
      8 N3B       -19.8290  -33.7830  -65.2560 N.3       1 ANP601      0.0000 
      9 PA        -21.7630  -33.6060  -68.7590 P.3       1 ANP601      0.0000 
     10 O1A       -21.3500  -34.5810  -69.8550 O.co2     1 ANP601      0.0000 
     11 O2A       -21.0380  -32.2780  -68.5250 O.co2     1 ANP601      0.0000 
     12 O3A       -21.5950  -34.3240  -67.3090 O.3       1 ANP601      0.0000 
     13 O5'       -23.3830  -33.4600  -68.9500 O.3       1 ANP601      0.0000 
     14 C5'       -24.3130  -33.5100  -67.8590 C.3       1 ANP601      0.0000 
     15 C4'       -24.2710  -32.2400  -66.9920 C.3       1 ANP601      0.0000 
     16 O4'       -23.9070  -31.0900  -67.7730 O.3       1 ANP601      0.0000 
     17 C3'       -25.6300  -31.9440  -66.3520 C.3       1 ANP601      0.0000 
     18 O3'       -25.6040  -32.1400  -64.9310 O.3       1 ANP601      0.0000 
     19 C2'       -25.9310  -30.4930  -66.6810 C.3       1 ANP601      0.0000 
     20 O2'       -25.7550  -29.6740  -65.5240 O.3       1 ANP601      0.0000 
     21 C1'       -24.9330  -30.0860  -67.7550 C.3       1 ANP601      0.0000 
     22 N9        -25.6470  -29.9900  -69.0610 N.pl3     1 ANP601      0.0000 
     23 C8        -25.6920  -30.9370  -70.0300 C.2       1 ANP601      0.0000 
     24 N7        -26.4720  -30.5310  -71.0630 N.2       1 ANP601      0.0000 
     25 C5        -26.9430  -29.2990  -70.7610 C.ar      1 ANP601      0.0000 
     26 C6        -27.8260  -28.2880  -71.4100 C.ar      1 ANP601      0.0000 
     27 N6        -28.3450  -28.5300  -72.6340 N.pl3     1 ANP601      0.0000 
     28 N1        -28.0820  -27.1220  -70.7660 N.ar      1 ANP601      0.0000 
     29 C2        -27.5440  -26.8810  -69.5520 C.ar      1 ANP601      0.0000 
     30 N3        -26.7250  -27.7450  -68.9040 N.ar      1 ANP601      0.0000 
     31 C4        -26.3990  -28.9500  -69.4400 C.ar      1 ANP601      0.0000 
@<TRIPOS>BOND
     1    1    2 ar   
     2    1    3 ar   
     3    1    4 ar   
     4    1    8 1    
     5    5    6 ar   
     6    5    7 ar   
     7    5    8 1    
     8    5   12 1    
     9    9   10 ar   
    10    9   11 ar   
    11    9   12 1    
    12    9   13 1    
    13   13   14 1    
    14   14   15 1    
    15   15   16 1    
    16   15   17 1    
    17   16   21 1    
    18   17   18 1    
    19   17   19 1    
    20   19   20 1    
    21   19   21 1    
    22   21   22 1    
    23   22   23 1    
    24   22   31 1    
    25   23   24 2    
    26   24   25 1    
    27   25   26 ar   
    28   25   31 ar   
    29   26   27 1    
    30   26   28 ar   
    31   28   29 ar   
    32   29   30 ar   
    33   30   31 ar   
@<TRIPOS>SUBSTRUCTURE
     1 ANP601      1 GROUP   
@<TRIPOS>SET
ATOM$ORANGE STATIC     ATOMS   COLORGROUP SYSTEM 
20 14 14 15 15 17 17 19 19 21 21 23 23 25 25 26 26 29 \
29 31 31 

