#    Name: 5zqt_3_ANP
#    Modification time : Fri May 22 19:28:22 2020

@<TRIPOS>MOLECULE
5zqt_3_ANP
   31    33     1     0     1
SMALL
NO_CHARGES


@<TRIPOS>ATOM
      1 PG        -40.1200  -63.7430  -52.1210 P.3       1 ANP601      0.0000 
      2 O1G       -39.8930  -63.9800  -53.6060 O.co2     1 ANP601      0.0000 
      3 O2G       -40.2510  -64.9870  -51.2470 O.co2     1 ANP601      0.0000 
      4 O3G       -39.1760  -62.7440  -51.5040 O.co2     1 ANP601      0.0000 
      5 PB        -43.1160  -63.6720  -51.3610 P.3       1 ANP601      0.0000 
      6 O1B       -44.0290  -64.4060  -52.3400 O.co2     1 ANP601      0.0000 
      7 O2B       -42.6100  -64.4310  -50.1160 O.co2     1 ANP601      0.0000 
      8 N3B       -41.6980  -62.9720  -52.1550 N.3       1 ANP601      0.0000 
      9 PA        -45.4560  -62.3350  -50.3580 P.3       1 ANP601      0.0000 
     10 O1A       -46.0360  -63.7300  -50.5780 O.co2     1 ANP601      0.0000 
     11 O2A       -45.6030  -61.6400  -49.0120 O.co2     1 ANP601      0.0000 
     12 O3A       -43.8940  -62.3640  -50.7880 O.3       1 ANP601      0.0000 
     13 O5'       -46.0210  -61.2830  -51.4550 O.3       1 ANP601      0.0000 
     14 C5'       -46.1290  -61.6860  -52.8140 C.3       1 ANP601      0.0000 
     15 C4'       -45.5580  -60.6720  -53.7840 C.3       1 ANP601      0.0000 
     16 O4'       -46.3270  -60.8330  -54.9690 O.3       1 ANP601      0.0000 
     17 C3'       -45.6820  -59.2230  -53.3620 C.3       1 ANP601      0.0000 
     18 O3'       -44.3850  -58.6380  -53.3390 O.3       1 ANP601      0.0000 
     19 C2'       -46.5750  -58.5810  -54.4110 C.3       1 ANP601      0.0000 
     20 O2'       -45.8360  -57.8330  -55.3820 O.3       1 ANP601      0.0000 
     21 C1'       -47.2180  -59.7410  -55.1380 C.3       1 ANP601      0.0000 
     22 N9        -48.5740  -60.0170  -54.5880 N.pl3     1 ANP601      0.0000 
     23 C8        -48.9040  -60.3240  -53.3120 C.2       1 ANP601      0.0000 
     24 N7        -50.2540  -60.4450  -53.1960 N.2       1 ANP601      0.0000 
     25 C5        -50.8050  -60.1840  -54.3990 C.ar      1 ANP601      0.0000 
     26 C6        -52.1680  -60.0770  -54.9670 C.ar      1 ANP601      0.0000 
     27 N6        -53.2620  -60.3310  -54.2290 N.pl3     1 ANP601      0.0000 
     28 N1        -52.2910  -59.7570  -56.2650 N.ar      1 ANP601      0.0000 
     29 C2        -51.2180  -59.5210  -57.0430 C.ar      1 ANP601      0.0000 
     30 N3        -49.9610  -59.5780  -56.5920 N.ar      1 ANP601      0.0000 
     31 C4        -49.6930  -59.9020  -55.3100 C.ar      1 ANP601      0.0000 
@<TRIPOS>BOND
     1    1    2 ar   
     2    1    3 ar   
     3    1    4 ar   
     4    1    8 1    
     5    5    6 ar   
     6    5    7 ar   
     7    5    8 1    
     8    5   12 1    
     9    9   10 ar   
    10    9   11 ar   
    11    9   12 1    
    12    9   13 1    
    13   13   14 1    
    14   14   15 1    
    15   15   16 1    
    16   15   17 1    
    17   16   21 1    
    18   17   18 1    
    19   17   19 1    
    20   19   20 1    
    21   19   21 1    
    22   21   22 1    
    23   22   23 1    
    24   22   31 1    
    25   23   24 2    
    26   24   25 1    
    27   25   26 ar   
    28   25   31 ar   
    29   26   27 1    
    30   26   28 ar   
    31   28   29 ar   
    32   29   30 ar   
    33   30   31 ar   
@<TRIPOS>SUBSTRUCTURE
     1 ANP601      1 GROUP   
@<TRIPOS>SET
ATOM$ORANGE STATIC     ATOMS   COLORGROUP SYSTEM 
20 14 14 15 15 17 17 19 19 21 21 23 23 25 25 26 26 29 \
29 31 31 

