#    Name: 5zqt_1_ANP
#    Modification time : Fri May 22 19:28:07 2020

@<TRIPOS>MOLECULE
5zqt_1_ANP
   31    33     1     0     1
SMALL
NO_CHARGES


@<TRIPOS>ATOM
      1 PG        -32.4270  -34.1560  -28.3140 P.3       1 ANP601      0.0000 
      2 O1G       -32.8760  -35.5930  -28.4610 O.co2     1 ANP601      0.0000 
      3 O2G       -33.5230  -33.3190  -27.6680 O.co2     1 ANP601      0.0000 
      4 O3G       -31.0130  -33.9110  -27.7840 O.co2     1 ANP601      0.0000 
      5 PB        -32.0330  -31.7750  -29.9570 P.3       1 ANP601      0.0000 
      6 O1B       -31.9410  -31.3720  -31.4140 O.co2     1 ANP601      0.0000 
      7 O2B       -30.8770  -31.4400  -29.0020 O.co2     1 ANP601      0.0000 
      8 N3B       -32.3310  -33.4850  -29.9120 N.3       1 ANP601      0.0000 
      9 PA        -33.7490  -29.6530  -28.9870 P.3       1 ANP601      0.0000 
     10 O1A       -32.4800  -28.9020  -28.6600 O.co2     1 ANP601      0.0000 
     11 O2A       -34.8540  -29.7760  -27.9640 O.co2     1 ANP601      0.0000 
     12 O3A       -33.4160  -31.2020  -29.3300 O.3       1 ANP601      0.0000 
     13 O5'       -34.2850  -29.1060  -30.4360 O.3       1 ANP601      0.0000 
     14 C5'       -35.6570  -28.8840  -30.8320 C.3       1 ANP601      0.0000 
     15 C4'       -36.5560  -30.1400  -30.8980 C.3       1 ANP601      0.0000 
     16 O4'       -37.6920  -29.9640  -30.0390 O.3       1 ANP601      0.0000 
     17 C3'       -37.1180  -30.3920  -32.2940 C.3       1 ANP601      0.0000 
     18 O3'       -36.7010  -31.6600  -32.8050 O.3       1 ANP601      0.0000 
     19 C2'       -38.6280  -30.3350  -32.1730 C.3       1 ANP601      0.0000 
     20 O2'       -39.1870  -31.6250  -32.3760 O.3       1 ANP601      0.0000 
     21 C1'       -38.9160  -29.8650  -30.7630 C.3       1 ANP601      0.0000 
     22 N9        -39.4240  -28.4660  -30.8330 N.pl3     1 ANP601      0.0000 
     23 C8        -38.6920  -27.3710  -31.1040 C.2       1 ANP601      0.0000 
     24 N7        -39.4790  -26.2680  -31.1320 N.2       1 ANP601      0.0000 
     25 C5        -40.7420  -26.6470  -30.9140 C.ar      1 ANP601      0.0000 
     26 C6        -42.0640  -25.9920  -30.8780 C.ar      1 ANP601      0.0000 
     27 N6        -42.1820  -24.6680  -31.0210 N.pl3     1 ANP601      0.0000 
     28 N1        -43.1520  -26.7420  -30.6350 N.ar      1 ANP601      0.0000 
     29 C2        -43.0530  -28.0680  -30.3990 C.ar      1 ANP601      0.0000 
     30 N3        -41.8820  -28.7320  -30.4510 N.ar      1 ANP601      0.0000 
     31 C4        -40.7050  -28.0940  -30.7060 C.ar      1 ANP601      0.0000 
@<TRIPOS>BOND
     1    1    2 ar   
     2    1    3 ar   
     3    1    4 ar   
     4    1    8 1    
     5    5    6 ar   
     6    5    7 ar   
     7    5    8 1    
     8    5   12 1    
     9    9   10 ar   
    10    9   11 ar   
    11    9   12 1    
    12    9   13 1    
    13   13   14 1    
    14   14   15 1    
    15   15   16 1    
    16   15   17 1    
    17   16   21 1    
    18   17   18 1    
    19   17   19 1    
    20   19   20 1    
    21   19   21 1    
    22   21   22 1    
    23   22   23 1    
    24   22   31 1    
    25   23   24 2    
    26   24   25 1    
    27   25   26 ar   
    28   25   31 ar   
    29   26   27 1    
    30   26   28 ar   
    31   28   29 ar   
    32   29   30 ar   
    33   30   31 ar   
@<TRIPOS>SUBSTRUCTURE
     1 ANP601      1 GROUP   
@<TRIPOS>SET
ATOM$ORANGE STATIC     ATOMS   COLORGROUP SYSTEM 
20 14 14 15 15 17 17 19 19 21 21 23 23 25 25 26 26 29 \
29 31 31 

