#    Name: 6c1r_1_PHE_PRO_TRP_ARG_ACE_ORN_ZAL
#    Modification time : Fri May 22 19:33:37 2020

@<TRIPOS>MOLECULE
6c1r_1_PHE_PRO_TRP_ARG_ACE_ORN_ZAL
   65    70     7     0     0
SMALL
NO_CHARGES


@<TRIPOS>ATOM
      1 N           1.9690    2.1370  -13.4610 N.am      1 PHE1        0.0000 
      2 CA          0.8530    1.6160  -14.2340 C.3       1 PHE1        0.0000 
      3 C           0.0170    2.7580  -14.7900 C.2       1 PHE1        0.0000 
      4 O          -0.1510    3.7890  -14.1430 O.2       1 PHE1        0.0000 
      5 CB         -0.0400    0.6950  -13.3990 C.3       1 PHE1        0.0000 
      6 CG         -1.2940    0.2880  -14.1100 C.ar      1 PHE1        0.0000 
      7 CD1        -1.2690   -0.7120  -15.0710 C.ar      1 PHE1        0.0000 
      8 CD2        -2.4900    0.9350  -13.8570 C.ar      1 PHE1        0.0000 
      9 CE1        -2.4130   -1.0710  -15.7410 C.ar      1 PHE1        0.0000 
     10 CE2        -3.6380    0.5770  -14.5280 C.ar      1 PHE1        0.0000 
     11 CZ         -3.6000   -0.4290  -15.4680 C.ar      1 PHE1        0.0000 
     12 N          -3.6030    3.1130  -17.3680 N.am      2 PRO3        0.0000 
     13 CA         -4.6460    2.5390  -18.2310 C.3       2 PRO3        0.0000 
     14 C          -4.5650    3.0470  -19.6690 C.2       2 PRO3        0.0000 
     15 O          -4.1030    4.1650  -19.8890 O.2       2 PRO3        0.0000 
     16 CB         -5.9520    2.9970  -17.5650 C.3       2 PRO3        0.0000 
     17 CG         -5.5760    4.1850  -16.7420 C.3       2 PRO3        0.0000 
     18 CD         -4.1730    3.9190  -16.2720 C.3       2 PRO3        0.0000 
     19 N          -3.1440    3.5170  -23.2490 N.am      3 TRP5        0.0000 
     20 CA         -1.9270    3.4260  -24.0510 C.3       3 TRP5        0.0000 
     21 C          -0.7270    4.1200  -23.4090 C.2       3 TRP5        0.0000 
     22 O           0.3950    3.6310  -23.4930 O.2       3 TRP5        0.0000 
     23 CB         -2.1890    3.9990  -25.4490 C.3       3 TRP5        0.0000 
     24 CG         -3.1400    3.1480  -26.2470 C.2       3 TRP5        0.0000 
     25 CD1        -2.8140    2.0970  -27.0530 C.2       3 TRP5        0.0000 
     26 CD2        -4.5670    3.2630  -26.2980 C.ar      3 TRP5        0.0000 
     27 NE1        -3.9460    1.5520  -27.6050 N.pl3     3 TRP5        0.0000 
     28 CE2        -5.0370    2.2490  -27.1610 C.ar      3 TRP5        0.0000 
     29 CE3        -5.4950    4.1250  -25.7030 C.ar      3 TRP5        0.0000 
     30 CZ2        -6.3880    2.0750  -27.4460 C.ar      3 TRP5        0.0000 
     31 CZ3        -6.8340    3.9520  -25.9850 C.ar      3 TRP5        0.0000 
     32 CH2        -7.2700    2.9320  -26.8500 C.ar      3 TRP5        0.0000 
     33 N          -0.9600    5.2650  -22.7800 N.am      4 ARG6        0.0000 
     34 CA          0.1100    5.9640  -22.0760 C.3       4 ARG6        0.0000 
     35 C          -0.3760    6.4990  -20.7330 C.2       4 ARG6        0.0000 
     36 O          -1.4800    7.0400  -20.6270 O.2       4 ARG6        0.0000 
     37 CB          0.6750    7.1140  -22.9250 C.3       4 ARG6        0.0000 
     38 CG          1.5550    6.6780  -24.1010 C.3       4 ARG6        0.0000 
     39 CD          0.7280    6.4590  -25.3670 C.3       4 ARG6        0.0000 
     40 NE         -0.1700    7.5880  -25.6180 N.pl3     4 ARG6        0.0000 
     41 CZ          0.1330    8.6350  -26.3820 C.cat     4 ARG6        0.0000 
     42 NH1        -0.7450    9.6160  -26.5420 N.pl3     4 ARG6        0.0000 
     43 NH2         1.3110    8.6960  -26.9930 N.pl3     4 ARG6        0.0000 
     44 C           3.0090    2.6650  -14.0950 C.2       5 ACE0        0.0000 
     45 O           3.1100    2.6230  -15.3200 O.2       5 ACE0        0.0000 
     46 CH3         4.0580    3.2860  -13.2220 C.3       5 ACE0        0.0000 
     47 N          -0.5320    2.5490  -15.9790 N.am      6 ORN2        0.0000 
     48 CA         -1.3050    3.5760  -16.6530 C.3       6 ORN2        0.0000 
     49 CB         -0.3510    4.4980  -17.4140 C.3       6 ORN2        0.0000 
     50 CG         -0.8940    5.8790  -17.7020 C.3       6 ORN2        0.0000 
     51 CD          0.1200    6.8040  -18.3660 C.3       6 ORN2        0.0000 
     52 NE          0.4650    6.3590  -19.7150 N.4       6 ORN2        0.0000 
     53 C          -2.2970    2.9220  -17.6130 C.2       6 ORN2        0.0000 
     54 O          -1.8920    2.2520  -18.5640 O.2       6 ORN2        0.0000 
     55 C1         -7.3280    1.6740  -22.2660 C.3       7 ZAL4        0.0000 
     56 C2         -7.8440    3.1080  -22.2030 C.3       7 ZAL4        0.0000 
     57 C3         -9.3440    3.2630  -22.0350 C.3       7 ZAL4        0.0000 
     58 C4        -10.1380    2.0280  -22.4170 C.3       7 ZAL4        0.0000 
     59 C5         -9.4920    1.2760  -23.5620 C.3       7 ZAL4        0.0000 
     60 C6         -8.1300    0.7460  -23.1720 C.3       7 ZAL4        0.0000 
     61 N          -5.0000    2.2330  -20.6260 N.4       7 ZAL4        0.0000 
     62 CA         -4.9960    2.6110  -21.9980 C.3       7 ZAL4        0.0000 
     63 CB         -5.8960    1.6950  -22.8010 C.3       7 ZAL4        0.0000 
     64 C          -3.6160    2.4670  -22.5890 C.2       7 ZAL4        0.0000 
     65 O          -2.9690    1.3930  -22.4500 O.co2     7 ZAL4        0.0000 
@<TRIPOS>BOND
     1    1    2 1    
     2    1   44 du   
     3    2    3 1    
     4    2    5 1    
     5    3    4 2    
     6    3   47 du   
     7    5    6 1    
     8    6    7 ar   
     9    6    8 ar   
    10    7    9 ar   
    11    8   10 ar   
    12    9   11 ar   
    13   10   11 ar   
    14   12   13 1    
    15   12   18 1    
    16   12   53 am   
    17   13   14 1    
    18   13   16 1    
    19   14   15 2    
    20   14   61 du   
    21   16   17 1    
    22   17   18 1    
    23   19   20 1    
    24   19   64 du   
    25   20   21 1    
    26   20   23 1    
    27   21   22 2    
    28   21   33 am   
    29   23   24 1    
    30   24   25 2    
    31   24   26 1    
    32   25   27 1    
    33   26   28 ar   
    34   26   29 ar   
    35   27   28 1    
    36   28   30 ar   
    37   29   31 ar   
    38   30   32 ar   
    39   31   32 ar   
    40   33   34 1    
    41   34   35 1    
    42   34   37 1    
    43   35   36 2    
    44   35   52 du   
    45   37   38 1    
    46   38   39 1    
    47   39   40 1    
    48   40   41 ar   
    49   41   42 ar   
    50   41   43 ar   
    51   44   45 2    
    52   44   46 1    
    53   47   48 1    
    54   48   49 1    
    55   48   53 1    
    56   49   50 1    
    57   50   51 1    
    58   51   52 1    
    59   53   54 2    
    60   55   56 1    
    61   55   60 1    
    62   55   63 1    
    63   56   57 1    
    64   57   58 1    
    65   58   59 1    
    66   59   60 1    
    67   61   62 1    
    68   62   63 1    
    69   62   64 1    
    70   64   65 ar   
@<TRIPOS>SUBSTRUCTURE
     1 PHE1        1 RESIDUE 
     2 PRO3       12 RESIDUE 
     3 TRP5       19 RESIDUE 
     4 ARG6       33 RESIDUE 
     5 ACE0       44 GROUP   
     6 ORN2       47 RESIDUE 
     7 ZAL4       55 GROUP   
@<TRIPOS>SET

