#    Name: 6bs3_3_ADP
#    Modification time : Fri May 22 19:34:16 2020

@<TRIPOS>MOLECULE
6bs3_3_ADP
   27    29     1     0     1
SMALL
NO_CHARGES


@<TRIPOS>ATOM
      1 PB         65.1860   45.7200   22.0360 P.3       1 ADP401      0.0000 
      2 O1B        64.5720   46.2970   20.8000 O.co2     1 ADP401      0.0000 
      3 O2B        64.2890   44.7560   22.7590 O.co2     1 ADP401      0.0000 
      4 O3B        66.4850   45.0810   21.6890 O.co2     1 ADP401      0.0000 
      5 PA         65.4980   47.3930   24.4530 P.3       1 ADP401      0.0000 
      6 O1A        64.0570   47.6960   24.7950 O.co2     1 ADP401      0.0000 
      7 O2A        66.0570   46.2820   25.2580 O.co2     1 ADP401      0.0000 
      8 O3A        65.5690   46.9930   22.9090 O.3       1 ADP401      0.0000 
      9 O5'        66.2850   48.7450   24.3900 O.3       1 ADP401      0.0000 
     10 C5'        67.6740   48.8200   24.0000 C.3       1 ADP401      0.0000 
     11 C4'        68.3380   49.8740   24.8480 C.3       1 ADP401      0.0000 
     12 O4'        67.8210   51.1720   24.4890 O.3       1 ADP401      0.0000 
     13 C3'        68.1380   49.7210   26.3580 C.3       1 ADP401      0.0000 
     14 O3'        69.3520   49.8120   27.0970 O.3       1 ADP401      0.0000 
     15 C2'        67.0910   50.7910   26.6940 C.3       1 ADP401      0.0000 
     16 O2'        67.2330   51.2850   28.0140 O.3       1 ADP401      0.0000 
     17 C1'        67.3980   51.8640   25.6530 C.3       1 ADP401      0.0000 
     18 N9         66.2530   52.7040   25.2980 N.pl3     1 ADP401      0.0000 
     19 C8         65.1050   52.2960   24.6690 C.2       1 ADP401      0.0000 
     20 N7         64.3010   53.2770   24.3360 N.2       1 ADP401      0.0000 
     21 C5         64.9570   54.4110   24.7900 C.ar      1 ADP401      0.0000 
     22 C6         64.6380   55.7860   24.7250 C.ar      1 ADP401      0.0000 
     23 N6         63.5620   56.2710   24.0940 N.pl3     1 ADP401      0.0000 
     24 N1         65.4990   56.6600   25.3010 N.ar      1 ADP401      0.0000 
     25 C2         66.5980   56.1830   25.9020 C.ar      1 ADP401      0.0000 
     26 N3         67.0120   54.9150   26.0080 N.ar      1 ADP401      0.0000 
     27 C4         66.1500   54.0710   25.4090 C.ar      1 ADP401      0.0000 
@<TRIPOS>BOND
     1    1    2 ar   
     2    1    3 ar   
     3    1    4 ar   
     4    1    8 1    
     5    5    6 ar   
     6    5    7 ar   
     7    5    8 1    
     8    5    9 1    
     9    9   10 1    
    10   10   11 1    
    11   11   12 1    
    12   11   13 1    
    13   12   17 1    
    14   13   14 1    
    15   13   15 1    
    16   15   16 1    
    17   15   17 1    
    18   17   18 1    
    19   18   19 1    
    20   18   27 1    
    21   19   20 2    
    22   20   21 1    
    23   21   22 ar   
    24   21   27 ar   
    25   22   23 1    
    26   22   24 ar   
    27   24   25 ar   
    28   25   26 ar   
    29   26   27 ar   
@<TRIPOS>SUBSTRUCTURE
     1 ADP401      1 GROUP   
@<TRIPOS>SET
ATOM$ORANGE STATIC     ATOMS   COLORGROUP SYSTEM 
20 10 10 11 11 13 13 15 15 17 17 19 19 21 21 22 22 25 \
25 27 27 

