#    Name: 6bs3_3_ADP_CAVITY_N1_4
#    Modification time : Fri May 22 19:34:17 2020

@<TRIPOS>MOLECULE
6bs3_3_ADP_CAVITY_N1_4
   98     0     6     0     0
SMALL
NO_CHARGES


@<TRIPOS>ATOM
      1 OG         66.0800   51.0300   24.3600 O.3       1 SER1        0.0000 
      2 OG         64.8300   51.8500   24.3700 O.3       1 SER1        0.0000 
      3 N          68.2900   43.4300   25.9700 N.am      2 ALA2        0.0000 
      4 O          68.9400   44.4800   21.6400 O.2       2 ALA2        0.0000 
      5 O          67.6800   45.3000   21.6500 O.2       2 ALA2        0.0000 
      6 N          67.8300   45.4600   26.3900 N.am      2 ALA2        0.0000 
      7 N          68.0100   48.5300   22.4800 N.am      2 ALA2        0.0000 
      8 O          66.7600   49.3500   22.4900 O.2       2 ALA2        0.0000 
      9 N          70.2800   49.2600   21.4400 N.am      2 ALA2        0.0000 
     10 N          68.8100   49.7400   22.8900 N.am      2 ALA2        0.0000 
     11 O          64.3600   53.8800   24.7900 O.2       2 ALA2        0.0000 
     12 N          68.2400   54.3000   27.0300 N.am      2 ALA2        0.0000 
     13 O          65.9500   56.2900   25.6100 O.2       2 ALA2        0.0000 
     14 N          69.0400   55.5000   27.4400 N.am      2 ALA2        0.0000 
     15 N          68.0000   56.6700   26.0100 N.am      2 ALA2        0.0000 
     16 N          69.8300   56.7100   27.8500 N.am      2 ALA2        0.0000 
     17 N          70.0500   57.0600   26.4100 N.am      2 ALA2        0.0000 
     18 OD1        67.4700   44.9500   23.0900 O.co2     3 ASP3        0.0000 
     19 OD1        66.2100   45.7700   23.1100 O.co2     3 ASP3        0.0000 
     20 OD1        67.3400   50.2100   24.3500 O.co2     3 ASP3        0.0000 
     21 OD1        67.5500   50.5600   22.9000 O.co2     3 ASP3        0.0000 
     22 OD1        66.3000   51.3800   22.9200 O.co2     3 ASP3        0.0000 
     23 OD1        69.3800   50.5900   24.7500 O.co2     3 ASP3        0.0000 
     24 OD1        69.6000   50.9400   23.3000 O.co2     3 ASP3        0.0000 
     25 OD1        69.8100   51.2900   21.8600 O.co2     3 ASP3        0.0000 
     26 OD1        68.1300   51.4100   24.7600 O.co2     3 ASP3        0.0000 
     27 OD1        66.8700   52.2400   24.7700 O.co2     3 ASP3        0.0000 
     28 OD1        65.6200   53.0600   24.7800 O.co2     3 ASP3        0.0000 
     29 OD1        70.1800   51.8000   25.1600 O.co2     3 ASP3        0.0000 
     30 OD1        68.9200   52.6200   25.1700 O.co2     3 ASP3        0.0000 
     31 OD1        67.6700   53.4400   25.1800 O.co2     3 ASP3        0.0000 
     32 OD1        66.4100   54.2600   25.1900 O.co2     3 ASP3        0.0000 
     33 OD1        70.9700   53.0000   25.5600 O.co2     3 ASP3        0.0000 
     34 OD1        69.7100   53.8200   25.5800 O.co2     3 ASP3        0.0000 
     35 OD1        68.4600   54.6500   25.5900 O.co2     3 ASP3        0.0000 
     36 OD1        67.2000   55.4700   25.6000 O.co2     3 ASP3        0.0000 
     37 OD1        70.5100   55.0300   25.9900 O.co2     3 ASP3        0.0000 
     38 OD1        69.2500   55.8500   26.0000 O.co2     3 ASP3        0.0000 
     39 OD1        70.2600   57.4100   24.9600 O.co2     3 ASP3        0.0000 
     40 NZ         71.3200   48.0900   22.8700 N.4       4 LYS4        0.0000 
     41 NZ         70.8500   50.1200   23.2900 N.4       4 LYS4        0.0000 
     42 NZ         69.1700   50.2400   26.1900 N.4       4 LYS4        0.0000 
     43 NZ         67.7000   50.7200   27.6400 N.4       4 LYS4        0.0000 
     44 NZ         67.9100   51.0600   26.2000 N.4       4 LYS4        0.0000 
     45 NZ         71.2200   50.6300   26.5900 N.4       4 LYS4        0.0000 
     46 NZ         71.6500   51.3200   23.7000 N.4       4 LYS4        0.0000 
     47 NZ         69.9600   51.4500   26.6000 N.4       4 LYS4        0.0000 
     48 NZ         68.7100   52.2700   26.6100 N.4       4 LYS4        0.0000 
     49 NZ         70.7500   52.6500   27.0100 N.4       4 LYS4        0.0000 
     50 NZ         69.5000   53.4800   27.0200 N.4       4 LYS4        0.0000 
     51 NZ         70.2900   54.6800   27.4300 N.4       4 LYS4        0.0000 
     52 CA         69.4000   42.4500   21.2200 C.3       5 GLY6        0.0000 
     53 CA         68.5100   43.7800   24.5300 C.3       5 GLY6        0.0000 
     54 CA         69.0800   44.6300   26.3800 C.3       5 GLY6        0.0000 
     55 CA         69.3000   44.9800   24.9400 C.3       5 GLY6        0.0000 
     56 CA         69.5200   45.3300   23.4900 C.3       5 GLY6        0.0000 
     57 CA         69.7300   45.6800   22.0500 C.3       5 GLY6        0.0000 
     58 CA         68.4800   46.5000   22.0600 C.3       5 GLY6        0.0000 
     59 CA         67.2200   47.3200   22.0700 C.3       5 GLY6        0.0000 
     60 CA         65.5300   47.4500   24.9700 C.3       5 GLY6        0.0000 
     61 CA         65.7500   47.8000   23.5300 C.3       5 GLY6        0.0000 
     62 CA         70.3100   46.5400   23.9000 C.3       5 GLY6        0.0000 
     63 CA         70.5200   46.8900   22.4600 C.3       5 GLY6        0.0000 
     64 CA         69.2700   47.7100   22.4700 C.3       5 GLY6        0.0000 
     65 CA         66.1100   48.3000   26.8200 C.3       5 GLY6        0.0000 
     66 CA         66.3300   48.6500   25.3800 C.3       5 GLY6        0.0000 
     67 CA         66.5400   49.0000   23.9400 C.3       5 GLY6        0.0000 
     68 CA         65.2900   49.8200   23.9500 C.3       5 GLY6        0.0000 
     69 CA         66.9100   49.5100   27.2300 C.3       5 GLY6        0.0000 
     70 CA         67.1200   49.8600   25.7900 C.3       5 GLY6        0.0000 
     71 CA         65.8700   50.6800   25.8000 C.3       5 GLY6        0.0000 
     72 CA         66.4400   51.5400   27.6500 C.3       5 GLY6        0.0000 
     73 CA         65.4000   52.7100   26.2200 C.3       5 GLY6        0.0000 
     74 CA         64.1500   53.5300   26.2300 C.3       5 GLY6        0.0000 
     75 CA         67.4500   53.0900   26.6200 C.3       5 GLY6        0.0000 
     76 CA         66.2000   53.9100   26.6300 C.3       5 GLY6        0.0000 
     77 CA         65.1600   55.0800   25.2000 C.3       5 GLY6        0.0000 
     78 CA         63.9000   55.9100   25.2100 C.3       5 GLY6        0.0000 
     79 CA         66.9900   55.1200   27.0400 C.3       5 GLY6        0.0000 
     80 CA         65.7300   55.9400   27.0500 C.3       5 GLY6        0.0000 
     81 DU         70.1900   43.6500   21.6300 H         6 CUB7        0.0000 
     82 DU         68.7200   44.1300   23.0800 H         6 CUB7        0.0000 
     83 DU         68.0400   45.8000   24.9500 H         6 CUB7        0.0000 
     84 DU         68.2600   46.1500   23.5000 H         6 CUB7        0.0000 
     85 DU         66.5700   46.2800   26.4000 H         6 CUB7        0.0000 
     86 DU         66.7900   46.6300   24.9600 H         6 CUB7        0.0000 
     87 DU         67.0100   46.9800   23.5200 H         6 CUB7        0.0000 
     88 DU         69.0500   47.3600   23.9100 H         6 CUB7        0.0000 
     89 DU         67.3700   47.4800   26.8100 H         6 CUB7        0.0000 
     90 DU         67.5800   47.8300   25.3700 H         6 CUB7        0.0000 
     91 DU         67.8000   48.1800   23.9300 H         6 CUB7        0.0000 
     92 DU         70.0600   48.9100   22.8800 H         6 CUB7        0.0000 
     93 DU         68.1600   48.6900   27.2200 H         6 CUB7        0.0000 
     94 DU         68.3800   49.0400   25.7800 H         6 CUB7        0.0000 
     95 DU         68.5900   49.3900   24.3400 H         6 CUB7        0.0000 
     96 DU         70.6400   49.7700   24.7300 H         6 CUB7        0.0000 
     97 DU         66.6600   51.8900   26.2100 H         6 CUB7        0.0000 
     98 DU         71.4300   50.9800   25.1400 H         6 CUB7        0.0000 
@<TRIPOS>BOND
@<TRIPOS>SUBSTRUCTURE
     1 SER1        1 GROUP   
     2 ALA2        3 GROUP   
     3 ASP3       18 GROUP   
     4 LYS4       40 GROUP   
     5 GLY6       52 GROUP   
     6 CUB7       81 GROUP   
@<TRIPOS>SET

