#    Name: 6bs3_2_ADP
#    Modification time : Fri May 22 19:34:06 2020

@<TRIPOS>MOLECULE
6bs3_2_ADP
   27    29     1     0     1
SMALL
NO_CHARGES


@<TRIPOS>ATOM
      1 PB         77.6640   42.7360   12.5850 P.3       1 ADP401      0.0000 
      2 O1B        78.2500   41.9050   11.4230 O.co2     1 ADP401      0.0000 
      3 O2B        76.1840   42.3410   12.7990 O.co2     1 ADP401      0.0000 
      4 O3B        78.4570   42.6560   13.8610 O.co2     1 ADP401      0.0000 
      5 PA         77.5690   45.0250   10.6950 P.3       1 ADP401      0.0000 
      6 O1A        76.5330   44.3700    9.7650 O.co2     1 ADP401      0.0000 
      7 O2A        78.9110   45.0770   10.0710 O.co2     1 ADP401      0.0000 
      8 O3A        77.6130   44.2440   12.0820 O.3       1 ADP401      0.0000 
      9 O5'        77.0560   46.4140   11.2640 O.3       1 ADP401      0.0000 
     10 C5'        75.7570   46.6890   11.8370 C.3       1 ADP401      0.0000 
     11 C4'        75.2270   47.9510   11.1960 C.3       1 ADP401      0.0000 
     12 O4'        76.0620   49.0650   11.5740 O.3       1 ADP401      0.0000 
     13 C3'        75.1800   47.9660    9.6660 C.3       1 ADP401      0.0000 
     14 O3'        74.0220   48.6610    9.2290 O.3       1 ADP401      0.0000 
     15 C2'        76.4740   48.6990    9.2870 C.3       1 ADP401      0.0000 
     16 O2'        76.4380   49.3140    8.0030 O.3       1 ADP401      0.0000 
     17 C1'        76.5840   49.7100   10.4260 C.3       1 ADP401      0.0000 
     18 N9         77.9410   50.1640   10.7300 N.pl3     1 ADP401      0.0000 
     19 C8         79.0260   49.3890   11.0550 C.2       1 ADP401      0.0000 
     20 N7         80.1030   50.0750   11.3550 N.2       1 ADP401      0.0000 
     21 C5         79.7020   51.3960   11.2120 C.ar      1 ADP401      0.0000 
     22 C6         80.3720   52.6240   11.4160 C.ar      1 ADP401      0.0000 
     23 N6         81.6530   52.7230   11.7760 N.pl3     1 ADP401      0.0000 
     24 N1         79.6660   53.7650   11.2340 N.ar      1 ADP401      0.0000 
     25 C2         78.3840   53.6790   10.8600 C.ar      1 ADP401      0.0000 
     26 N3         77.6560   52.5840   10.6170 N.ar      1 ADP401      0.0000 
     27 C4         78.3730   51.4650   10.8250 C.ar      1 ADP401      0.0000 
@<TRIPOS>BOND
     1    1    2 ar   
     2    1    3 ar   
     3    1    4 ar   
     4    1    8 1    
     5    5    6 ar   
     6    5    7 ar   
     7    5    8 1    
     8    5    9 1    
     9    9   10 1    
    10   10   11 1    
    11   11   12 1    
    12   11   13 1    
    13   12   17 1    
    14   13   14 1    
    15   13   15 1    
    16   15   16 1    
    17   15   17 1    
    18   17   18 1    
    19   18   19 1    
    20   18   27 1    
    21   19   20 2    
    22   20   21 1    
    23   21   22 ar   
    24   21   27 ar   
    25   22   23 1    
    26   22   24 ar   
    27   24   25 ar   
    28   25   26 ar   
    29   26   27 ar   
@<TRIPOS>SUBSTRUCTURE
     1 ADP401      1 GROUP   
@<TRIPOS>SET
ATOM$ORANGE STATIC     ATOMS   COLORGROUP SYSTEM 
20 10 10 11 11 13 13 15 15 17 17 19 19 21 21 22 22 25 \
25 27 27 

