#    Name: 6d00_12_ADP
#    Modification time : Fri May 22 19:33:26 2020

@<TRIPOS>MOLECULE
6d00_12_ADP
   27    29     1     0     1
SMALL
NO_CHARGES


@<TRIPOS>ATOM
      1 PB        122.2450  185.3840   88.1690 P.3       1 ADP902      0.0000 
      2 O1B       123.3350  185.5230   87.1340 O.co2     1 ADP902      0.0000 
      3 O2B       120.8520  185.6410   87.6450 O.co2     1 ADP902      0.0000 
      4 O3B       122.3680  184.1550   89.0370 O.co2     1 ADP902      0.0000 
      5 PA        121.5550  186.8600   90.4500 P.3       1 ADP902      0.0000 
      6 O1A       120.2210  187.3590   89.9500 O.co2     1 ADP902      0.0000 
      7 O2A       121.6220  185.6410   91.3380 O.co2     1 ADP902      0.0000 
      8 O3A       122.5120  186.6100   89.1780 O.3       1 ADP902      0.0000 
      9 O5'       122.2970  188.0720   91.2070 O.3       1 ADP902      0.0000 
     10 C5'       121.9580  188.4020   92.5530 C.3       1 ADP902      0.0000 
     11 C4'       122.7650  189.6150   92.9970 C.3       1 ADP902      0.0000 
     12 O4'       122.3890  190.7640   92.2340 O.3       1 ADP902      0.0000 
     13 C3'       122.5190  189.9500   94.4600 C.3       1 ADP902      0.0000 
     14 O3'       123.6780  189.6360   95.2370 O.3       1 ADP902      0.0000 
     15 C2'       122.2500  191.4410   94.5050 C.3       1 ADP902      0.0000 
     16 O2'       123.2410  192.0960   95.3020 O.3       1 ADP902      0.0000 
     17 C1'       122.3340  191.9240   93.0660 C.3       1 ADP902      0.0000 
     18 N9        121.1300  192.7280   92.7380 N.pl3     1 ADP902      0.0000 
     19 C8        119.9600  192.2390   92.2880 C.2       1 ADP902      0.0000 
     20 N7        119.0580  193.2320   92.0850 N.2       1 ADP902      0.0000 
     21 C5        119.6560  194.3920   92.4100 C.ar      1 ADP902      0.0000 
     22 C6        119.2700  195.8230   92.4290 C.ar      1 ADP902      0.0000 
     23 N6        118.0320  196.2190   92.0480 N.pl3     1 ADP902      0.0000 
     24 N1        120.1960  196.7180   92.8390 N.ar      1 ADP902      0.0000 
     25 C2        121.4290  196.3360   93.2190 C.ar      1 ADP902      0.0000 
     26 N3        121.8460  195.0570   93.2280 N.ar      1 ADP902      0.0000 
     27 C4        121.0210  194.0550   92.8410 C.ar      1 ADP902      0.0000 
@<TRIPOS>BOND
     1    1    2 ar   
     2    1    3 ar   
     3    1    4 ar   
     4    1    8 1    
     5    5    6 ar   
     6    5    7 ar   
     7    5    8 1    
     8    5    9 1    
     9    9   10 1    
    10   10   11 1    
    11   11   12 1    
    12   11   13 1    
    13   12   17 1    
    14   13   14 1    
    15   13   15 1    
    16   15   16 1    
    17   15   17 1    
    18   17   18 1    
    19   18   19 1    
    20   18   27 1    
    21   19   20 2    
    22   20   21 1    
    23   21   22 ar   
    24   21   27 ar   
    25   22   23 1    
    26   22   24 ar   
    27   24   25 ar   
    28   25   26 ar   
    29   26   27 ar   
@<TRIPOS>SUBSTRUCTURE
     1 ADP902      1 GROUP   
@<TRIPOS>SET
ATOM$ORANGE STATIC     ATOMS   COLORGROUP SYSTEM 
20 10 10 11 11 13 13 15 15 17 17 19 19 21 21 22 22 25 \
25 27 27 

