#    Name: 6d00_11_ADP
#    Modification time : Fri May 22 19:33:14 2020

@<TRIPOS>MOLECULE
6d00_11_ADP
   27    29     1     0     1
SMALL
NO_CHARGES


@<TRIPOS>ATOM
      1 PB        103.1660  160.7780  121.8700 P.3       1 ADP901      0.0000 
      2 O1B       102.1960  160.5780  120.7300 O.co2     1 ADP901      0.0000 
      3 O2B       102.8050  161.9080  122.8040 O.co2     1 ADP901      0.0000 
      4 O3B       104.6180  160.7570  121.4570 O.co2     1 ADP901      0.0000 
      5 PA        101.5750  158.8000  123.1410 P.3       1 ADP901      0.0000 
      6 O1A       100.8710  158.3880  121.8690 O.co2     1 ADP901      0.0000 
      7 O2A       101.8190  157.7610  124.2080 O.co2     1 ADP901      0.0000 
      8 O3A       103.0040  159.4520  122.7710 O.3       1 ADP901      0.0000 
      9 O5'       100.7300  159.9940  123.8180 O.3       1 ADP901      0.0000 
     10 C5'        99.8390  160.7990  123.0470 C.3       1 ADP901      0.0000 
     11 C4'        99.0620  161.7250  123.9750 C.3       1 ADP901      0.0000 
     12 O4'        98.2220  162.6010  123.2180 O.3       1 ADP901      0.0000 
     13 C3'        98.1610  160.9430  124.9180 C.3       1 ADP901      0.0000 
     14 O3'        98.6630  161.0220  126.2550 O.3       1 ADP901      0.0000 
     15 C2'        96.8000  161.6040  124.8330 C.3       1 ADP901      0.0000 
     16 O2'        96.4060  162.0860  126.1200 O.3       1 ADP901      0.0000 
     17 C1'        96.9590  162.7660  123.8650 C.3       1 ADP901      0.0000 
     18 N9         95.8650  162.7420  122.8620 N.pl3     1 ADP901      0.0000 
     19 C8         95.9750  162.3130  121.5900 C.2       1 ADP901      0.0000 
     20 N7         94.7930  162.4230  120.9320 N.2       1 ADP901      0.0000 
     21 C5         93.8970  162.9370  121.7950 C.ar      1 ADP901      0.0000 
     22 C6         92.4630  163.3090  121.7490 C.ar      1 ADP901      0.0000 
     23 N6         91.7320  163.1490  120.6190 N.pl3     1 ADP901      0.0000 
     24 N1         91.9090  163.8140  122.8740 N.ar      1 ADP901      0.0000 
     25 C2         92.6230  163.9780  124.0030 C.ar      1 ADP901      0.0000 
     26 N3         93.9260  163.6620  124.1150 N.ar      1 ADP901      0.0000 
     27 C4         94.6090  163.1470  123.0640 C.ar      1 ADP901      0.0000 
@<TRIPOS>BOND
     1    1    2 ar   
     2    1    3 ar   
     3    1    4 ar   
     4    1    8 1    
     5    5    6 ar   
     6    5    7 ar   
     7    5    8 1    
     8    5    9 1    
     9    9   10 1    
    10   10   11 1    
    11   11   12 1    
    12   11   13 1    
    13   12   17 1    
    14   13   14 1    
    15   13   15 1    
    16   15   16 1    
    17   15   17 1    
    18   17   18 1    
    19   18   19 1    
    20   18   27 1    
    21   19   20 2    
    22   20   21 1    
    23   21   22 ar   
    24   21   27 ar   
    25   22   23 1    
    26   22   24 ar   
    27   24   25 ar   
    28   25   26 ar   
    29   26   27 ar   
@<TRIPOS>SUBSTRUCTURE
     1 ADP901      1 GROUP   
@<TRIPOS>SET
ATOM$ORANGE STATIC     ATOMS   COLORGROUP SYSTEM 
20 10 10 11 11 13 13 15 15 17 17 19 19 21 21 22 22 25 \
25 27 27 

