#    Name: 6d00_3_ADP
#    Modification time : Fri May 22 19:30:25 2020

@<TRIPOS>MOLECULE
6d00_3_ADP
   27    29     1     0     1
SMALL
NO_CHARGES


@<TRIPOS>ATOM
      1 PB        139.8590   98.0780  140.5620 P.3       1 ADP901      0.0000 
      2 O1B       141.1410   98.0190  139.7660 O.co2     1 ADP901      0.0000 
      3 O2B       138.9710   96.8660  140.4060 O.co2     1 ADP901      0.0000 
      4 O3B       139.1300   99.3960  140.4640 O.co2     1 ADP901      0.0000 
      5 PA        141.4620   96.9940  142.6380 P.3       1 ADP901      0.0000 
      6 O1A       142.7710   97.2770  141.9420 O.co2     1 ADP901      0.0000 
      7 O2A       141.4130   97.0280  144.1470 O.co2     1 ADP901      0.0000 
      8 O3A       140.3400   98.0210  142.1000 O.3       1 ADP901      0.0000 
      9 O5'       140.9510   95.5370  142.1760 O.3       1 ADP901      0.0000 
     10 C5'       141.4290   94.9350  140.9730 C.3       1 ADP901      0.0000 
     11 C4'       140.9190   93.5010  140.8890 C.3       1 ADP901      0.0000 
     12 O4'       141.4040   92.8690  139.7020 O.3       1 ADP901      0.0000 
     13 C3'       141.3990   92.6710  142.0690 C.3       1 ADP901      0.0000 
     14 O3'       140.3010   92.3620  142.9320 O.3       1 ADP901      0.0000 
     15 C2'       141.9690   91.3980  141.4760 C.3       1 ADP901      0.0000 
     16 O2'       141.2560   90.2620  141.9720 O.3       1 ADP901      0.0000 
     17 C1'       141.7810   91.5160  139.9710 C.3       1 ADP901      0.0000 
     18 N9        143.0550   91.1970  139.2790 N.pl3     1 ADP901      0.0000 
     19 C8        143.8720   92.0880  138.6860 C.2       1 ADP901      0.0000 
     20 N7        144.9530   91.4740  138.1400 N.2       1 ADP901      0.0000 
     21 C5        144.8340   90.1560  138.3830 C.ar      1 ADP901      0.0000 
     22 C6        145.6260   88.9390  138.0840 C.ar      1 ADP901      0.0000 
     23 N6        146.7920   89.0130  137.3980 N.pl3     1 ADP901      0.0000 
     24 N1        145.1440   87.7540  138.5180 N.ar      1 ADP901      0.0000 
     25 C2        143.9870   87.6670  139.2010 C.ar      1 ADP901      0.0000 
     26 N3        143.2190   88.7280  139.5060 N.ar      1 ADP901      0.0000 
     27 C4        143.5800   89.9780  139.1310 C.ar      1 ADP901      0.0000 
@<TRIPOS>BOND
     1    1    2 ar   
     2    1    3 ar   
     3    1    4 ar   
     4    1    8 1    
     5    5    6 ar   
     6    5    7 ar   
     7    5    8 1    
     8    5    9 1    
     9    9   10 1    
    10   10   11 1    
    11   11   12 1    
    12   11   13 1    
    13   12   17 1    
    14   13   14 1    
    15   13   15 1    
    16   15   16 1    
    17   15   17 1    
    18   17   18 1    
    19   18   19 1    
    20   18   27 1    
    21   19   20 2    
    22   20   21 1    
    23   21   22 ar   
    24   21   27 ar   
    25   22   23 1    
    26   22   24 ar   
    27   24   25 ar   
    28   25   26 ar   
    29   26   27 ar   
@<TRIPOS>SUBSTRUCTURE
     1 ADP901      1 GROUP   
@<TRIPOS>SET
ATOM$ORANGE STATIC     ATOMS   COLORGROUP SYSTEM 
20 10 10 11 11 13 13 15 15 17 17 19 19 21 21 22 22 25 \
25 27 27 

