#    Name: 6d00_6_ADP
#    Modification time : Fri May 22 19:31:28 2020

@<TRIPOS>MOLECULE
6d00_6_ADP
   27    29     1     0     1
SMALL
NO_CHARGES


@<TRIPOS>ATOM
      1 PB        143.8410  114.5300   95.6630 P.3       1 ADP902      0.0000 
      2 O1B       144.8900  115.0220   94.6950 O.co2     1 ADP902      0.0000 
      3 O2B       142.4440  114.4730   95.0920 O.co2     1 ADP902      0.0000 
      4 O3B       143.9240  115.1480   97.0380 O.co2     1 ADP902      0.0000 
      5 PA        145.6360  112.5790   96.5650 P.3       1 ADP902      0.0000 
      6 O1A       146.7390  112.9610   95.6060 O.co2     1 ADP902      0.0000 
      7 O2A       145.6570  113.0980   97.9820 O.co2     1 ADP902      0.0000 
      8 O3A       144.2260  112.9840   95.9010 O.3       1 ADP902      0.0000 
      9 O5'       145.5530  110.9720   96.6210 O.3       1 ADP902      0.0000 
     10 C5'       146.4840  110.2330   97.4080 C.3       1 ADP902      0.0000 
     11 C4'       146.2460  108.7390   97.2220 C.3       1 ADP902      0.0000 
     12 O4'       146.5600  108.3500   95.8830 O.3       1 ADP902      0.0000 
     13 C3'       147.1280  107.9160   98.1470 C.3       1 ADP902      0.0000 
     14 O3'       146.3340  107.3060   99.1690 O.3       1 ADP902      0.0000 
     15 C2'       147.7620  106.8500   97.2750 C.3       1 ADP902      0.0000 
     16 O2'       147.3830  105.5500   97.7350 O.3       1 ADP902      0.0000 
     17 C1'       147.2260  107.0850   95.8720 C.3       1 ADP902      0.0000 
     18 N9        148.3510  107.1080   94.9040 N.pl3     1 ADP902      0.0000 
     19 C8        148.9500  108.2120   94.4190 C.2       1 ADP902      0.0000 
     20 N7        149.9430  107.8900   93.5520 N.2       1 ADP902      0.0000 
     21 C5        149.9890  106.5470   93.4710 C.ar      1 ADP902      0.0000 
     22 C6        150.8030  105.5490   92.7380 C.ar      1 ADP902      0.0000 
     23 N6        151.7920  105.9330   91.8960 N.pl3     1 ADP902      0.0000 
     24 N1        150.5240  104.2420   92.9390 N.ar      1 ADP902      0.0000 
     25 C2        149.5440  103.8470   93.7730 C.ar      1 ADP902      0.0000 
     26 N3        148.7680  104.6970   94.4690 N.ar      1 ADP902      0.0000 
     27 C4        148.9370  106.0370   94.3630 C.ar      1 ADP902      0.0000 
@<TRIPOS>BOND
     1    1    2 ar   
     2    1    3 ar   
     3    1    4 ar   
     4    1    8 1    
     5    5    6 ar   
     6    5    7 ar   
     7    5    8 1    
     8    5    9 1    
     9    9   10 1    
    10   10   11 1    
    11   11   12 1    
    12   11   13 1    
    13   12   17 1    
    14   13   14 1    
    15   13   15 1    
    16   15   16 1    
    17   15   17 1    
    18   17   18 1    
    19   18   19 1    
    20   18   27 1    
    21   19   20 2    
    22   20   21 1    
    23   21   22 ar   
    24   21   27 ar   
    25   22   23 1    
    26   22   24 ar   
    27   24   25 ar   
    28   25   26 ar   
    29   26   27 ar   
@<TRIPOS>SUBSTRUCTURE
     1 ADP902      1 GROUP   
@<TRIPOS>SET
ATOM$ORANGE STATIC     ATOMS   COLORGROUP SYSTEM 
20 10 10 11 11 13 13 15 15 17 17 19 19 21 21 22 22 25 \
25 27 27 

