#    Name: 6d00_7_ADP
#    Modification time : Fri May 22 19:31:55 2020

@<TRIPOS>MOLECULE
6d00_7_ADP
   27    29     1     0     1
SMALL
NO_CHARGES


@<TRIPOS>ATOM
      1 PB        159.3460  151.8860  137.8640 P.3       1 ADP901      0.0000 
      2 O1B       160.5440  151.8180  136.9490 O.co2     1 ADP901      0.0000 
      3 O2B       158.0900  152.4020  137.2030 O.co2     1 ADP901      0.0000 
      4 O3B       159.1390  150.6470  138.7030 O.co2     1 ADP901      0.0000 
      5 PA        160.1140  154.5180  138.4990 P.3       1 ADP901      0.0000 
      6 O1A       159.9450  154.6270  137.0030 O.co2     1 ADP901      0.0000 
      7 O2A       159.3720  155.4800  139.3960 O.co2     1 ADP901      0.0000 
      8 O3A       159.7060  153.0240  138.9470 O.3       1 ADP901      0.0000 
      9 O5'       161.6800  154.6220  138.8660 O.3       1 ADP901      0.0000 
     10 C5'       162.6100  153.6110  138.4840 C.3       1 ADP901      0.0000 
     11 C4'       164.0190  154.0480  138.8630 C.3       1 ADP901      0.0000 
     12 O4'       164.4100  155.1870  138.0920 O.3       1 ADP901      0.0000 
     13 C3'       164.1140  154.4440  140.3280 C.3       1 ADP901      0.0000 
     14 O3'       164.8640  153.4670  141.0540 O.3       1 ADP901      0.0000 
     15 C2'       164.8350  155.7770  140.3500 C.3       1 ADP901      0.0000 
     16 O2'       166.0460  155.6690  141.1040 O.3       1 ADP901      0.0000 
     17 C1'       165.1510  156.1040  138.8990 C.3       1 ADP901      0.0000 
     18 N9        164.7470  157.4990  138.5910 N.pl3     1 ADP901      0.0000 
     19 C8        163.5370  157.8860  138.1470 C.2       1 ADP901      0.0000 
     20 N7        163.4910  159.2310  137.9620 N.2       1 ADP901      0.0000 
     21 C5        164.6970  159.7250  138.2930 C.ar      1 ADP901      0.0000 
     22 C6        165.3290  161.0660  138.3290 C.ar      1 ADP901      0.0000 
     23 N6        164.6400  162.1740  137.9650 N.pl3     1 ADP901      0.0000 
     24 N1        166.6140  161.1450  138.7390 N.ar      1 ADP901      0.0000 
     25 C2        167.3090  160.0510  139.1040 C.ar      1 ADP901      0.0000 
     26 N3        166.8000  158.8060  139.0950 N.ar      1 ADP901      0.0000 
     27 C4        165.5220  158.5800  138.7070 C.ar      1 ADP901      0.0000 
@<TRIPOS>BOND
     1    1    2 ar   
     2    1    3 ar   
     3    1    4 ar   
     4    1    8 1    
     5    5    6 ar   
     6    5    7 ar   
     7    5    8 1    
     8    5    9 1    
     9    9   10 1    
    10   10   11 1    
    11   11   12 1    
    12   11   13 1    
    13   12   17 1    
    14   13   14 1    
    15   13   15 1    
    16   15   16 1    
    17   15   17 1    
    18   17   18 1    
    19   18   19 1    
    20   18   27 1    
    21   19   20 2    
    22   20   21 1    
    23   21   22 ar   
    24   21   27 ar   
    25   22   23 1    
    26   22   24 ar   
    27   24   25 ar   
    28   25   26 ar   
    29   26   27 ar   
@<TRIPOS>SUBSTRUCTURE
     1 ADP901      1 GROUP   
@<TRIPOS>SET
ATOM$ORANGE STATIC     ATOMS   COLORGROUP SYSTEM 
20 10 10 11 11 13 13 15 15 17 17 19 19 21 21 22 22 25 \
25 27 27 

