#    Name: 6d00_10_ADP
#    Modification time : Fri May 22 19:32:52 2020

@<TRIPOS>MOLECULE
6d00_10_ADP
   27    29     1     0     1
SMALL
NO_CHARGES


@<TRIPOS>ATOM
      1 PB        152.5180  173.1590   92.7860 P.3       1 ADP902      0.0000 
      2 O1B       152.8470  173.2450   91.3150 O.co2     1 ADP902      0.0000 
      3 O2B       151.7330  174.3340   93.3170 O.co2     1 ADP902      0.0000 
      4 O3B       152.0000  171.8110   93.2290 O.co2     1 ADP902      0.0000 
      5 PA        154.0650  173.2920   95.1170 P.3       1 ADP902      0.0000 
      6 O1A       153.4730  174.5830   95.6300 O.co2     1 ADP902      0.0000 
      7 O2A       153.5510  171.9700   95.6360 O.co2     1 ADP902      0.0000 
      8 O3A       153.9500  173.2870   93.5110 O.3       1 ADP902      0.0000 
      9 O5'       155.6560  173.3400   95.3560 O.3       1 ADP902      0.0000 
     10 C5'       156.1910  173.2810   96.6770 C.3       1 ADP902      0.0000 
     11 C4'       157.7090  173.3890   96.6160 C.3       1 ADP902      0.0000 
     12 O4'       158.0940  174.5490   95.8740 O.3       1 ADP902      0.0000 
     13 C3'       158.3210  173.5190   98.0020 C.3       1 ADP902      0.0000 
     14 O3'       159.0190  172.3180   98.3460 O.3       1 ADP902      0.0000 
     15 C2'       159.2910  174.6800   97.9190 C.3       1 ADP902      0.0000 
     16 O2'       160.6170  174.2360   98.2220 O.3       1 ADP902      0.0000 
     17 C1'       159.2230  175.1790   96.4840 C.3       1 ADP902      0.0000 
     18 N9        159.0550  176.6540   96.4650 N.pl3     1 ADP902      0.0000 
     19 C8        157.8810  177.3110   96.4690 C.2       1 ADP902      0.0000 
     20 N7        158.0710  178.6550   96.4470 N.2       1 ADP902      0.0000 
     21 C5        159.3990  178.8740   96.4290 C.ar      1 ADP902      0.0000 
     22 C6        160.2850  180.0620   96.4020 C.ar      1 ADP902      0.0000 
     23 N6        159.7740  181.3170   96.3900 N.pl3     1 ADP902      0.0000 
     24 N1        161.6200  179.8510   96.3900 N.ar      1 ADP902      0.0000 
     25 C2        162.1400  178.6090   96.4020 C.ar      1 ADP902      0.0000 
     26 N3        161.3960  177.4880   96.4270 N.ar      1 ADP902      0.0000 
     27 C4        160.0430  177.5520   96.4410 C.ar      1 ADP902      0.0000 
@<TRIPOS>BOND
     1    1    2 ar   
     2    1    3 ar   
     3    1    4 ar   
     4    1    8 1    
     5    5    6 ar   
     6    5    7 ar   
     7    5    8 1    
     8    5    9 1    
     9    9   10 1    
    10   10   11 1    
    11   11   12 1    
    12   11   13 1    
    13   12   17 1    
    14   13   14 1    
    15   13   15 1    
    16   15   16 1    
    17   15   17 1    
    18   17   18 1    
    19   18   19 1    
    20   18   27 1    
    21   19   20 2    
    22   20   21 1    
    23   21   22 ar   
    24   21   27 ar   
    25   22   23 1    
    26   22   24 ar   
    27   24   25 ar   
    28   25   26 ar   
    29   26   27 ar   
@<TRIPOS>SUBSTRUCTURE
     1 ADP902      1 GROUP   
@<TRIPOS>SET
ATOM$ORANGE STATIC     ATOMS   COLORGROUP SYSTEM 
20 10 10 11 11 13 13 15 15 17 17 19 19 21 21 22 22 25 \
25 27 27 

