#    Name: 6d00_5_ADP
#    Modification time : Fri May 22 19:31:11 2020

@<TRIPOS>MOLECULE
6d00_5_ADP
   27    29     1     0     1
SMALL
NO_CHARGES


@<TRIPOS>ATOM
      1 PB        163.4710  119.7940  136.6070 P.3       1 ADP901      0.0000 
      2 O1B       164.1520  120.8130  135.7250 O.co2     1 ADP901      0.0000 
      3 O2B       164.1540  118.4480  136.6450 O.co2     1 ADP901      0.0000 
      4 O3B       161.9730  119.7250  136.4310 O.co2     1 ADP901      0.0000 
      5 PA        165.0610  120.9480  138.6450 P.3       1 ADP901      0.0000 
      6 O1A       165.4450  122.1690  137.8430 O.co2     1 ADP901      0.0000 
      7 O2A       164.9470  121.0650  140.1460 O.co2     1 ADP901      0.0000 
      8 O3A       163.6570  120.3720  138.0990 O.3       1 ADP901      0.0000 
      9 O5'       166.1350  119.7870  138.3350 O.3       1 ADP901      0.0000 
     10 C5'       166.9770  119.8520  137.1850 C.3       1 ADP901      0.0000 
     11 C4'       167.9950  118.7200  137.2410 C.3       1 ADP901      0.0000 
     12 O4'       168.9690  118.8780  136.2060 O.3       1 ADP901      0.0000 
     13 C3'       168.7450  118.7100  138.5640 C.3       1 ADP901      0.0000 
     14 O3'       168.3500  117.5780  139.3440 O.3       1 ADP901      0.0000 
     15 C2'       170.2140  118.6100  138.2080 C.3       1 ADP901      0.0000 
     16 O2'       170.7750  117.4180  138.7660 O.3       1 ADP901      0.0000 
     17 C1'       170.2740  118.5540  136.6900 C.3       1 ADP901      0.0000 
     18 N9        171.2620  119.5430  136.1900 N.pl3     1 ADP901      0.0000 
     19 C8        170.9730  120.7570  135.6860 C.2       1 ADP901      0.0000 
     20 N7        172.1010  121.4160  135.3180 N.2       1 ADP901      0.0000 
     21 C5        173.1450  120.6120  135.5870 C.ar      1 ADP901      0.0000 
     22 C6        174.6180  120.6900  135.4440 C.ar      1 ADP901      0.0000 
     23 N6        175.2150  121.7900  134.9240 N.pl3     1 ADP901      0.0000 
     24 N1        175.3470  119.6260  135.8490 N.ar      1 ADP901      0.0000 
     25 C2        174.7670  118.5270  136.3670 C.ar      1 ADP901      0.0000 
     26 N3        173.4380  118.3880  136.5260 N.ar      1 ADP901      0.0000 
     27 C4        172.5870  119.3770  136.1610 C.ar      1 ADP901      0.0000 
@<TRIPOS>BOND
     1    1    2 ar   
     2    1    3 ar   
     3    1    4 ar   
     4    1    8 1    
     5    5    6 ar   
     6    5    7 ar   
     7    5    8 1    
     8    5    9 1    
     9    9   10 1    
    10   10   11 1    
    11   11   12 1    
    12   11   13 1    
    13   12   17 1    
    14   13   14 1    
    15   13   15 1    
    16   15   16 1    
    17   15   17 1    
    18   17   18 1    
    19   18   19 1    
    20   18   27 1    
    21   19   20 2    
    22   20   21 1    
    23   21   22 ar   
    24   21   27 ar   
    25   22   23 1    
    26   22   24 ar   
    27   24   25 ar   
    28   25   26 ar   
    29   26   27 ar   
@<TRIPOS>SUBSTRUCTURE
     1 ADP901      1 GROUP   
@<TRIPOS>SET
ATOM$ORANGE STATIC     ATOMS   COLORGROUP SYSTEM 
20 10 10 11 11 13 13 15 15 17 17 19 19 21 21 22 22 25 \
25 27 27 

