#    Name: 6d00_9_ADP
#    Modification time : Fri May 22 19:32:37 2020

@<TRIPOS>MOLECULE
6d00_9_ADP
   27    29     1     0     1
SMALL
NO_CHARGES


@<TRIPOS>ATOM
      1 PB        131.6080  168.2760  135.9430 P.3       1 ADP901      0.0000 
      2 O1B       131.2430  167.9240  134.5210 O.co2     1 ADP901      0.0000 
      3 O2B       132.9620  168.9270  136.0920 O.co2     1 ADP901      0.0000 
      4 O3B       131.3390  167.1760  136.9410 O.co2     1 ADP901      0.0000 
      5 PA        130.5210  170.8510  135.5960 P.3       1 ADP901      0.0000 
      6 O1A       131.5050  170.8110  134.4510 O.co2     1 ADP901      0.0000 
      7 O2A       129.0770  171.1870  135.3100 O.co2     1 ADP901      0.0000 
      8 O3A       130.5460  169.4220  136.3410 O.3       1 ADP901      0.0000 
      9 O5'       131.0470  171.8860  136.7130 O.3       1 ADP901      0.0000 
     10 C5'       132.3190  171.7330  137.3390 C.3       1 ADP901      0.0000 
     11 C4'       132.5330  172.8620  138.3400 C.3       1 ADP901      0.0000 
     12 O4'       132.6120  174.1190  137.6650 O.3       1 ADP901      0.0000 
     13 C3'       131.3850  172.9590  139.3330 C.3       1 ADP901      0.0000 
     14 O3'       131.8140  172.5210  140.6250 O.3       1 ADP901      0.0000 
     15 C2'       131.0020  174.4250  139.3790 C.3       1 ADP901      0.0000 
     16 O2'       131.1640  174.9340  140.7060 O.3       1 ADP901      0.0000 
     17 C1'       131.9530  175.1330  138.4270 C.3       1 ADP901      0.0000 
     18 N9        131.1930  176.0390  137.5290 N.pl3     1 ADP901      0.0000 
     19 C8        130.6700  175.7060  136.3340 C.2       1 ADP901      0.0000 
     20 N7        130.0360  176.7630  135.7650 N.2       1 ADP901      0.0000 
     21 C5        130.1510  177.8050  136.6090 C.ar      1 ADP901      0.0000 
     22 C6        129.7110  179.2200  136.6240 C.ar      1 ADP901      0.0000 
     23 N6        129.0030  179.7460  135.5950 N.pl3     1 ADP901      0.0000 
     24 N1        130.0400  179.9690  137.7000 N.ar      1 ADP901      0.0000 
     25 C2        130.7420  179.4590  138.7290 C.ar      1 ADP901      0.0000 
     26 N3        131.1730  178.1860  138.7810 N.ar      1 ADP901      0.0000 
     27 C4        130.9140  177.3230  137.7700 C.ar      1 ADP901      0.0000 
@<TRIPOS>BOND
     1    1    2 ar   
     2    1    3 ar   
     3    1    4 ar   
     4    1    8 1    
     5    5    6 ar   
     6    5    7 ar   
     7    5    8 1    
     8    5    9 1    
     9    9   10 1    
    10   10   11 1    
    11   11   12 1    
    12   11   13 1    
    13   12   17 1    
    14   13   14 1    
    15   13   15 1    
    16   15   16 1    
    17   15   17 1    
    18   17   18 1    
    19   18   19 1    
    20   18   27 1    
    21   19   20 2    
    22   20   21 1    
    23   21   22 ar   
    24   21   27 ar   
    25   22   23 1    
    26   22   24 ar   
    27   24   25 ar   
    28   25   26 ar   
    29   26   27 ar   
@<TRIPOS>SUBSTRUCTURE
     1 ADP901      1 GROUP   
@<TRIPOS>SET
ATOM$ORANGE STATIC     ATOMS   COLORGROUP SYSTEM 
20 10 10 11 11 13 13 15 15 17 17 19 19 21 21 22 22 25 \
25 27 27 

