#    Name: 6d00_4_ADP
#    Modification time : Fri May 22 19:30:42 2020

@<TRIPOS>MOLECULE
6d00_4_ADP
   27    29     1     0     1
SMALL
NO_CHARGES


@<TRIPOS>ATOM
      1 PB        113.1030  107.1450  105.5010 P.3       1 ADP902      0.0000 
      2 O1B       112.5320  108.1260  104.5060 O.co2     1 ADP902      0.0000 
      3 O2B       114.2330  106.2980  104.9660 O.co2     1 ADP902      0.0000 
      4 O3B       113.3570  107.7270  106.8700 O.co2     1 ADP902      0.0000 
      5 PA        112.0380  104.9420  106.8590 P.3       1 ADP902      0.0000 
      6 O1A       113.2110  104.0620  106.5000 O.co2     1 ADP902      0.0000 
      7 O2A       111.9790  105.5980  108.2180 O.co2     1 ADP902      0.0000 
      8 O3A       111.9080  106.0910  105.7380 O.3       1 ADP902      0.0000 
      9 O5'       110.6900  104.0850  106.6570 O.3       1 ADP902      0.0000 
     10 C5'       110.3770  103.0220  107.5530 C.3       1 ADP902      0.0000 
     11 C4'       109.1880  102.2340  107.0190 C.3       1 ADP902      0.0000 
     12 O4'       109.4040  101.8900  105.6480 O.3       1 ADP902      0.0000 
     13 C3'       108.9870  100.9370  107.7860 C.3       1 ADP902      0.0000 
     14 O3'       107.7820  101.0020  108.5550 O.3       1 ADP902      0.0000 
     15 C2'       108.8790   99.8470  106.7390 C.3       1 ADP902      0.0000 
     16 O2'       107.6160   99.1850  106.8480 O.3       1 ADP902      0.0000 
     17 C1'       108.9880  100.5470  105.3930 C.3       1 ADP902      0.0000 
     18 N9        109.9970   99.8630  104.5470 N.pl3     1 ADP902      0.0000 
     19 C8        111.2980  100.1960  104.4550 C.2       1 ADP902      0.0000 
     20 N7        111.9550   99.3770  103.5940 N.2       1 ADP902      0.0000 
     21 C5        111.0590   98.4940  103.1160 C.ar      1 ADP902      0.0000 
     22 C6        111.0850   97.3550  102.1680 C.ar      1 ADP902      0.0000 
     23 N6        112.2310   96.9900  101.5440 N.pl3     1 ADP902      0.0000 
     24 N1        109.9280   96.6940  101.9480 N.ar      1 ADP902      0.0000 
     25 C2        108.7830   97.0480  102.5620 C.ar      1 ADP902      0.0000 
     26 N3        108.6870   98.0690  103.4320 N.ar      1 ADP902      0.0000 
     27 C4        109.7700   98.8180  103.7460 C.ar      1 ADP902      0.0000 
@<TRIPOS>BOND
     1    1    2 ar   
     2    1    3 ar   
     3    1    4 ar   
     4    1    8 1    
     5    5    6 ar   
     6    5    7 ar   
     7    5    8 1    
     8    5    9 1    
     9    9   10 1    
    10   10   11 1    
    11   11   12 1    
    12   11   13 1    
    13   12   17 1    
    14   13   14 1    
    15   13   15 1    
    16   15   16 1    
    17   15   17 1    
    18   17   18 1    
    19   18   19 1    
    20   18   27 1    
    21   19   20 2    
    22   20   21 1    
    23   21   22 ar   
    24   21   27 ar   
    25   22   23 1    
    26   22   24 ar   
    27   24   25 ar   
    28   25   26 ar   
    29   26   27 ar   
@<TRIPOS>SUBSTRUCTURE
     1 ADP902      1 GROUP   
@<TRIPOS>SET
ATOM$ORANGE STATIC     ATOMS   COLORGROUP SYSTEM 
20 10 10 11 11 13 13 15 15 17 17 19 19 21 21 22 22 25 \
25 27 27 

