#    Name: 6d00_2_ADP
#    Modification time : Fri May 22 19:29:54 2020

@<TRIPOS>MOLECULE
6d00_2_ADP
   27    29     1     0     1
SMALL
NO_CHARGES


@<TRIPOS>ATOM
      1 PB         93.4670  124.9990  126.4120 P.3       1 ADP902      0.0000 
      2 O1B        93.9810  125.8260  125.2580 O.co2     1 ADP902      0.0000 
      3 O2B        93.9930  125.4230  127.7630 O.co2     1 ADP902      0.0000 
      4 O3B        93.4950  123.5090  126.1740 O.co2     1 ADP902      0.0000 
      5 PA         90.9450  125.1360  125.2010 P.3       1 ADP902      0.0000 
      6 O1A        91.3060  126.1660  124.1570 O.co2     1 ADP902      0.0000 
      7 O2A        90.9550  123.6680  124.8450 O.co2     1 ADP902      0.0000 
      8 O3A        91.8980  125.3570  126.4790 O.3       1 ADP902      0.0000 
      9 O5'        89.4890  125.5010  125.7820 O.3       1 ADP902      0.0000 
     10 C5'        88.3250  125.3410  124.9730 C.3       1 ADP902      0.0000 
     11 C4'        87.0900  125.7360  125.7740 C.3       1 ADP902      0.0000 
     12 O4'        85.9200  125.6440  124.9580 O.3       1 ADP902      0.0000 
     13 C3'        86.8760  124.8200  126.9680 C.3       1 ADP902      0.0000 
     14 O3'        87.1580  125.5210  128.1830 O.3       1 ADP902      0.0000 
     15 C2'        85.4140  124.4190  126.9260 C.3       1 ADP902      0.0000 
     16 O2'        84.7510  124.8490  128.1170 O.3       1 ADP902      0.0000 
     17 C1'        84.8250  125.1240  125.7140 C.3       1 ADP902      0.0000 
     18 N9         84.0470  124.1620  124.8950 N.pl3     1 ADP902      0.0000 
     19 C8         84.5470  123.3650  123.9320 C.2       1 ADP902      0.0000 
     20 N7         83.5730  122.6020  123.3720 N.2       1 ADP902      0.0000 
     21 C5         82.4160  122.9110  123.9850 C.ar      1 ADP902      0.0000 
     22 C6         81.0030  122.4760  123.8800 C.ar      1 ADP902      0.0000 
     23 N6         80.6240  121.5340  122.9820 N.pl3     1 ADP902      0.0000 
     24 N1         80.1050  123.0520  124.7090 N.ar      1 ADP902      0.0000 
     25 C2         80.4680  123.9890  125.6050 C.ar      1 ADP902      0.0000 
     26 N3         81.7300  124.4300  125.7550 N.ar      1 ADP902      0.0000 
     27 C4         82.7330  123.9390  124.9880 C.ar      1 ADP902      0.0000 
@<TRIPOS>BOND
     1    1    2 ar   
     2    1    3 ar   
     3    1    4 ar   
     4    1    8 1    
     5    5    6 ar   
     6    5    7 ar   
     7    5    8 1    
     8    5    9 1    
     9    9   10 1    
    10   10   11 1    
    11   11   12 1    
    12   11   13 1    
    13   12   17 1    
    14   13   14 1    
    15   13   15 1    
    16   15   16 1    
    17   15   17 1    
    18   17   18 1    
    19   18   19 1    
    20   18   27 1    
    21   19   20 2    
    22   20   21 1    
    23   21   22 ar   
    24   21   27 ar   
    25   22   23 1    
    26   22   24 ar   
    27   24   25 ar   
    28   25   26 ar   
    29   26   27 ar   
@<TRIPOS>SUBSTRUCTURE
     1 ADP902      1 GROUP   
@<TRIPOS>SET
ATOM$ORANGE STATIC     ATOMS   COLORGROUP SYSTEM 
20 10 10 11 11 13 13 15 15 17 17 19 19 21 21 22 22 25 \
25 27 27 

