#    Name: 6d00_8_ADP
#    Modification time : Fri May 22 19:32:10 2020

@<TRIPOS>MOLECULE
6d00_8_ADP
   27    29     1     0     1
SMALL
NO_CHARGES


@<TRIPOS>ATOM
      1 PB        163.1500  141.9230   93.2480 P.3       1 ADP902      0.0000 
      2 O1B       162.3990  141.2450   92.1270 O.co2     1 ADP902      0.0000 
      3 O2B       163.8490  143.1990   92.8440 O.co2     1 ADP902      0.0000 
      4 O3B       162.3830  142.0170   94.5450 O.co2     1 ADP902      0.0000 
      5 PA        164.0670  139.3910   94.0220 P.3       1 ADP902      0.0000 
      6 O1A       163.4090  138.6790   92.8640 O.co2     1 ADP902      0.0000 
      7 O2A       163.3960  139.4080   95.3750 O.co2     1 ADP902      0.0000 
      8 O3A       164.3580  140.9120   93.5820 O.3       1 ADP902      0.0000 
      9 O5'       165.5500  138.7920   94.2040 O.3       1 ADP902      0.0000 
     10 C5'       165.7500  137.3900   94.3780 C.3       1 ADP902      0.0000 
     11 C4'       167.2350  137.1110   94.5740 C.3       1 ADP902      0.0000 
     12 O4'       167.9860  137.6190   93.4690 O.3       1 ADP902      0.0000 
     13 C3'       167.7740  137.7850   95.8270 C.3       1 ADP902      0.0000 
     14 O3'       168.0500  136.8050   96.8310 O.3       1 ADP902      0.0000 
     15 C2'       169.0560  138.4750   95.4060 C.3       1 ADP902      0.0000 
     16 O2'       170.1640  137.9430   96.1370 O.3       1 ADP902      0.0000 
     17 C1'       169.2190  138.1830   93.9230 C.3       1 ADP902      0.0000 
     18 N9        169.5130  139.4390   93.1900 N.pl3     1 ADP902      0.0000 
     19 C8        168.5980  140.2840   92.6780 C.2       1 ADP902      0.0000 
     20 N7        169.1930  141.3410   92.0680 N.2       1 ADP902      0.0000 
     21 C5        170.5240  141.1780   92.1870 C.ar      1 ADP902      0.0000 
     22 C6        171.7330  141.9260   91.7680 C.ar      1 ADP902      0.0000 
     23 N6        171.6340  143.0910   91.0830 N.pl3     1 ADP902      0.0000 
     24 N1        172.9380  141.4070   92.0940 N.ar      1 ADP902      0.0000 
     25 C2        173.0500  140.2520   92.7740 C.ar      1 ADP902      0.0000 
     26 N3        171.9970  139.5220   93.1850 N.ar      1 ADP902      0.0000 
     27 C4        170.7290  139.9240   92.9270 C.ar      1 ADP902      0.0000 
@<TRIPOS>BOND
     1    1    2 ar   
     2    1    3 ar   
     3    1    4 ar   
     4    1    8 1    
     5    5    6 ar   
     6    5    7 ar   
     7    5    8 1    
     8    5    9 1    
     9    9   10 1    
    10   10   11 1    
    11   11   12 1    
    12   11   13 1    
    13   12   17 1    
    14   13   14 1    
    15   13   15 1    
    16   15   16 1    
    17   15   17 1    
    18   17   18 1    
    19   18   19 1    
    20   18   27 1    
    21   19   20 2    
    22   20   21 1    
    23   21   22 ar   
    24   21   27 ar   
    25   22   23 1    
    26   22   24 ar   
    27   24   25 ar   
    28   25   26 ar   
    29   26   27 ar   
@<TRIPOS>SUBSTRUCTURE
     1 ADP902      1 GROUP   
@<TRIPOS>SET
ATOM$ORANGE STATIC     ATOMS   COLORGROUP SYSTEM 
20 10 10 11 11 13 13 15 15 17 17 19 19 21 21 22 22 25 \
25 27 27 

