#    Name: 5xii_3_ANP
#    Modification time : Fri May 22 19:15:37 2020

@<TRIPOS>MOLECULE
5xii_3_ANP
   31    33     1     0     1
SMALL
NO_CHARGES


@<TRIPOS>ATOM
      1 PG          6.7740   32.1800  -21.0030 P.3       1 ANP1001     0.0000 
      2 O1G         6.2750   32.7450  -22.3680 O.co2     1 ANP1001     0.0000 
      3 O2G         7.3920   30.7860  -21.3280 O.co2     1 ANP1001     0.0000 
      4 O3G         7.7500   33.0670  -20.3790 O.co2     1 ANP1001     0.0000 
      5 PB          4.3240   30.7240  -20.0910 P.3       1 ANP1001     0.0000 
      6 O1B         4.8840   29.6140  -20.8550 O.co2     1 ANP1001     0.0000 
      7 O2B         3.0180   31.2080  -20.7910 O.co2     1 ANP1001     0.0000 
      8 N3B         5.4540   32.0010  -19.9230 N.3       1 ANP1001     0.0000 
      9 PA          2.6380   29.6460  -17.9630 P.3       1 ANP1001     0.0000 
     10 O1A         2.1970   28.4470  -18.6670 O.co2     1 ANP1001     0.0000 
     11 O2A         1.7080   30.7250  -17.6440 O.co2     1 ANP1001     0.0000 
     12 O3A         3.9730   30.2200  -18.6030 O.3       1 ANP1001     0.0000 
     13 O5'         3.2140   29.1350  -16.5490 O.3       1 ANP1001     0.0000 
     14 C5'         2.8270   29.7920  -15.3400 C.3       1 ANP1001     0.0000 
     15 C4'         4.0750   30.2690  -14.5960 C.3       1 ANP1001     0.0000 
     16 O4'         5.0110   29.1800  -14.4780 O.3       1 ANP1001     0.0000 
     17 C3'         4.8080   31.2730  -15.4390 C.3       1 ANP1001     0.0000 
     18 O3'         4.2040   32.5690  -15.2910 O.3       1 ANP1001     0.0000 
     19 C2'         6.1800   31.2550  -14.8100 C.3       1 ANP1001     0.0000 
     20 O2'         6.1620   31.9610  -13.5580 O.3       1 ANP1001     0.0000 
     21 C1'         6.3480   29.7600  -14.5400 C.3       1 ANP1001     0.0000 
     22 N9          7.1190   29.1090  -15.6230 N.pl3     1 ANP1001     0.0000 
     23 C8          6.8460   29.1570  -16.9640 C.2       1 ANP1001     0.0000 
     24 N7          7.7170   28.4720  -17.7040 N.2       1 ANP1001     0.0000 
     25 C5          8.6040   27.9540  -16.7670 C.ar      1 ANP1001     0.0000 
     26 C6          9.7470   27.1430  -16.9150 C.ar      1 ANP1001     0.0000 
     27 N6         10.1750   26.7190  -18.1010 N.pl3     1 ANP1001     0.0000 
     28 N1         10.4170   26.7940  -15.8070 N.ar      1 ANP1001     0.0000 
     29 C2          9.9830   27.2220  -14.6190 C.ar      1 ANP1001     0.0000 
     30 N3          8.9170   27.9910  -14.3630 N.ar      1 ANP1001     0.0000 
     31 C4          8.2430   28.3420  -15.4800 C.ar      1 ANP1001     0.0000 
@<TRIPOS>BOND
     1    1    2 ar   
     2    1    3 ar   
     3    1    4 ar   
     4    1    8 1    
     5    5    6 ar   
     6    5    7 ar   
     7    5    8 1    
     8    5   12 1    
     9    9   10 ar   
    10    9   11 ar   
    11    9   12 1    
    12    9   13 1    
    13   13   14 1    
    14   14   15 1    
    15   15   16 1    
    16   15   17 1    
    17   16   21 1    
    18   17   18 1    
    19   17   19 1    
    20   19   20 1    
    21   19   21 1    
    22   21   22 1    
    23   22   23 1    
    24   22   31 1    
    25   23   24 2    
    26   24   25 1    
    27   25   26 ar   
    28   25   31 ar   
    29   26   27 1    
    30   26   28 ar   
    31   28   29 ar   
    32   29   30 ar   
    33   30   31 ar   
@<TRIPOS>SUBSTRUCTURE
     1 ANP1001     1 GROUP   
@<TRIPOS>SET
ATOM$ORANGE STATIC     ATOMS   COLORGROUP SYSTEM 
20 14 14 15 15 17 17 19 19 21 21 23 23 25 25 26 26 29 \
29 31 31 

