#    Name: 5xii_3_ANP_CAVITY_N1_8
#    Modification time : Fri May 22 19:15:39 2020

@<TRIPOS>MOLECULE
5xii_3_ANP_CAVITY_N1_8
   96     0     7     0     0
SMALL
NO_CHARGES


@<TRIPOS>ATOM
      1 OG          0.4100   33.7400  -18.0100 O.3       1 SER1        0.0000 
      2 OG          7.4600   28.8300  -14.6000 O.3       1 SER1        0.0000 
      3 OG          8.6900   27.9900  -14.3800 O.3       1 SER1        0.0000 
      4 OG          9.9100   27.1600  -14.1600 O.3       1 SER1        0.0000 
      5 OG          6.6600   30.5800  -13.7100 O.3       1 SER1        0.0000 
      6 N           1.0400   33.5700  -22.2000 N.am      2 ALA2        0.0000 
      7 O          -0.5000   34.4900  -20.3300 O.2       2 ALA2        0.0000 
      8 N           1.4700   34.4900  -21.1000 N.am      2 ALA2        0.0000 
      9 N           0.7300   33.6600  -20.1100 N.am      2 ALA2        0.0000 
     10 N           1.9000   35.4200  -20.0000 N.am      2 ALA2        0.0000 
     11 O           1.1600   34.5800  -19.0100 O.2       2 ALA2        0.0000 
     12 N           3.1300   34.5800  -19.7800 N.am      2 ALA2        0.0000 
     13 N           2.3800   33.7500  -18.7900 N.am      2 ALA2        0.0000 
     14 N           1.6400   32.9100  -17.7900 N.am      2 ALA2        0.0000 
     15 N           4.3600   33.7500  -19.5600 N.am      2 ALA2        0.0000 
     16 N           3.6100   32.9100  -18.5700 N.am      2 ALA2        0.0000 
     17 N           2.8700   32.0700  -17.5700 N.am      2 ALA2        0.0000 
     18 N           5.5900   32.9200  -19.3400 N.am      2 ALA2        0.0000 
     19 N           4.8400   32.0800  -18.3500 N.am      2 ALA2        0.0000 
     20 N           4.0900   31.2400  -17.3500 N.am      2 ALA2        0.0000 
     21 O          10.2300   27.0800  -16.2500 O.2       2 ALA2        0.0000 
     22 N           6.7600   34.6800  -19.2300 N.am      2 ALA2        0.0000 
     23 N           6.0200   33.8400  -18.2400 N.am      2 ALA2        0.0000 
     24 N           4.5200   32.1700  -16.2500 N.am      2 ALA2        0.0000 
     25 N           3.7800   31.3300  -15.2600 N.am      2 ALA2        0.0000 
     26 N           3.0300   30.4900  -14.2600 N.am      2 ALA2        0.0000 
     27 N           9.4300   28.8300  -15.3700 N.am      2 ALA2        0.0000 
     28 N          10.6600   28.0000  -15.1500 N.am      2 ALA2        0.0000 
     29 N           5.4300   31.4200  -13.9300 N.am      2 ALA2        0.0000 
     30 OD1         3.9800   30.2300  -20.5500 O.co2     3 ASP3        0.0000 
     31 OD1         3.2300   29.3900  -19.5500 O.co2     3 ASP3        0.0000 
     32 OD1         2.4900   28.5600  -18.5600 O.co2     3 ASP3        0.0000 
     33 OD1         2.7000   33.6600  -20.8800 O.co2     3 ASP3        0.0000 
     34 OD1         3.9300   32.8300  -20.6600 O.co2     3 ASP3        0.0000 
     35 OD1         5.9000   32.8300  -21.4400 O.co2     3 ASP3        0.0000 
     36 OD1         5.1600   31.9900  -20.4400 O.co2     3 ASP3        0.0000 
     37 OD1         4.4100   31.1600  -19.4500 O.co2     3 ASP3        0.0000 
     38 OD1         3.6600   30.3200  -18.4500 O.co2     3 ASP3        0.0000 
     39 OD1         2.9200   29.4800  -17.4600 O.co2     3 ASP3        0.0000 
     40 OD1         7.1300   32.0000  -21.2200 O.co2     3 ASP3        0.0000 
     41 OD1         6.3900   31.1600  -20.2200 O.co2     3 ASP3        0.0000 
     42 OD1         5.6400   30.3200  -19.2300 O.co2     3 ASP3        0.0000 
     43 OD1         4.8900   29.4800  -18.2300 O.co2     3 ASP3        0.0000 
     44 OD1         4.1400   28.6500  -17.2400 O.co2     3 ASP3        0.0000 
     45 OD1         6.1200   28.6500  -18.0100 O.co2     3 ASP3        0.0000 
     46 OD1         5.3700   27.8100  -17.0200 O.co2     3 ASP3        0.0000 
     47 OD1         7.5600   32.9200  -20.1100 O.co2     3 ASP3        0.0000 
     48 OD1         6.8100   32.0900  -19.1200 O.co2     3 ASP3        0.0000 
     49 OD1         8.0400   31.2500  -18.9000 O.co2     3 ASP3        0.0000 
     50 OD1         7.3000   30.4100  -17.9100 O.co2     3 ASP3        0.0000 
     51 OD1         8.5200   29.5800  -17.6900 O.co2     3 ASP3        0.0000 
     52 OD1         7.7800   28.7400  -16.6900 O.co2     3 ASP3        0.0000 
     53 OD1         9.7500   28.7500  -17.4700 O.co2     3 ASP3        0.0000 
     54 OD1         7.2400   33.0100  -18.0200 O.co2     3 ASP3        0.0000 
     55 OD1         6.5000   32.1700  -17.0200 O.co2     3 ASP3        0.0000 
     56 OD1         5.7500   31.3300  -16.0300 O.co2     3 ASP3        0.0000 
     57 OD1         7.7300   31.3400  -16.8000 O.co2     3 ASP3        0.0000 
     58 OD1         6.9800   30.5000  -15.8100 O.co2     3 ASP3        0.0000 
     59 OD1         8.2100   29.6700  -15.5900 O.co2     3 ASP3        0.0000 
     60 OD1         6.1800   32.2600  -14.9300 O.co2     3 ASP3        0.0000 
     61 NZ          9.3200   27.8200  -18.5700 N.4       4 LYS4        0.0000 
     62 CZ         -0.0200   32.8200  -19.1100 C.ar      5 PHE5        0.0000 
     63 CZ          3.4000   27.8100  -16.2400 C.ar      5 PHE5        0.0000 
     64 CZ          4.6200   26.9800  -16.0200 C.ar      5 PHE5        0.0000 
     65 CZ          7.3500   27.8200  -17.7900 C.ar      5 PHE5        0.0000 
     66 CZ          8.5700   26.9900  -17.5700 C.ar      5 PHE5        0.0000 
     67 CZ          3.8300   28.7300  -15.1400 C.ar      5 PHE5        0.0000 
     68 CZ          7.0300   27.9000  -15.7000 C.ar      5 PHE5        0.0000 
     69 CZ          9.0000   27.9100  -16.4700 C.ar      5 PHE5        0.0000 
     70 CZ          8.2600   27.0700  -15.4800 C.ar      5 PHE5        0.0000 
     71 CZ          9.4800   26.2400  -15.2600 C.ar      5 PHE5        0.0000 
     72 CA          0.3000   32.7300  -21.2100 C.3       6 GLY6        0.0000 
     73 CA          1.6900   30.3100  -17.6800 C.3       6 GLY6        0.0000 
     74 CA         -0.0700   35.4100  -19.2300 C.3       6 GLY6        0.0000 
     75 CA          2.1200   31.2400  -16.5800 C.3       6 GLY6        0.0000 
     76 CA          2.6000   29.5700  -15.3600 C.3       6 GLY6        0.0000 
     77 CA          5.8000   28.7400  -15.9200 C.3       6 GLY6        0.0000 
     78 CA          5.0500   27.9000  -14.9200 C.3       6 GLY6        0.0000 
     79 CA         10.9800   27.9100  -17.2500 C.3       6 GLY6        0.0000 
     80 CA          2.5500   32.1600  -15.4800 C.3       6 GLY6        0.0000 
     81 CA          4.2600   29.6600  -14.0400 C.3       6 GLY6        0.0000 
     82 CA          6.2300   29.6600  -14.8200 C.3       6 GLY6        0.0000 
     83 CA          4.2100   32.2500  -14.1500 C.3       6 GLY6        0.0000 
     84 DU          0.7800   31.0600  -19.9900 H         7 CUB7        0.0000 
     85 DU          2.0100   30.2300  -19.7700 H         7 CUB7        0.0000 
     86 DU          1.2600   29.3900  -18.7800 H         7 CUB7        0.0000 
     87 DU          1.9500   32.8200  -19.8900 H         7 CUB7        0.0000 
     88 DU          1.2100   31.9800  -18.8900 H         7 CUB7        0.0000 
     89 DU          3.1800   31.9900  -19.6700 H         7 CUB7        0.0000 
     90 DU          2.4400   31.1500  -18.6700 H         7 CUB7        0.0000 
     91 DU          3.3500   30.4000  -16.3600 H         7 CUB7        0.0000 
     92 DU          6.0700   31.2500  -18.1300 H         7 CUB7        0.0000 
     93 DU          5.3200   30.4100  -17.1300 H         7 CUB7        0.0000 
     94 DU          4.5700   29.5700  -16.1400 H         7 CUB7        0.0000 
     95 DU          6.5500   29.5800  -16.9100 H         7 CUB7        0.0000 
     96 DU          5.0000   30.4900  -15.0400 H         7 CUB7        0.0000 
@<TRIPOS>BOND
@<TRIPOS>SUBSTRUCTURE
     1 SER1        1 GROUP   
     2 ALA2        6 GROUP   
     3 ASP3       30 GROUP   
     4 LYS4       61 GROUP   
     5 PHE5       62 GROUP   
     6 GLY6       72 GROUP   
     7 CUB7       84 GROUP   
@<TRIPOS>SET

