#    Name: 5urd_1_FMN_CAVITY_N1_4
#    Modification time : Fri May 22 19:15:24 2020

@<TRIPOS>MOLECULE
5urd_1_FMN_CAVITY_N1_4
   84     0     7     0     0
SMALL
NO_CHARGES


@<TRIPOS>ATOM
      1 OG          5.8300   -0.9700   32.1500 O.3       1 SER1        0.0000 
      2 OG          9.5200   -3.5700   30.6900 O.3       1 SER1        0.0000 
      3 OG          9.5700   -3.5500   35.4300 O.3       1 SER1        0.0000 
      4 OG         10.7000   -4.5400   35.4200 O.3       1 SER1        0.0000 
      5 OG          7.6000   -1.2300   34.0200 O.3       1 SER1        0.0000 
      6 OG          8.7400   -2.2100   34.0100 O.3       1 SER1        0.0000 
      7 OG          7.9000   -0.8800   32.6000 O.3       1 SER1        0.0000 
      8 OG          9.0300   -1.8600   32.5900 O.3       1 SER1        0.0000 
      9 OG          7.0600    0.4600   31.1800 O.3       1 SER1        0.0000 
     10 OG         11.6400   -3.4600   35.8800 O.3       1 SER1        0.0000 
     11 OG          8.5400   -0.1500   34.4900 O.3       1 SER1        0.0000 
     12 OG          8.8400    0.2000   33.0600 O.3       1 SER1        0.0000 
     13 OG          9.1400    0.5500   31.6300 O.3       1 SER1        0.0000 
     14 OG          9.7800    1.2700   33.5200 O.3       1 SER1        0.0000 
     15 O           2.7200   -4.5400   32.1900 O.2       2 ALA2        0.0000 
     16 O           2.8200   -2.1300   31.2300 O.2       2 ALA2        0.0000 
     17 O           3.4600   -1.4100   33.1200 O.2       2 ALA2        0.0000 
     18 N           4.0500   -0.7000   30.2700 N.am      2 ALA2        0.0000 
     19 N           6.1300   -0.6100   30.7200 N.am      2 ALA2        0.0000 
     20 N           5.5900   -1.3100   38.3200 N.am      2 ALA2        0.0000 
     21 N           5.8800   -0.9500   36.8900 N.am      2 ALA2        0.0000 
     22 N           7.3100   -1.5800   35.4500 N.am      2 ALA2        0.0000 
     23 N           9.9200   -3.1900   38.7500 N.am      2 ALA2        0.0000 
     24 N           7.9500   -0.8600   37.3400 N.am      2 ALA2        0.0000 
     25 N           9.0800   -1.8500   37.3300 N.am      2 ALA2        0.0000 
     26 O          10.8600   -2.1100   39.2100 O.2       2 ALA2        0.0000 
     27 N          11.1500   -1.7600   37.7800 N.am      2 ALA2        0.0000 
     28 OD1         3.0100   -4.1900   30.7600 O.co2     3 ASP3        0.0000 
     29 OD1         3.3100   -3.8400   29.3300 O.co2     3 ASP3        0.0000 
     30 OD1         4.4400   -4.8200   29.3200 O.co2     3 ASP3        0.0000 
     31 NZ          1.9800   -0.7900   29.8100 N.4       4 LYS4        0.0000 
     32 NZ         11.4500   -1.4000   36.3500 N.4       4 LYS4        0.0000 
     33 NZ         10.6100   -0.0700   34.9400 N.4       4 LYS4        0.0000 
     34 NZ         11.2100    0.6400   32.0800 N.4       4 LYS4        0.0000 
     35 NZ         11.5500    1.0100   35.4000 N.4       4 LYS4        0.0000 
     36 NZ         11.8500    1.3600   33.9700 N.4       4 LYS4        0.0000 
     37 CZ          4.1400   -5.1700   30.7500 C.ar      5 PHE5        0.0000 
     38 CZ          2.1800   -2.8500   29.3400 C.ar      5 PHE5        0.0000 
     39 CZ          3.6600   -3.4700   32.6500 C.ar      5 PHE5        0.0000 
     40 CZ          3.9500   -3.1200   31.2200 C.ar      5 PHE5        0.0000 
     41 CZ          5.0800   -4.1000   31.2100 C.ar      5 PHE5        0.0000 
     42 CZ          3.1200   -1.7800   29.8000 C.ar      5 PHE5        0.0000 
     43 CZ          5.3800   -3.7500   29.7900 C.ar      5 PHE5        0.0000 
     44 CZ          6.5100   -4.7300   29.7800 C.ar      5 PHE5        0.0000 
     45 CZ          5.6700   -3.3900   28.3600 C.ar      5 PHE5        0.0000 
     46 CZ          4.5900   -2.3900   33.1100 C.ar      5 PHE5        0.0000 
     47 CZ          4.8900   -2.0400   31.6800 C.ar      5 PHE5        0.0000 
     48 CZ          6.3200   -2.6700   30.2500 C.ar      5 PHE5        0.0000 
     49 CZ          7.4500   -3.6600   30.2400 C.ar      5 PHE5        0.0000 
     50 CZ          8.5800   -4.6400   30.2300 C.ar      5 PHE5        0.0000 
     51 CZ          8.8800   -4.2900   28.8000 C.ar      5 PHE5        0.0000 
     52 CZ          6.3700   -2.6600   34.9900 C.ar      5 PHE5        0.0000 
     53 CZ          4.4000   -0.3300   33.5800 C.ar      5 PHE5        0.0000 
     54 CZ          5.5300   -1.3200   33.5700 C.ar      5 PHE5        0.0000 
     55 CZ          6.6700   -2.3000   33.5600 C.ar      5 PHE5        0.0000 
     56 CZ          4.7000    0.0200   32.1500 C.ar      5 PHE5        0.0000 
     57 CZ          6.9600   -1.9500   32.1400 C.ar      5 PHE5        0.0000 
     58 CZ          8.0900   -2.9400   32.1300 C.ar      5 PHE5        0.0000 
     59 CZ          8.3900   -2.5800   30.7000 C.ar      5 PHE5        0.0000 
     60 CZ          9.2800   -3.9100   36.8600 C.ar      5 PHE5        0.0000 
     61 CZ          6.1800   -0.6000   35.4600 C.ar      5 PHE5        0.0000 
     62 CZ          8.4400   -2.5700   35.4400 C.ar      5 PHE5        0.0000 
     63 CZ          6.4700   -0.2400   34.0300 C.ar      5 PHE5        0.0000 
     64 CZ          8.2500   -0.5100   35.9100 C.ar      5 PHE5        0.0000 
     65 CZ          9.4800    0.9200   34.9500 C.ar      5 PHE5        0.0000 
     66 CA          1.8800   -3.2100   30.7700 C.3       6 GLY6        0.0000 
     67 CA          1.6900   -1.1500   31.2400 C.3       6 GLY6        0.0000 
     68 CA          5.2400   -1.6700   35.0000 C.3       6 GLY6        0.0000 
     69 CA         10.4100   -4.8900   36.8500 C.3       6 GLY6        0.0000 
     70 CA         11.0500   -4.1700   38.7400 C.3       6 GLY6        0.0000 
     71 CA         11.9900   -3.1000   39.2000 C.3       6 GLY6        0.0000 
     72 CA         10.0200   -0.7700   37.7900 C.3       6 GLY6        0.0000 
     73 CA         12.2900   -2.7400   37.7700 C.3       6 GLY6        0.0000 
     74 CA          9.1900    0.5700   36.3700 C.3       6 GLY6        0.0000 
     75 CA         10.3200   -0.4200   36.3600 C.3       6 GLY6        0.0000 
     76 DU          4.2500   -2.7600   29.8000 H         7 CUB7        0.0000 
     77 DU          3.7600   -1.0600   31.6900 H         7 CUB7        0.0000 
     78 DU          5.1900   -1.6900   30.2600 H         7 CUB7        0.0000 
     79 DU          7.2600   -1.6000   30.7100 H         7 CUB7        0.0000 
     80 DU          9.8200   -3.2100   29.2600 H         7 CUB7        0.0000 
     81 DU         10.2100   -2.8300   37.3200 H         7 CUB7        0.0000 
     82 DU         11.3500   -3.8200   37.3100 H         7 CUB7        0.0000 
     83 DU          9.3800   -1.4900   35.9000 H         7 CUB7        0.0000 
     84 DU         10.5100   -2.4800   35.8900 H         7 CUB7        0.0000 
@<TRIPOS>BOND
@<TRIPOS>SUBSTRUCTURE
     1 SER1        1 GROUP   
     2 ALA2       15 GROUP   
     3 ASP3       28 GROUP   
     4 LYS4       31 GROUP   
     5 PHE5       37 GROUP   
     6 GLY6       66 GROUP   
     7 CUB7       76 GROUP   
@<TRIPOS>SET

