#    Name: 5urd_2_FAD_CAVITY_N1_4
#    Modification time : Fri May 22 19:15:48 2020

@<TRIPOS>MOLECULE
5urd_2_FAD_CAVITY_N1_4
   66     0     7     0     0
SMALL
NO_CHARGES


@<TRIPOS>ATOM
      1 OG          4.8400   -2.0500   26.9400 O.3       1 SER1        0.0000 
      2 OG          5.2400    0.7100   24.5600 O.3       1 SER1        0.0000 
      3 OG          5.5300    1.0700   23.1300 O.3       1 SER1        0.0000 
      4 OG         12.2400   -0.3700   22.5900 O.3       1 SER1        0.0000 
      5 OG         13.1700    0.7100   23.0500 O.3       1 SER1        0.0000 
      6 N           4.3500   -0.3500   28.8400 N.am      2 ALA2        0.0000 
      7 N           6.3700   -0.2700   24.5500 N.am      2 ALA2        0.0000 
      8 N           6.6700    0.0800   23.1200 N.am      2 ALA2        0.0000 
      9 O           5.8300    1.4200   21.7000 O.2       2 ALA2        0.0000 
     10 N           8.1500   -0.5300   26.4300 N.am      2 ALA2        0.0000 
     11 N           8.4400   -0.1800   25.0000 N.am      2 ALA2        0.0000 
     12 N           9.5700   -1.1700   24.9900 N.am      2 ALA2        0.0000 
     13 N           7.6100    1.1600   23.5800 N.am      2 ALA2        0.0000 
     14 N           9.0300    0.5300   22.1400 N.am      2 ALA2        0.0000 
     15 N           7.0700    2.8500   20.7400 N.am      2 ALA2        0.0000 
     16 N          10.5100   -0.0900   25.4500 N.am      2 ALA2        0.0000 
     17 O           9.6800    1.2500   24.0300 O.2       2 ALA2        0.0000 
     18 N          10.8100    0.2600   24.0200 N.am      2 ALA2        0.0000 
     19 O          10.6200    2.3200   24.4900 O.2       2 ALA2        0.0000 
     20 O          10.9100    2.6800   23.0700 O.2       2 ALA2        0.0000 
     21 OD1         3.3100   -3.8400   29.3300 O.co2     3 ASP3        0.0000 
     22 NZ          4.6500    0.0100   27.4100 N.4       4 LYS4        0.0000 
     23 CZ          3.6000   -3.4800   27.9100 C.ar      5 PHE5        0.0000 
     24 CZ          4.7400   -4.4700   27.9000 C.ar      5 PHE5        0.0000 
     25 CZ          5.0300   -4.1100   26.4700 C.ar      5 PHE5        0.0000 
     26 CZ          5.3800   -3.7500   29.7900 C.ar      5 PHE5        0.0000 
     27 CZ          3.4100   -1.4200   28.3800 C.ar      5 PHE5        0.0000 
     28 CZ          4.5400   -2.4100   28.3700 C.ar      5 PHE5        0.0000 
     29 CZ          5.6700   -3.3900   28.3600 C.ar      5 PHE5        0.0000 
     30 CZ          6.8100   -4.3800   28.3500 C.ar      5 PHE5        0.0000 
     31 CZ          5.1400   -1.7000   25.5100 C.ar      5 PHE5        0.0000 
     32 CZ          7.4500   -3.6600   30.2400 C.ar      5 PHE5        0.0000 
     33 CZ          7.7500   -3.3000   28.8100 C.ar      5 PHE5        0.0000 
     34 CZ          8.8800   -4.2900   28.8000 C.ar      5 PHE5        0.0000 
     35 CZ          8.0400   -2.9500   27.3800 C.ar      5 PHE5        0.0000 
     36 CZ          4.9400    0.3600   25.9800 C.ar      5 PHE5        0.0000 
     37 CZ          7.3100    0.8000   25.0100 C.ar      5 PHE5        0.0000 
     38 CZ          6.4700    2.1400   23.5900 C.ar      5 PHE5        0.0000 
     39 CZ          6.7700    2.5000   22.1600 C.ar      5 PHE5        0.0000 
     40 CZ          7.9000    1.5100   22.1500 C.ar      5 PHE5        0.0000 
     41 CZ          8.2000    1.8700   20.7300 C.ar      5 PHE5        0.0000 
     42 CZ          9.3800    0.8900   25.4600 C.ar      5 PHE5        0.0000 
     43 CZ          8.8400    2.5900   22.6200 C.ar      5 PHE5        0.0000 
     44 CZ          9.9700    1.6000   22.6100 C.ar      5 PHE5        0.0000 
     45 CZ         11.1000    0.6200   22.6000 C.ar      5 PHE5        0.0000 
     46 CZ          8.0100    3.9200   21.2000 C.ar      5 PHE5        0.0000 
     47 CZ          9.1400    2.9400   21.1900 C.ar      5 PHE5        0.0000 
     48 CZ         10.2700    1.9600   21.1800 C.ar      5 PHE5        0.0000 
     49 CA          5.9700   -3.0400   26.9300 C.3       6 GLY6        0.0000 
     50 CA          6.9100   -1.9600   27.3900 C.3       6 GLY6        0.0000 
     51 CA          6.0700   -0.6200   25.9700 C.3       6 GLY6        0.0000 
     52 CA          7.2100   -1.6100   25.9700 C.3       6 GLY6        0.0000 
     53 CA          6.4200   -0.2600   29.2900 C.3       6 GLY6        0.0000 
     54 CA          6.7200    0.1000   27.8600 C.3       6 GLY6        0.0000 
     55 CA          7.8500   -0.8900   27.8500 C.3       6 GLY6        0.0000 
     56 CA          7.0100    0.4500   26.4400 C.3       6 GLY6        0.0000 
     57 CA          9.0800    0.5400   26.8900 C.3       6 GLY6        0.0000 
     58 CA         11.9400   -0.7200   24.0100 C.3       6 GLY6        0.0000 
     59 DU          6.6100   -2.3200   28.8200 H         7 CUB7        0.0000 
     60 DU          5.7800   -0.9800   27.4000 H         7 CUB7        0.0000 
     61 DU          8.6800   -2.2300   29.2700 H         7 CUB7        0.0000 
     62 DU          9.8200   -3.2100   29.2600 H         7 CUB7        0.0000 
     63 DU          8.9800   -1.8700   27.8400 H         7 CUB7        0.0000 
     64 DU         11.7500    1.3400   24.4800 H         7 CUB7        0.0000 
     65 DU         12.8800    0.3500   24.4800 H         7 CUB7        0.0000 
     66 DU         12.0400    1.6900   23.0600 H         7 CUB7        0.0000 
@<TRIPOS>BOND
@<TRIPOS>SUBSTRUCTURE
     1 SER1        1 GROUP   
     2 ALA2        6 GROUP   
     3 ASP3       21 GROUP   
     4 LYS4       22 GROUP   
     5 PHE5       23 GROUP   
     6 GLY6       49 GROUP   
     7 CUB7       59 GROUP   
@<TRIPOS>SET

