#    Name: 5urd_1_FMN
#    Modification time : Fri May 22 19:15:22 2020

@<TRIPOS>MOLECULE
5urd_1_FMN
   31    33     1     0     1
SMALL
NO_CHARGES


@<TRIPOS>ATOM
      1 N1          6.8050   -0.4160   38.8770 N.2       1 FMN701      0.0000 
      2 C2          5.9390   -0.1630   39.8830 C.2       1 FMN701      0.0000 
      3 O2          6.3330    0.0090   41.0400 O.2       1 FMN701      0.0000 
      4 N3          4.5980   -0.1030   39.5500 N.am      1 FMN701      0.0000 
      5 C4          4.0290   -0.2720   38.2810 C.2       1 FMN701      0.0000 
      6 O4          2.8070   -0.1700   38.2380 O.2       1 FMN701      0.0000 
      7 C4A         4.9250   -0.5300   37.2140 C.2       1 FMN701      0.0000 
      8 N5          4.3760   -0.6930   35.9190 N.2       1 FMN701      0.0000 
      9 C5A         5.3310   -0.9280   34.9250 C.ar      1 FMN701      0.0000 
     10 C6          4.8080   -1.0790   33.5900 C.ar      1 FMN701      0.0000 
     11 C7          5.6630   -1.3120   32.4820 C.ar      1 FMN701      0.0000 
     12 C7M         4.9640   -1.4490   31.1110 C.3       1 FMN701      0.0000 
     13 C8          7.1440   -1.4090   32.6710 C.ar      1 FMN701      0.0000 
     14 C8M         8.0770   -1.6300   31.6760 C.3       1 FMN701      0.0000 
     15 C9          7.6600   -1.2690   33.9540 C.ar      1 FMN701      0.0000 
     16 C9A         6.7920   -1.0240   35.1130 C.ar      1 FMN701      0.0000 
     17 N10         7.2760   -0.8540   36.5030 N.pl3     1 FMN701      0.0000 
     18 C10         6.3160   -0.5920   37.5870 C.2       1 FMN701      0.0000 
     19 C1'         8.7070   -0.9390   36.7930 C.3       1 FMN701      0.0000 
     20 C2'         9.2150   -2.3930   37.0560 C.3       1 FMN701      0.0000 
     21 O2'         8.4840   -2.9550   38.2200 O.3       1 FMN701      0.0000 
     22 C3'        10.7180   -2.3840   37.3270 C.3       1 FMN701      0.0000 
     23 O3'        11.3660   -1.8480   36.1470 O.3       1 FMN701      0.0000 
     24 C4'        11.1940   -3.8550   37.6280 C.3       1 FMN701      0.0000 
     25 O4'        12.6240   -3.6310   37.8760 O.3       1 FMN701      0.0000 
     26 C5'        11.1270   -4.8120   36.4540 C.3       1 FMN701      0.0000 
     27 O5'        11.5520   -6.1900   36.8330 O.3       1 FMN701      0.0000 
     28 P          11.6550   -7.4350   35.8680 P.3       1 FMN701      0.0000 
     29 O1P        12.7670   -7.1920   34.8950 O.co2     1 FMN701      0.0000 
     30 O2P        10.2060   -7.6500   35.3380 O.co2     1 FMN701      0.0000 
     31 O3P        12.1210   -8.5880   36.8860 O.co2     1 FMN701      0.0000 
@<TRIPOS>BOND
     1    1    2 1    
     2    1   18 2    
     3    2    3 2    
     4    2    4 am   
     5    4    5 am   
     6    5    6 2    
     7    5    7 1    
     8    7    8 2    
     9    7   18 1    
    10    8    9 1    
    11    9   10 ar   
    12    9   16 ar   
    13   10   11 ar   
    14   11   12 1    
    15   11   13 ar   
    16   13   14 1    
    17   13   15 ar   
    18   15   16 ar   
    19   16   17 1    
    20   17   18 1    
    21   17   19 1    
    22   19   20 1    
    23   20   21 1    
    24   20   22 1    
    25   22   23 1    
    26   22   24 1    
    27   24   25 1    
    28   24   26 1    
    29   26   27 1    
    30   27   28 1    
    31   28   29 ar   
    32   28   30 ar   
    33   28   31 ar   
@<TRIPOS>SUBSTRUCTURE
     1 FMN701      1 GROUP   
@<TRIPOS>SET
ATOM$ORANGE STATIC     ATOMS   COLORGROUP SYSTEM 
34 2 2 5 5 7 7 9 9 10 10 11 11 12 12 13 13 14 \
14 15 15 16 16 18 18 19 19 20 20 22 22 24 24 26 26 

