#    Name: 5urd_2_FAD
#    Modification time : Fri May 22 19:15:46 2020

@<TRIPOS>MOLECULE
5urd_2_FAD
   53    58     1     0     1
SMALL
NO_CHARGES


@<TRIPOS>ATOM
      1 PA         18.3640   -0.6870   24.3590 P.3       1 FAD702      0.0000 
      2 O1A        19.5950   -1.3380   23.8560 O.co2     1 FAD702      0.0000 
      3 O2A        17.3870   -1.4910   25.1250 O.co2     1 FAD702      0.0000 
      4 O5B        18.8010    0.5990   25.2210 O.3       1 FAD702      0.0000 
      5 C5B        17.8420    1.2980   26.0180 C.3       1 FAD702      0.0000 
      6 C4B        18.5900    2.0740   27.1040 C.3       1 FAD702      0.0000 
      7 O4B        19.4820    3.0320   26.5210 O.3       1 FAD702      0.0000 
      8 C3B        17.6450    2.9670   27.8830 C.3       1 FAD702      0.0000 
      9 O3B        16.9310    2.1640   28.8330 O.3       1 FAD702      0.0000 
     10 C2B        18.6820    3.7970   28.6170 C.3       1 FAD702      0.0000 
     11 O2B        19.1970    3.0540   29.7310 O.3       1 FAD702      0.0000 
     12 C1B        19.7680    3.9760   27.5650 C.3       1 FAD702      0.0000 
     13 N9A        19.7180    5.3180   26.9450 N.pl3     1 FAD702      0.0000 
     14 C8A        18.8170    5.7480   25.8570 C.2       1 FAD702      0.0000 
     15 N7A        19.2980    7.1270   25.6410 N.2       1 FAD702      0.0000 
     16 C5A        20.2570    7.3930   26.5250 C.ar      1 FAD702      0.0000 
     17 C6A        20.9650    8.5080   26.6880 C.ar      1 FAD702      0.0000 
     18 N6A        20.7260    9.4850   25.8190 N.pl3     1 FAD702      0.0000 
     19 N1A        21.8510    8.6620   27.6830 N.ar      1 FAD702      0.0000 
     20 C2A        22.0340    7.6120   28.5880 C.ar      1 FAD702      0.0000 
     21 N3A        21.2760    6.4520   28.3920 N.ar      1 FAD702      0.0000 
     22 C4A        20.4150    6.3690   27.3660 C.ar      1 FAD702      0.0000 
     23 N1          9.5380    2.5380   22.1050 N.2       1 FAD702      0.0000 
     24 C2          9.2000    3.1300   20.8810 C.2       1 FAD702      0.0000 
     25 O2         10.0330    3.7800   20.2570 O.2       1 FAD702      0.0000 
     26 N3          7.8920    3.0000   20.3940 N.am      1 FAD702      0.0000 
     27 C4          6.9300    2.3000   21.1280 C.2       1 FAD702      0.0000 
     28 O4          5.8180    2.1110   20.6340 O.2       1 FAD702      0.0000 
     29 C4X         7.2660    1.7370   22.3550 C.2       1 FAD702      0.0000 
     30 N5          6.3170    1.2100   23.1400 N.2       1 FAD702      0.0000 
     31 C5X         6.6500    0.6610   24.3170 C.ar      1 FAD702      0.0000 
     32 C6          5.6740    0.0630   25.1070 C.ar      1 FAD702      0.0000 
     33 C7          6.0200   -0.5450   26.3090 C.ar      1 FAD702      0.0000 
     34 C7M         5.0390   -1.1300   27.1010 C.3       1 FAD702      0.0000 
     35 C8          7.3490   -0.5540   26.7220 C.ar      1 FAD702      0.0000 
     36 C8M         7.7090   -1.1830   27.9090 C.3       1 FAD702      0.0000 
     37 C9          8.3270    0.0330   25.9270 C.ar      1 FAD702      0.0000 
     38 C9A         7.9840    0.6300   24.7180 C.ar      1 FAD702      0.0000 
     39 N10         8.9270    1.1600   23.9290 N.pl3     1 FAD702      0.0000 
     40 C10         8.5620    1.8580   22.8420 C.2       1 FAD702      0.0000 
     41 C1'        10.3620    1.1270   24.2960 C.3       1 FAD702      0.0000 
     42 C2'        11.0290   -0.0800   23.6290 C.3       1 FAD702      0.0000 
     43 O2'        10.5100   -1.2860   24.1970 O.3       1 FAD702      0.0000 
     44 C3'        12.5510   -0.0670   23.7950 C.3       1 FAD702      0.0000 
     45 O3'        12.8850    0.1690   25.1650 O.3       1 FAD702      0.0000 
     46 C4'        13.1960    1.0160   22.9260 C.3       1 FAD702      0.0000 
     47 O4'        12.8220    0.8290   21.5590 O.3       1 FAD702      0.0000 
     48 C5'        14.7180    0.9160   23.0550 C.3       1 FAD702      0.0000 
     49 O5'        15.1290   -0.4320   22.8010 O.3       1 FAD702      0.0000 
     50 P          16.5700   -0.7600   22.1640 P.3       1 FAD702      0.0000 
     51 O1P        16.6600   -0.1220   20.8330 O.co2     1 FAD702      0.0000 
     52 O2P        16.7850   -2.2220   22.2670 O.co2     1 FAD702      0.0000 
     53 O3P        17.5920    0.0200   23.1350 O.3       1 FAD702      0.0000 
@<TRIPOS>BOND
     1    1    2 ar   
     2    1    3 ar   
     3    1    4 1    
     4    1   53 1    
     5    4    5 1    
     6    5    6 1    
     7    6    7 1    
     8    6    8 1    
     9    7   12 1    
    10    8    9 1    
    11    8   10 1    
    12   10   11 1    
    13   10   12 1    
    14   12   13 1    
    15   13   14 1    
    16   13   22 1    
    17   14   15 2    
    18   15   16 1    
    19   16   17 ar   
    20   16   22 ar   
    21   17   18 1    
    22   17   19 ar   
    23   19   20 ar   
    24   20   21 ar   
    25   21   22 ar   
    26   23   24 1    
    27   23   40 2    
    28   24   25 2    
    29   24   26 am   
    30   26   27 am   
    31   27   28 2    
    32   27   29 1    
    33   29   30 2    
    34   29   40 1    
    35   30   31 1    
    36   31   32 ar   
    37   31   38 ar   
    38   32   33 ar   
    39   33   34 1    
    40   33   35 ar   
    41   35   36 1    
    42   35   37 ar   
    43   37   38 ar   
    44   38   39 1    
    45   39   40 1    
    46   39   41 1    
    47   41   42 1    
    48   42   43 1    
    49   42   44 1    
    50   44   45 1    
    51   44   46 1    
    52   46   47 1    
    53   46   48 1    
    54   48   49 1    
    55   49   50 1    
    56   50   51 ar   
    57   50   52 ar   
    58   50   53 1    
@<TRIPOS>SUBSTRUCTURE
     1 FAD702      1 GROUP   
@<TRIPOS>SET
ATOM$ORANGE STATIC     ATOMS   COLORGROUP SYSTEM 
54 5 5 6 6 8 8 10 10 12 12 14 14 16 16 17 17 20 \
20 22 22 24 24 27 27 29 29 31 31 32 32 33 33 34 34 35 \
35 36 36 37 37 38 38 40 40 41 41 42 42 44 44 46 46 48 \
48 

