#    Name: 6jlk_4_PHO
#    Modification time : Fri May 22 19:29:13 2020

@<TRIPOS>MOLECULE
6jlk_4_PHO
   64    69     1     0     0
SMALL
NO_CHARGES


@<TRIPOS>ATOM
      1 CHA        24.7660   11.4640   10.9150 C.2       1 PHO418      0.0000 
      2 CHB        22.5860   15.3660    8.9780 C.2       1 PHO418      0.0000 
      3 CHC        20.0280   12.4340    5.9500 C.2       1 PHO418      0.0000 
      4 CHD        22.1060    8.3750    7.9420 C.2       1 PHO418      0.0000 
      5 NA         23.5760   13.2560    9.6880 N.2       1 PHO418      0.0000 
      6 C1A        24.4440   12.8830   10.6220 C.2       1 PHO418      0.0000 
      7 C2A        25.0910   14.0020   11.3670 C.3       1 PHO418      0.0000 
      8 C3A        24.1670   15.1410   10.9630 C.3       1 PHO418      0.0000 
      9 C4A        23.4230   14.5080    9.8240 C.2       1 PHO418      0.0000 
     10 CMA        23.1760   15.4420   12.0810 C.3       1 PHO418      0.0000 
     11 CAA        26.4920   14.1990   10.8100 C.3       1 PHO418      0.0000 
     12 CBA        27.2470   15.1690   11.6960 C.3       1 PHO418      0.0000 
     13 CGA        28.4840   15.6740   10.9960 C.2       1 PHO418      0.0000 
     14 O1A        28.8220   15.2550    9.8980 O.2       1 PHO418      0.0000 
     15 O2A        29.2810   16.7050   11.6380 O.3       1 PHO418      0.0000 
     16 NB         21.4380   13.6730    7.5820 N.pl3     1 PHO418      0.0000 
     17 C1B        21.6470   14.9560    7.9150 C.2       1 PHO418      0.0000 
     18 C2B        20.8590   15.9380    7.1240 C.2       1 PHO418      0.0000 
     19 C3B        20.0930   15.0430    6.2220 C.2       1 PHO418      0.0000 
     20 C4B        20.5360   13.6690    6.5960 C.2       1 PHO418      0.0000 
     21 CMB        20.8570   17.4400    7.2510 C.3       1 PHO418      0.0000 
     22 CAB        19.1020   15.3560    5.1650 C.2       1 PHO418      0.0000 
     23 CBB        19.1210   16.5140    4.5320 C.2       1 PHO418      0.0000 
     24 NC         21.2820   10.5940    7.1880 N.2       1 PHO418      0.0000 
     25 C1C        20.3310   11.0350    6.3440 C.2       1 PHO418      0.0000 
     26 C2C        19.5650    9.9420    5.7010 C.2       1 PHO418      0.0000 
     27 C3C        20.1670    8.7010    6.2560 C.2       1 PHO418      0.0000 
     28 C4C        21.2090    9.2430    7.1610 C.2       1 PHO418      0.0000 
     29 CMC        18.4530   10.1030    4.7050 C.3       1 PHO418      0.0000 
     30 CAC        19.8150    7.2420    5.9970 C.3       1 PHO418      0.0000 
     31 CBC        20.9520    6.4930    5.3370 C.3       1 PHO418      0.0000 
     32 ND         23.1460   10.3280    9.0840 N.pl3     1 PHO418      0.0000 
     33 C1D        23.0560    8.9950    8.8850 C.2       1 PHO418      0.0000 
     34 C2D        23.8540    8.1170    9.7830 C.2       1 PHO418      0.0000 
     35 C3D        24.5370    9.1770   10.5760 C.2       1 PHO418      0.0000 
     36 C4D        24.0830   10.4020   10.1190 C.2       1 PHO418      0.0000 
     37 CMD        24.0420    6.6310    9.9330 C.3       1 PHO418      0.0000 
     38 CAD        25.5260    9.3880   11.6660 C.2       1 PHO418      0.0000 
     39 OBD        26.1400    8.4620   12.2940 O.2       1 PHO418      0.0000 
     40 CBD        25.6820   10.8390   11.9040 C.3       1 PHO418      0.0000 
     41 CGD        25.2030   11.1390   13.2990 C.2       1 PHO418      0.0000 
     42 O1D        25.9570   11.1420   14.2580 O.2       1 PHO418      0.0000 
     43 O2D        23.8060   11.4250   13.5570 O.3       1 PHO418      0.0000 
     44 CED        23.3640   11.5620   14.9050 C.3       1 PHO418      0.0000 
     45 C1         30.4440   17.1370   10.9550 C.3       1 PHO418      0.0000 
     46 C2         30.0860   18.3320   10.1100 C.2       1 PHO418      0.0000 
     47 C3         30.5350   18.3620    8.8520 C.2       1 PHO418      0.0000 
     48 C4         31.3560   17.2130    8.3570 C.3       1 PHO418      0.0000 
     49 C5         30.2200   19.5270    7.9490 C.3       1 PHO418      0.0000 
     50 C6         29.4750   19.0510    6.7090 C.3       1 PHO418      0.0000 
     51 C7         29.1840   20.2190    5.7710 C.3       1 PHO418      0.0000 
     52 C8         28.1730   19.8340    4.6980 C.3       1 PHO418      0.0000 
     53 C9         28.5460   18.4880    4.0810 C.3       1 PHO418      0.0000 
     54 C10        28.0890   20.9260    3.6320 C.3       1 PHO418      0.0000 
     55 C11        27.7460   22.2960    4.2140 C.3       1 PHO418      0.0000 
     56 C12        26.2940   22.4000    4.6730 C.3       1 PHO418      0.0000 
     57 C13        25.9920   23.8130    5.1700 C.3       1 PHO418      0.0000 
     58 C14        26.8450   24.1280    6.3930 C.3       1 PHO418      0.0000 
     59 C15        24.5030   23.9690    5.4790 C.3       1 PHO418      0.0000 
     60 C16        23.6580   23.9750    4.2080 C.3       1 PHO418      0.0000 
     61 C17        22.1690   24.1300    4.5020 C.3       1 PHO418      0.0000 
     62 C18        21.4080   24.4940    3.2250 C.3       1 PHO418      0.0000 
     63 C19        19.9470   24.8210    3.5260 C.3       1 PHO418      0.0000 
     64 C20        21.5120   23.4010    2.1570 C.3       1 PHO418      0.0000 
@<TRIPOS>BOND
     1    1    6 2    
     2    1   36 1    
     3    1   40 1    
     4    2    9 1    
     5    2   17 2    
     6    3   20 2    
     7    3   25 1    
     8    4   28 2    
     9    4   33 1    
    10    5    6 1    
    11    5    9 2    
    12    6    7 1    
    13    7    8 1    
    14    7   11 1    
    15    8    9 1    
    16    8   10 1    
    17   11   12 1    
    18   12   13 1    
    19   13   14 2    
    20   13   15 1    
    21   15   45 1    
    22   16   17 1    
    23   16   20 1    
    24   17   18 1    
    25   18   19 2    
    26   18   21 1    
    27   19   20 1    
    28   19   22 1    
    29   22   23 2    
    30   24   25 2    
    31   24   28 1    
    32   25   26 1    
    33   26   27 2    
    34   26   29 1    
    35   27   28 1    
    36   27   30 1    
    37   30   31 1    
    38   32   33 1    
    39   32   36 1    
    40   33   34 2    
    41   34   35 1    
    42   34   37 1    
    43   35   36 2    
    44   35   38 1    
    45   38   39 2    
    46   38   40 1    
    47   40   41 1    
    48   41   42 2    
    49   41   43 1    
    50   43   44 1    
    51   45   46 1    
    52   46   47 2    
    53   47   48 1    
    54   47   49 1    
    55   49   50 1    
    56   50   51 1    
    57   51   52 1    
    58   52   53 1    
    59   52   54 1    
    60   54   55 1    
    61   55   56 1    
    62   56   57 1    
    63   57   58 1    
    64   57   59 1    
    65   59   60 1    
    66   60   61 1    
    67   61   62 1    
    68   62   63 1    
    69   62   64 1    
@<TRIPOS>SUBSTRUCTURE
     1 PHO418      1 GROUP   
@<TRIPOS>SET

