#    Name: 6jlk_2_PHO
#    Modification time : Fri May 22 19:28:48 2020

@<TRIPOS>MOLECULE
6jlk_2_PHO
   64    69     1     0     0
SMALL
NO_CHARGES


@<TRIPOS>ATOM
      1 CHA         9.9200  -58.0480  -32.2250 C.2       1 PHO409      0.0000 
      2 CHB        10.1480  -57.3720  -37.0200 C.2       1 PHO409      0.0000 
      3 CHC        12.0310  -52.8440  -36.3870 C.2       1 PHO409      0.0000 
      4 CHD        11.9660  -53.5110  -31.4500 C.2       1 PHO409      0.0000 
      5 NA         10.0910  -57.4370  -34.6020 N.2       1 PHO409      0.0000 
      6 C1A         9.7440  -58.3170  -33.6770 C.2       1 PHO409      0.0000 
      7 C2A         9.1650  -59.5980  -34.2010 C.3       1 PHO409      0.0000 
      8 C3A         9.5190  -59.4500  -35.6730 C.3       1 PHO409      0.0000 
      9 C4A         9.9430  -58.0070  -35.7170 C.2       1 PHO409      0.0000 
     10 CMA        10.6830  -60.3510  -36.0800 C.3       1 PHO409      0.0000 
     11 CAA         7.6540  -59.5600  -34.0290 C.3       1 PHO409      0.0000 
     12 CBA         7.0570  -60.8990  -34.4410 C.3       1 PHO409      0.0000 
     13 CGA         5.5590  -60.7970  -34.5620 C.2       1 PHO409      0.0000 
     14 O1A         4.9630  -59.7530  -34.3370 O.2       1 PHO409      0.0000 
     15 O2A         4.8060  -61.9660  -34.9700 O.3       1 PHO409      0.0000 
     16 NB         11.0810  -55.1440  -36.4160 N.pl3     1 PHO409      0.0000 
     17 C1B        10.6800  -56.0300  -37.3370 C.2       1 PHO409      0.0000 
     18 C2B        10.8220  -55.5610  -38.7370 C.2       1 PHO409      0.0000 
     19 C3B        11.3900  -54.1980  -38.5470 C.2       1 PHO409      0.0000 
     20 C4B        11.5030  -54.0510  -37.0660 C.2       1 PHO409      0.0000 
     21 CMB        10.4640  -56.3130  -39.9900 C.3       1 PHO409      0.0000 
     22 CAB        11.7680  -53.1700  -39.5480 C.2       1 PHO409      0.0000 
     23 CBB        11.1270  -53.0910  -40.7050 C.2       1 PHO409      0.0000 
     24 NC         11.8310  -53.5040  -33.9430 N.2       1 PHO409      0.0000 
     25 C1C        12.2170  -52.6700  -34.9260 C.2       1 PHO409      0.0000 
     26 C2C        12.8990  -51.4460  -34.4220 C.2       1 PHO409      0.0000 
     27 C3C        12.8910  -51.6230  -32.9460 C.2       1 PHO409      0.0000 
     28 C4C        12.2120  -52.9300  -32.7830 C.2       1 PHO409      0.0000 
     29 CMC        13.4510  -50.3090  -35.2330 C.3       1 PHO409      0.0000 
     30 CAC        13.4460  -50.7240  -31.8610 C.3       1 PHO409      0.0000 
     31 CBC        12.3460  -50.1420  -30.9950 C.3       1 PHO409      0.0000 
     32 ND         10.9900  -55.5770  -32.3990 N.pl3     1 PHO409      0.0000 
     33 C1D        11.3350  -54.8360  -31.3310 C.2       1 PHO409      0.0000 
     34 C2D        11.1540  -55.4420  -29.9870 C.2       1 PHO409      0.0000 
     35 C3D        10.5730  -56.7400  -30.4180 C.2       1 PHO409      0.0000 
     36 C4D        10.5100  -56.7440  -31.7950 C.2       1 PHO409      0.0000 
     37 CMD        11.4150  -55.0060  -28.5680 C.3       1 PHO409      0.0000 
     38 CAD        10.0390  -58.0260  -29.8960 C.2       1 PHO409      0.0000 
     39 OBD         9.9560  -58.3380  -28.6600 O.2       1 PHO409      0.0000 
     40 CBD         9.6280  -58.8790  -31.0350 C.3       1 PHO409      0.0000 
     41 CGD        10.5450  -60.0680  -31.0860 C.2       1 PHO409      0.0000 
     42 O1D        10.2750  -61.1210  -30.5290 O.2       1 PHO409      0.0000 
     43 O2D        11.8040  -59.9620  -31.8020 O.3       1 PHO409      0.0000 
     44 CED        12.7770  -61.0030  -31.7100 C.3       1 PHO409      0.0000 
     45 C1          3.4250  -61.8020  -35.2300 C.3       1 PHO409      0.0000 
     46 C2          3.2580  -61.3890  -36.6700 C.2       1 PHO409      0.0000 
     47 C3          2.2680  -60.5390  -36.9560 C.2       1 PHO409      0.0000 
     48 C4          1.3900  -60.0400  -35.8450 C.3       1 PHO409      0.0000 
     49 C5          2.0470  -60.0830  -38.3770 C.3       1 PHO409      0.0000 
     50 C6          2.2470  -58.5720  -38.4910 C.3       1 PHO409      0.0000 
     51 C7          1.8570  -58.1290  -39.8990 C.3       1 PHO409      0.0000 
     52 C8          2.3880  -56.7460  -40.2630 C.3       1 PHO409      0.0000 
     53 C9          2.1130  -55.7450  -39.1410 C.3       1 PHO409      0.0000 
     54 C10         1.7730  -56.3000  -41.5930 C.3       1 PHO409      0.0000 
     55 C11         1.9820  -57.3250  -42.7150 C.3       1 PHO409      0.0000 
     56 C12         3.4410  -57.3950  -43.1690 C.3       1 PHO409      0.0000 
     57 C13         3.6510  -58.3670  -44.3330 C.3       1 PHO409      0.0000 
     58 C14         3.3960  -59.8160  -43.9060 C.3       1 PHO409      0.0000 
     59 C15         5.0640  -58.2240  -44.9040 C.3       1 PHO409      0.0000 
     60 C16         5.2770  -56.9520  -45.7280 C.3       1 PHO409      0.0000 
     61 C17         6.7420  -56.7800  -46.1370 C.3       1 PHO409      0.0000 
     62 C18         6.9210  -55.6150  -47.1100 C.3       1 PHO409      0.0000 
     63 C19         8.3000  -55.6350  -47.7610 C.3       1 PHO409      0.0000 
     64 C20         6.6780  -54.2650  -46.4330 C.3       1 PHO409      0.0000 
@<TRIPOS>BOND
     1    1    6 2    
     2    1   36 1    
     3    1   40 1    
     4    2    9 1    
     5    2   17 2    
     6    3   20 2    
     7    3   25 1    
     8    4   28 2    
     9    4   33 1    
    10    5    6 1    
    11    5    9 2    
    12    6    7 1    
    13    7    8 1    
    14    7   11 1    
    15    8    9 1    
    16    8   10 1    
    17   11   12 1    
    18   12   13 1    
    19   13   14 2    
    20   13   15 1    
    21   15   45 1    
    22   16   17 1    
    23   16   20 1    
    24   17   18 1    
    25   18   19 2    
    26   18   21 1    
    27   19   20 1    
    28   19   22 1    
    29   22   23 2    
    30   24   25 2    
    31   24   28 1    
    32   25   26 1    
    33   26   27 2    
    34   26   29 1    
    35   27   28 1    
    36   27   30 1    
    37   30   31 1    
    38   32   33 1    
    39   32   36 1    
    40   33   34 2    
    41   34   35 1    
    42   34   37 1    
    43   35   36 2    
    44   35   38 1    
    45   38   39 2    
    46   38   40 1    
    47   40   41 1    
    48   41   42 2    
    49   41   43 1    
    50   43   44 1    
    51   45   46 1    
    52   46   47 2    
    53   47   48 1    
    54   47   49 1    
    55   49   50 1    
    56   50   51 1    
    57   51   52 1    
    58   52   53 1    
    59   52   54 1    
    60   54   55 1    
    61   55   56 1    
    62   56   57 1    
    63   57   58 1    
    64   57   59 1    
    65   59   60 1    
    66   60   61 1    
    67   61   62 1    
    68   62   63 1    
    69   62   64 1    
@<TRIPOS>SUBSTRUCTURE
     1 PHO409      1 GROUP   
@<TRIPOS>SET

