#    Name: 6jlk_3_PHO
#    Modification time : Fri May 22 19:29:01 2020

@<TRIPOS>MOLECULE
6jlk_3_PHO
   64    69     1     0     0
SMALL
NO_CHARGES


@<TRIPOS>ATOM
      1 CHA         1.8750    0.6770    7.9240 C.2       1 PHO411      0.0000 
      2 CHB         2.4610    1.6600    3.2080 C.2       1 PHO411      0.0000 
      3 CHC         4.9780    5.7510    4.3720 C.2       1 PHO411      0.0000 
      4 CHD         4.4830    4.7970    9.2180 C.2       1 PHO411      0.0000 
      5 NA          2.4090    1.3350    5.6140 N.2       1 PHO411      0.0000 
      6 C1A         1.8190    0.4970    6.4490 C.2       1 PHO411      0.0000 
      7 C2A         1.1320   -0.6650    5.7940 C.3       1 PHO411      0.0000 
      8 C3A         1.5340   -0.4270    4.3440 C.3       1 PHO411      0.0000 
      9 C4A         2.1650    0.9280    4.4440 C.2       1 PHO411      0.0000 
     10 CMA         2.5930   -1.4180    3.8690 C.3       1 PHO411      0.0000 
     11 CAA        -0.3730   -0.6260    5.9390 C.3       1 PHO411      0.0000 
     12 CBA        -0.9170   -1.9020    5.3030 C.3       1 PHO411      0.0000 
     13 CGA        -2.4020   -1.7170    5.1670 C.2       1 PHO411      0.0000 
     14 O1A        -2.9560   -0.6880    5.4860 O.2       1 PHO411      0.0000 
     15 O2A        -3.1800   -2.7920    4.6560 O.3       1 PHO411      0.0000 
     16 NB          3.7000    3.6270    4.0790 N.pl3     1 PHO411      0.0000 
     17 C1B         3.1940    2.9290    3.0440 C.2       1 PHO411      0.0000 
     18 C2B         3.4280    3.5480    1.7120 C.2       1 PHO411      0.0000 
     19 C3B         4.1810    4.7730    2.0790 C.2       1 PHO411      0.0000 
     20 C4B         4.2870    4.7160    3.5680 C.2       1 PHO411      0.0000 
     21 CMB         3.0090    3.0730    0.3500 C.3       1 PHO411      0.0000 
     22 CAB         4.7230    5.8380    1.2030 C.2       1 PHO411      0.0000 
     23 CBB         3.9870    6.3580    0.2320 C.2       1 PHO411      0.0000 
     24 NC          4.5840    4.9340    6.7380 N.2       1 PHO411      0.0000 
     25 C1C         5.1600    5.7560    5.8320 C.2       1 PHO411      0.0000 
     26 C2C         5.9350    6.8690    6.4380 C.2       1 PHO411      0.0000 
     27 C3C         5.7760    6.6470    7.8940 C.2       1 PHO411      0.0000 
     28 C4C         4.9280    5.4230    7.9540 C.2       1 PHO411      0.0000 
     29 CMC         6.6930    7.9680    5.7470 C.3       1 PHO411      0.0000 
     30 CAC         6.3460    7.4790    9.0220 C.3       1 PHO411      0.0000 
     31 CBC         5.2320    8.0140    9.8890 C.3       1 PHO411      0.0000 
     32 ND          3.3300    2.9330    8.0510 N.pl3     1 PHO411      0.0000 
     33 C1D         3.6610    3.5680    9.1940 C.2       1 PHO411      0.0000 
     34 C2D         3.2040    2.9430   10.4680 C.2       1 PHO411      0.0000 
     35 C3D         2.4800    1.7740    9.9000 C.2       1 PHO411      0.0000 
     36 C4D         2.5950    1.8410    8.5140 C.2       1 PHO411      0.0000 
     37 CMD         3.3420    3.2750   11.9240 C.3       1 PHO411      0.0000 
     38 CAD         1.6860    0.5760   10.2810 C.2       1 PHO411      0.0000 
     39 OBD         1.3740    0.1990   11.4720 O.2       1 PHO411      0.0000 
     40 CBD         1.2660   -0.0990    9.0290 C.3       1 PHO411      0.0000 
     41 CGD         1.6510   -1.5410    9.0090 C.2       1 PHO411      0.0000 
     42 O1D         0.7800   -2.3610    9.2780 O.2       1 PHO411      0.0000 
     43 O2D         3.0130   -1.9390    8.6880 O.3       1 PHO411      0.0000 
     44 CED         3.3590   -3.3220    8.6880 C.3       1 PHO411      0.0000 
     45 C1         -4.5330   -2.6670    4.2380 C.3       1 PHO411      0.0000 
     46 C2         -4.5250   -2.6580    2.7200 C.2       1 PHO411      0.0000 
     47 C3         -4.2190   -3.7150    1.9340 C.2       1 PHO411      0.0000 
     48 C4         -3.8320   -5.0400    2.5270 C.3       1 PHO411      0.0000 
     49 C5         -4.2360   -3.5770    0.4090 C.3       1 PHO411      0.0000 
     50 C6         -4.9980   -2.3410   -0.0660 C.3       1 PHO411      0.0000 
     51 C7         -4.7250   -2.1290   -1.5730 C.3       1 PHO411      0.0000 
     52 C8         -5.5300   -0.9910   -2.2120 C.3       1 PHO411      0.0000 
     53 C9         -7.0310   -1.2800   -2.1630 C.3       1 PHO411      0.0000 
     54 C10        -5.0550   -0.7630   -3.6600 C.3       1 PHO411      0.0000 
     55 C11        -5.8790    0.2900   -4.3870 C.3       1 PHO411      0.0000 
     56 C12        -5.8560    1.6510   -3.6820 C.3       1 PHO411      0.0000 
     57 C13        -4.4380    2.1770   -3.4770 C.3       1 PHO411      0.0000 
     58 C14        -4.4440    3.4030   -2.5620 C.3       1 PHO411      0.0000 
     59 C15        -3.7670    2.4410   -4.8230 C.3       1 PHO411      0.0000 
     60 C16        -2.4090    3.1330   -4.6810 C.3       1 PHO411      0.0000 
     61 C17        -1.6790    3.3090   -6.0160 C.3       1 PHO411      0.0000 
     62 C18        -0.2610    3.8640   -5.8310 C.3       1 PHO411      0.0000 
     63 C19        -0.2550    5.3280   -5.3670 C.3       1 PHO411      0.0000 
     64 C20         0.5770    3.6840   -7.0890 C.3       1 PHO411      0.0000 
@<TRIPOS>BOND
     1    1    6 2    
     2    1   36 1    
     3    1   40 1    
     4    2    9 1    
     5    2   17 2    
     6    3   20 2    
     7    3   25 1    
     8    4   28 2    
     9    4   33 1    
    10    5    6 1    
    11    5    9 2    
    12    6    7 1    
    13    7    8 1    
    14    7   11 1    
    15    8    9 1    
    16    8   10 1    
    17   11   12 1    
    18   12   13 1    
    19   13   14 2    
    20   13   15 1    
    21   15   45 1    
    22   16   17 1    
    23   16   20 1    
    24   17   18 1    
    25   18   19 2    
    26   18   21 1    
    27   19   20 1    
    28   19   22 1    
    29   22   23 2    
    30   24   25 2    
    31   24   28 1    
    32   25   26 1    
    33   26   27 2    
    34   26   29 1    
    35   27   28 1    
    36   27   30 1    
    37   30   31 1    
    38   32   33 1    
    39   32   36 1    
    40   33   34 2    
    41   34   35 1    
    42   34   37 1    
    43   35   36 2    
    44   35   38 1    
    45   38   39 2    
    46   38   40 1    
    47   40   41 1    
    48   41   42 2    
    49   41   43 1    
    50   43   44 1    
    51   45   46 1    
    52   46   47 2    
    53   47   48 1    
    54   47   49 1    
    55   49   50 1    
    56   50   51 1    
    57   51   52 1    
    58   52   53 1    
    59   52   54 1    
    60   54   55 1    
    61   55   56 1    
    62   56   57 1    
    63   57   58 1    
    64   57   59 1    
    65   59   60 1    
    66   60   61 1    
    67   61   62 1    
    68   62   63 1    
    69   62   64 1    
@<TRIPOS>SUBSTRUCTURE
     1 PHO411      1 GROUP   
@<TRIPOS>SET

