#    Name: 6jlk_1_PHO
#    Modification time : Fri May 22 19:28:36 2020

@<TRIPOS>MOLECULE
6jlk_1_PHO
   64    69     1     0     0
SMALL
NO_CHARGES


@<TRIPOS>ATOM
      1 CHA        32.0450  -45.3130  -31.9180 C.2       1 PHO408      0.0000 
      2 CHB        29.4430  -41.7570  -34.0020 C.2       1 PHO408      0.0000 
      3 CHC        26.5530  -44.9460  -36.3990 C.2       1 PHO408      0.0000 
      4 CHD        29.0260  -48.6520  -34.1660 C.2       1 PHO408      0.0000 
      5 NA         30.4990  -43.7140  -32.9790 N.2       1 PHO408      0.0000 
      6 C1A        31.5680  -43.9370  -32.2330 C.2       1 PHO408      0.0000 
      7 C2A        32.2310  -42.7020  -31.6990 C.3       1 PHO408      0.0000 
      8 C3A        31.2220  -41.6520  -32.1480 C.3       1 PHO408      0.0000 
      9 C4A        30.3520  -42.4610  -33.0710 C.2       1 PHO408      0.0000 
     10 CMA        30.3810  -41.1800  -30.9640 C.3       1 PHO408      0.0000 
     11 CAA        33.6060  -42.4660  -32.3070 C.3       1 PHO408      0.0000 
     12 CBA        34.2620  -41.3080  -31.5550 C.3       1 PHO408      0.0000 
     13 CGA        35.5110  -40.8320  -32.2570 C.2       1 PHO408      0.0000 
     14 O1A        35.8490  -41.2600  -33.3510 O.2       1 PHO408      0.0000 
     15 O2A        36.3190  -39.8260  -31.6020 O.3       1 PHO408      0.0000 
     16 NB         28.1310  -43.5720  -35.0600 N.pl3     1 PHO408      0.0000 
     17 C1B        28.4060  -42.2650  -34.9290 C.2       1 PHO408      0.0000 
     18 C2B        27.5760  -41.3930  -35.8100 C.2       1 PHO408      0.0000 
     19 C3B        26.7190  -42.3740  -36.5220 C.2       1 PHO408      0.0000 
     20 C4B        27.1580  -43.6730  -35.9780 C.2       1 PHO408      0.0000 
     21 CMB        27.5840  -39.8990  -35.9640 C.3       1 PHO408      0.0000 
     22 CAB        25.6530  -42.1760  -37.5510 C.2       1 PHO408      0.0000 
     23 CBB        25.7510  -41.1840  -38.4210 C.2       1 PHO408      0.0000 
     24 NC         28.0490  -46.5480  -35.1430 N.2       1 PHO408      0.0000 
     25 C1C        27.0160  -46.2740  -35.9550 C.2       1 PHO408      0.0000 
     26 C2C        26.2670  -47.4690  -36.4190 C.2       1 PHO408      0.0000 
     27 C3C        26.9800  -48.5900  -35.7570 C.2       1 PHO408      0.0000 
     28 C4C        28.0570  -47.8970  -34.9950 C.2       1 PHO408      0.0000 
     29 CMC        25.0690  -47.4960  -37.3350 C.3       1 PHO408      0.0000 
     30 CAC        26.7040  -50.0740  -35.8320 C.3       1 PHO408      0.0000 
     31 CBC        27.7970  -50.7220  -36.6520 C.3       1 PHO408      0.0000 
     32 ND         30.1610  -46.6330  -33.2930 N.pl3     1 PHO408      0.0000 
     33 C1D        30.0920  -47.9750  -33.3970 C.2       1 PHO408      0.0000 
     34 C2D        31.1190  -48.7740  -32.6660 C.2       1 PHO408      0.0000 
     35 C3D        31.8940  -47.6510  -32.0770 C.2       1 PHO408      0.0000 
     36 C4D        31.2860  -46.4670  -32.4880 C.2       1 PHO408      0.0000 
     37 CMD        31.4170  -50.2430  -32.4890 C.3       1 PHO408      0.0000 
     38 CAD        33.0740  -47.3280  -31.2210 C.2       1 PHO408      0.0000 
     39 OBD        33.8600  -48.1980  -30.6920 O.2       1 PHO408      0.0000 
     40 CBD        33.2000  -45.8340  -31.1310 C.3       1 PHO408      0.0000 
     41 CGD        33.1480  -45.2890  -29.7360 C.2       1 PHO408      0.0000 
     42 O1D        34.1450  -44.8570  -29.1750 O.2       1 PHO408      0.0000 
     43 O2D        31.8860  -45.2660  -29.0420 O.3       1 PHO408      0.0000 
     44 CED        31.8590  -44.8300  -27.6790 C.3       1 PHO408      0.0000 
     45 C1         37.2650  -39.0490  -32.3260 C.3       1 PHO408      0.0000 
     46 C2         36.6100  -37.7910  -32.8720 C.2       1 PHO408      0.0000 
     47 C3         36.3560  -36.7260  -32.1040 C.2       1 PHO408      0.0000 
     48 C4         36.7050  -36.7620  -30.6380 C.3       1 PHO408      0.0000 
     49 C5         35.6960  -35.4870  -32.6860 C.3       1 PHO408      0.0000 
     50 C6         35.8610  -35.3750  -34.1990 C.3       1 PHO408      0.0000 
     51 C7         35.1130  -34.1370  -34.7090 C.3       1 PHO408      0.0000 
     52 C8         35.2910  -33.9100  -36.2060 C.3       1 PHO408      0.0000 
     53 C9         36.7280  -33.4970  -36.5150 C.3       1 PHO408      0.0000 
     54 C10        34.2700  -32.8780  -36.7020 C.3       1 PHO408      0.0000 
     55 C11        34.5090  -32.4570  -38.1560 C.3       1 PHO408      0.0000 
     56 C12        34.2920  -33.6130  -39.1420 C.3       1 PHO408      0.0000 
     57 C13        32.9370  -34.3050  -38.9900 C.3       1 PHO408      0.0000 
     58 C14        32.9560  -35.6390  -39.7340 C.3       1 PHO408      0.0000 
     59 C15        31.7920  -33.3950  -39.4530 C.3       1 PHO408      0.0000 
     60 C16        30.4460  -34.1140  -39.4430 C.3       1 PHO408      0.0000 
     61 C17        29.2650  -33.1820  -39.7320 C.3       1 PHO408      0.0000 
     62 C18        27.9650  -33.9850  -39.6160 C.3       1 PHO408      0.0000 
     63 C19        27.9060  -35.0540  -40.7130 C.3       1 PHO408      0.0000 
     64 C20        26.7250  -33.0850  -39.6510 C.3       1 PHO408      0.0000 
@<TRIPOS>BOND
     1    1    6 2    
     2    1   36 1    
     3    1   40 1    
     4    2    9 1    
     5    2   17 2    
     6    3   20 2    
     7    3   25 1    
     8    4   28 2    
     9    4   33 1    
    10    5    6 1    
    11    5    9 2    
    12    6    7 1    
    13    7    8 1    
    14    7   11 1    
    15    8    9 1    
    16    8   10 1    
    17   11   12 1    
    18   12   13 1    
    19   13   14 2    
    20   13   15 1    
    21   15   45 1    
    22   16   17 1    
    23   16   20 1    
    24   17   18 1    
    25   18   19 2    
    26   18   21 1    
    27   19   20 1    
    28   19   22 1    
    29   22   23 2    
    30   24   25 2    
    31   24   28 1    
    32   25   26 1    
    33   26   27 2    
    34   26   29 1    
    35   27   28 1    
    36   27   30 1    
    37   30   31 1    
    38   32   33 1    
    39   32   36 1    
    40   33   34 2    
    41   34   35 1    
    42   34   37 1    
    43   35   36 2    
    44   35   38 1    
    45   38   39 2    
    46   38   40 1    
    47   40   41 1    
    48   41   42 2    
    49   41   43 1    
    50   43   44 1    
    51   45   46 1    
    52   46   47 2    
    53   47   48 1    
    54   47   49 1    
    55   49   50 1    
    56   50   51 1    
    57   51   52 1    
    58   52   53 1    
    59   52   54 1    
    60   54   55 1    
    61   55   56 1    
    62   56   57 1    
    63   57   58 1    
    64   57   59 1    
    65   59   60 1    
    66   60   61 1    
    67   61   62 1    
    68   62   63 1    
    69   62   64 1    
@<TRIPOS>SUBSTRUCTURE
     1 PHO408      1 GROUP   
@<TRIPOS>SET

