#    Name: 5vlm_7_CVI
#    Modification time : Fri May 22 19:13:19 2020

@<TRIPOS>MOLECULE
5vlm_7_CVI
   58    60     1     0     0
SMALL
NO_CHARGES


@<TRIPOS>ATOM
      1 C1          2.9310   40.3050  -55.8600 C.2       1 CVI301      0.0000 
      2 C2          3.1000   38.8720  -55.9740 C.ar      1 CVI301      0.0000 
      3 C3          3.9990   38.1510  -55.1560 C.ar      1 CVI301      0.0000 
      4 C4          4.1520   36.7730  -55.2730 C.ar      1 CVI301      0.0000 
      5 C5          3.4130   36.0160  -56.2270 C.ar      1 CVI301      0.0000 
      6 C6          2.5120   36.7490  -57.0500 C.ar      1 CVI301      0.0000 
      7 C7          2.3650   38.1240  -56.9210 C.ar      1 CVI301      0.0000 
      8 C8          2.4500   41.0900  -56.9700 C.2       1 CVI301      0.0000 
      9 C9          1.5160   42.1310  -56.7650 C.2       1 CVI301      0.0000 
     10 C10         1.0490   42.9080  -57.8180 C.2       1 CVI301      0.0000 
     11 C11         1.4890   42.6940  -59.1580 C.2       1 CVI301      0.0000 
     12 C12         2.4310   41.6470  -59.3480 C.2       1 CVI301      0.0000 
     13 C13         2.8990   40.8760  -58.2900 C.2       1 CVI301      0.0000 
     14 C14         3.3290   41.0280  -54.6760 C.ar      1 CVI301      0.0000 
     15 C15         3.0610   40.5660  -53.3680 C.ar      1 CVI301      0.0000 
     16 C16         3.4550   41.2940  -52.2480 C.ar      1 CVI301      0.0000 
     17 C17         4.1380   42.5440  -52.3630 C.ar      1 CVI301      0.0000 
     18 C18         4.3920   42.9960  -53.6860 C.ar      1 CVI301      0.0000 
     19 C19         4.0000   42.2630  -54.8000 C.ar      1 CVI301      0.0000 
     20 C20         4.5090   33.9370  -55.4700 C.3       1 CVI301      0.0000 
     21 C21         2.8450   33.8150  -57.2940 C.3       1 CVI301      0.0000 
     22 C22         0.0430   44.5660  -60.0460 C.3       1 CVI301      0.0000 
     23 C23         1.4440   43.2850  -61.5930 C.3       1 CVI301      0.0000 
     24 C24         4.2700   42.8070  -49.8570 C.3       1 CVI301      0.0000 
     25 C25         5.2250   44.5480  -51.2870 C.3       1 CVI301      0.0000 
     26 N1          3.5780   34.6150  -56.3380 N.pl3     1 CVI301      0.0000 
     27 N2          1.0030   43.4960  -60.2340 N.pl3     1 CVI301      0.0000 
     28 N3          4.5330   43.2790  -51.2020 N.pl3     1 CVI301      0.0000 
     29 H31         4.4980   38.6100  -54.5200 H         1 CVI301      0.0000 
     30 H41         4.7570   36.3520  -54.7070 H         1 CVI301      0.0000 
     31 H61         1.9990   36.3120  -57.6910 H         1 CVI301      0.0000 
     32 H71         1.7660   38.5690  -57.4770 H         1 CVI301      0.0000 
     33 H91         1.2090   42.2980  -55.9030 H         1 CVI301      0.0000 
     34 H101        0.4320   43.5800  -57.6350 H         1 CVI301      0.0000 
     35 H121        2.7550   41.4620  -60.2000 H         1 CVI301      0.0000 
     36 H131        3.5140   40.1980  -58.4550 H         1 CVI301      0.0000 
     37 H151        2.6200   39.7550  -53.2550 H         1 CVI301      0.0000 
     38 H161        3.2620   40.9500  -51.4060 H         1 CVI301      0.0000 
     39 H181        4.8330   43.8030  -53.8260 H         1 CVI301      0.0000 
     40 H191        4.1830   42.5940  -55.6500 H         1 CVI301      0.0000 
     41 H201        5.4030   34.2890  -55.6060 H         1 CVI301      0.0000 
     42 H202        4.5280   32.9780  -55.6190 H         1 CVI301      0.0000 
     43 H203        4.2570   34.1030  -54.5480 H         1 CVI301      0.0000 
     44 H211        2.3220   33.1540  -56.8130 H         1 CVI301      0.0000 
     45 H212        2.2460   34.3450  -57.8430 H         1 CVI301      0.0000 
     46 H213        3.4630   33.3450  -57.8750 H         1 CVI301      0.0000 
     47 H221       -0.7740   44.4230  -60.5490 H         1 CVI301      0.0000 
     48 H222        0.4490   45.3940  -60.3470 H         1 CVI301      0.0000 
     49 H223       -0.1840   44.6530  -59.1070 H         1 CVI301      0.0000 
     50 H231        2.0840   42.5620  -61.6800 H         1 CVI301      0.0000 
     51 H232        1.8440   44.1010  -61.9310 H         1 CVI301      0.0000 
     52 H233        0.6680   43.0730  -62.1350 H         1 CVI301      0.0000 
     53 H241        3.8060   41.9550  -49.8470 H         1 CVI301      0.0000 
     54 H242        5.1200   42.7000  -49.4010 H         1 CVI301      0.0000 
     55 H243        3.7350   43.4540  -49.3710 H         1 CVI301      0.0000 
     56 H251        6.0820   44.4570  -50.8410 H         1 CVI301      0.0000 
     57 H252        4.7400   45.2770  -50.8700 H         1 CVI301      0.0000 
     58 H253        5.3810   44.7670  -52.2190 H         1 CVI301      0.0000 
@<TRIPOS>BOND
     1    1    2 1    
     2    1    8 2    
     3    1   14 1    
     4    2    3 ar   
     5    2    7 ar   
     6    3    4 ar   
     7    4    5 ar   
     8    3   29 1    
     9    5    6 ar   
    10    4   30 1    
    11    5   26 1    
    12    6    7 ar   
    13    8    9 1    
    14    6   31 1    
    15    7   32 1    
    16    8   13 1    
    17    9   10 2    
    18   10   11 1    
    19    9   33 1    
    20   11   12 1    
    21   10   34 1    
    22   11   27 2    
    23   12   13 2    
    24   14   15 ar   
    25   12   35 1    
    26   13   36 1    
    27   14   19 ar   
    28   15   16 ar   
    29   16   17 ar   
    30   15   37 1    
    31   17   18 ar   
    32   16   38 1    
    33   17   28 1    
    34   18   19 ar   
    35   20   26 1    
    36   18   39 1    
    37   19   40 1    
    38   20   41 1    
    39   20   42 1    
    40   20   43 1    
    41   21   26 1    
    42   21   44 1    
    43   21   45 1    
    44   21   46 1    
    45   22   27 1    
    46   22   47 1    
    47   22   48 1    
    48   22   49 1    
    49   23   27 1    
    50   23   50 1    
    51   23   51 1    
    52   23   52 1    
    53   24   28 1    
    54   24   53 1    
    55   24   54 1    
    56   24   55 1    
    57   25   28 1    
    58   25   56 1    
    59   25   57 1    
    60   25   58 1    
@<TRIPOS>SUBSTRUCTURE
     1 CVI301      1 GROUP   
@<TRIPOS>SET

