#    Name: 5vlm_4_CVI
#    Modification time : Fri May 22 19:13:05 2020

@<TRIPOS>MOLECULE
5vlm_4_CVI
   58    60     1     0     0
SMALL
NO_CHARGES


@<TRIPOS>ATOM
      1 C1         -1.0180   32.0870  -24.8240 C.2       1 CVI301      0.0000 
      2 C2         -1.9040   30.9570  -24.6660 C.ar      1 CVI301      0.0000 
      3 C3         -3.1060   30.8360  -25.3970 C.ar      1 CVI301      0.0000 
      4 C4         -3.9550   29.7450  -25.2380 C.ar      1 CVI301      0.0000 
      5 C5         -3.6580   28.6930  -24.3270 C.ar      1 CVI301      0.0000 
      6 C6         -2.4460   28.8240  -23.5930 C.ar      1 CVI301      0.0000 
      7 C7         -1.6040   29.9170  -23.7610 C.ar      1 CVI301      0.0000 
      8 C8         -0.0730   32.4260  -23.7880 C.2       1 CVI301      0.0000 
      9 C9          1.2810   32.6660  -24.1100 C.2       1 CVI301      0.0000 
     10 C10         2.2170   33.0030  -23.1390 C.2       1 CVI301      0.0000 
     11 C11         1.8620   33.1280  -21.7640 C.2       1 CVI301      0.0000 
     12 C12         0.4910   32.8860  -21.4550 C.2       1 CVI301      0.0000 
     13 C13        -0.4440   32.5500  -22.4310 C.2       1 CVI301      0.0000 
     14 C14        -0.8300   32.7190  -26.1060 C.ar      1 CVI301      0.0000 
     15 C15        -0.8120   31.9930  -27.3190 C.ar      1 CVI301      0.0000 
     16 C16        -0.6190   32.6340  -28.5400 C.ar      1 CVI301      0.0000 
     17 C17        -0.4220   34.0470  -28.6310 C.ar      1 CVI301      0.0000 
     18 C18        -0.4360   34.7570  -27.3980 C.ar      1 CVI301      0.0000 
     19 C19        -0.6320   34.1130  -26.1830 C.ar      1 CVI301      0.0000 
     20 C20        -5.7370   27.5400  -24.9650 C.3       1 CVI301      0.0000 
     21 C21        -4.2780   26.4950  -23.2640 C.3       1 CVI301      0.0000 
     22 C22         4.2380   33.7220  -21.1020 C.3       1 CVI301      0.0000 
     23 C23         2.5210   33.6090  -19.3820 C.3       1 CVI301      0.0000 
     24 C24        -0.2050   33.9770  -31.1530 C.3       1 CVI301      0.0000 
     25 C25        -0.0180   36.1220  -30.0050 C.3       1 CVI301      0.0000 
     26 N1         -4.5310   27.5910  -24.1760 N.pl3     1 CVI301      0.0000 
     27 N2          2.8450   33.4750  -20.7830 N.pl3     1 CVI301      0.0000 
     28 N3         -0.2210   34.6920  -29.8930 N.pl3     1 CVI301      0.0000 
     29 H31        -3.3330   31.5040  -26.0030 H         1 CVI301      0.0000 
     30 H41        -4.7320   29.7190  -25.7490 H         1 CVI301      0.0000 
     31 H61        -2.1950   28.1690  -22.9820 H         1 CVI301      0.0000 
     32 H71        -0.8210   29.9670  -23.2610 H         1 CVI301      0.0000 
     33 H91         1.5520   32.5960  -24.9970 H         1 CVI301      0.0000 
     34 H101        3.0960   33.1490  -23.4020 H         1 CVI301      0.0000 
     35 H121        0.1970   32.9510  -20.5750 H         1 CVI301      0.0000 
     36 H131       -1.3280   32.3990  -22.1860 H         1 CVI301      0.0000 
     37 H151       -0.9390   31.0720  -27.2980 H         1 CVI301      0.0000 
     38 H161       -0.6180   32.1190  -29.3150 H         1 CVI301      0.0000 
     39 H181       -0.3130   35.6780  -27.3900 H         1 CVI301      0.0000 
     40 H191       -0.6340   34.6130  -25.3980 H         1 CVI301      0.0000 
     41 H201       -6.2330   26.7330  -24.7570 H         1 CVI301      0.0000 
     42 H202       -6.3140   28.3050  -24.8140 H         1 CVI301      0.0000 
     43 H203       -5.4970   27.5130  -25.9040 H         1 CVI301      0.0000 
     44 H211       -3.4390   26.6570  -22.8040 H         1 CVI301      0.0000 
     45 H212       -4.2220   25.6380  -23.7170 H         1 CVI301      0.0000 
     46 H213       -4.9820   26.4480  -22.6000 H         1 CVI301      0.0000 
     47 H221        4.5210   34.6180  -20.8580 H         1 CVI301      0.0000 
     48 H222        4.3540   33.6130  -22.0590 H         1 CVI301      0.0000 
     49 H223        4.8070   33.0840  -20.6440 H         1 CVI301      0.0000 
     50 H231        2.7030   34.4950  -19.0300 H         1 CVI301      0.0000 
     51 H232        3.0270   32.9580  -18.8710 H         1 CVI301      0.0000 
     52 H233        1.5750   33.4250  -19.2700 H         1 CVI301      0.0000 
     53 H241        0.6370   34.0760  -31.6240 H         1 CVI301      0.0000 
     54 H242       -0.3460   33.0350  -30.9690 H         1 CVI301      0.0000 
     55 H243       -0.9190   34.2930  -31.7290 H         1 CVI301      0.0000 
     56 H251       -0.7270   36.4870  -30.5570 H         1 CVI301      0.0000 
     57 H252        0.8330   36.3560  -30.4070 H         1 CVI301      0.0000 
     58 H253       -0.0710   36.5240  -29.1240 H         1 CVI301      0.0000 
@<TRIPOS>BOND
     1    1    2 1    
     2    1    8 2    
     3    1   14 1    
     4    2    3 ar   
     5    2    7 ar   
     6    3    4 ar   
     7    4    5 ar   
     8    3   29 1    
     9    5    6 ar   
    10    4   30 1    
    11    5   26 1    
    12    6    7 ar   
    13    8    9 1    
    14    6   31 1    
    15    7   32 1    
    16    8   13 1    
    17    9   10 2    
    18   10   11 1    
    19    9   33 1    
    20   11   12 1    
    21   10   34 1    
    22   11   27 2    
    23   12   13 2    
    24   14   15 ar   
    25   12   35 1    
    26   13   36 1    
    27   14   19 ar   
    28   15   16 ar   
    29   16   17 ar   
    30   15   37 1    
    31   17   18 ar   
    32   16   38 1    
    33   17   28 1    
    34   18   19 ar   
    35   20   26 1    
    36   18   39 1    
    37   19   40 1    
    38   20   41 1    
    39   20   42 1    
    40   20   43 1    
    41   21   26 1    
    42   21   44 1    
    43   21   45 1    
    44   21   46 1    
    45   22   27 1    
    46   22   47 1    
    47   22   48 1    
    48   22   49 1    
    49   23   27 1    
    50   23   50 1    
    51   23   51 1    
    52   23   52 1    
    53   24   28 1    
    54   24   53 1    
    55   24   54 1    
    56   24   55 1    
    57   25   28 1    
    58   25   56 1    
    59   25   57 1    
    60   25   58 1    
@<TRIPOS>SUBSTRUCTURE
     1 CVI301      1 GROUP   
@<TRIPOS>SET

