#    Name: 5vlm_5_CVI
#    Modification time : Fri May 22 19:13:10 2020

@<TRIPOS>MOLECULE
5vlm_5_CVI
   58    60     1     0     0
SMALL
NO_CHARGES


@<TRIPOS>ATOM
      1 C1        -53.6640   68.6590  -22.3640 C.2       1 CVI301      0.0000 
      2 C2        -54.5160   69.7170  -22.8560 C.ar      1 CVI301      0.0000 
      3 C3        -55.8820   69.7940  -22.5050 C.ar      1 CVI301      0.0000 
      4 C4        -56.7020   70.8110  -22.9750 C.ar      1 CVI301      0.0000 
      5 C5        -56.2110   71.8280  -23.8410 C.ar      1 CVI301      0.0000 
      6 C6        -54.8340   71.7430  -24.1920 C.ar      1 CVI301      0.0000 
      7 C7        -54.0210   70.7240  -23.7130 C.ar      1 CVI301      0.0000 
      8 C8        -52.4930   68.2410  -23.1010 C.2       1 CVI301      0.0000 
      9 C9        -51.2830   67.9400  -22.4330 C.2       1 CVI301      0.0000 
     10 C10       -50.1470   67.5260  -23.1220 C.2       1 CVI301      0.0000 
     11 C11       -50.1380   67.3840  -24.5410 C.2       1 CVI301      0.0000 
     12 C12       -51.3610   67.6910  -25.2020 C.2       1 CVI301      0.0000 
     13 C13       -52.4970   68.1000  -24.5060 C.2       1 CVI301      0.0000 
     14 C14       -53.8850   68.0740  -21.0630 C.ar      1 CVI301      0.0000 
     15 C15       -54.3460   68.8250  -19.9580 C.ar      1 CVI301      0.0000 
     16 C16       -54.5430   68.2360  -18.7130 C.ar      1 CVI301      0.0000 
     17 C17       -54.2820   66.8510  -18.4850 C.ar      1 CVI301      0.0000 
     18 C18       -53.8130   66.1110  -19.6030 C.ar      1 CVI301      0.0000 
     19 C19       -53.6250   66.7040  -20.8460 C.ar      1 CVI301      0.0000 
     20 C20       -58.4470   72.8640  -23.8980 C.3       1 CVI301      0.0000 
     21 C21       -56.6210   73.9100  -25.1910 C.3       1 CVI301      0.0000 
     22 C22       -47.7220   66.6520  -24.5350 C.3       1 CVI301      0.0000 
     23 C23       -48.9120   66.8090  -26.6610 C.3       1 CVI301      0.0000 
     24 C24       -54.9680   67.0310  -16.0700 C.3       1 CVI301      0.0000 
     25 C25       -54.2280   64.8650  -16.9350 C.3       1 CVI301      0.0000 
     26 N1        -57.0650   72.8530  -24.3090 N.pl3     1 CVI301      0.0000 
     27 N2        -48.9570   66.9610  -25.2260 N.pl3     1 CVI301      0.0000 
     28 N3        -54.4890   66.2640  -17.2000 N.pl3     1 CVI301      0.0000 
     29 H31       -56.2390   69.1480  -21.9390 H         1 CVI301      0.0000 
     30 H41       -57.5930   70.8120  -22.7090 H         1 CVI301      0.0000 
     31 H61       -54.4530   72.3780  -24.7550 H         1 CVI301      0.0000 
     32 H71       -53.1270   70.7000  -23.9670 H         1 CVI301      0.0000 
     33 H91       -51.2490   68.0170  -21.5070 H         1 CVI301      0.0000 
     34 H101      -49.3770   67.3400  -22.6350 H         1 CVI301      0.0000 
     35 H121      -51.4200   67.6180  -26.1270 H         1 CVI301      0.0000 
     36 H131      -53.2760   68.2910  -24.9770 H         1 CVI301      0.0000 
     37 H151      -54.5290   69.7300  -20.0700 H         1 CVI301      0.0000 
     38 H161      -54.8520   68.7680  -18.0150 H         1 CVI301      0.0000 
     39 H181      -53.6250   65.2040  -19.5170 H         1 CVI301      0.0000 
     40 H191      -53.3120   66.1870  -21.5520 H         1 CVI301      0.0000 
     41 H201      -58.5030   72.9340  -22.9320 H         1 CVI301      0.0000 
     42 H202      -58.9480   73.5960  -24.2900 H         1 CVI301      0.0000 
     43 H203      -58.8600   72.0280  -24.1640 H         1 CVI301      0.0000 
     44 H211      -55.6790   73.7830  -25.3840 H         1 CVI301      0.0000 
     45 H212      -56.7430   74.7920  -24.8060 H         1 CVI301      0.0000 
     46 H213      -57.1080   73.8690  -26.0290 H         1 CVI301      0.0000 
     47 H221      -47.7960   66.7670  -23.5750 H         1 CVI301      0.0000 
     48 H222      -47.4950   65.7270  -24.7180 H         1 CVI301      0.0000 
     49 H223      -47.0040   67.2190  -24.8580 H         1 CVI301      0.0000 
     50 H231      -48.6970   65.9070  -26.9440 H         1 CVI301      0.0000 
     51 H232      -49.7710   67.0590  -27.0370 H         1 CVI301      0.0000 
     52 H233      -48.2340   67.4090  -27.0090 H         1 CVI301      0.0000 
     53 H241      -55.1240   67.9610  -16.2930 H         1 CVI301      0.0000 
     54 H242      -55.8040   66.6410  -15.7720 H         1 CVI301      0.0000 
     55 H243      -54.3290   66.9920  -15.3410 H         1 CVI301      0.0000 
     56 H251      -53.5540   64.8080  -16.2400 H         1 CVI301      0.0000 
     57 H252      -55.0130   64.3790  -16.6400 H         1 CVI301      0.0000 
     58 H253      -53.8820   64.4460  -17.7390 H         1 CVI301      0.0000 
@<TRIPOS>BOND
     1    1    2 1    
     2    1    8 2    
     3    1   14 1    
     4    2    3 ar   
     5    2    7 ar   
     6    3    4 ar   
     7    4    5 ar   
     8    3   29 1    
     9    5    6 ar   
    10    4   30 1    
    11    5   26 1    
    12    6    7 ar   
    13    8    9 1    
    14    6   31 1    
    15    7   32 1    
    16    8   13 1    
    17    9   10 2    
    18   10   11 1    
    19    9   33 1    
    20   11   12 1    
    21   10   34 1    
    22   11   27 2    
    23   12   13 2    
    24   14   15 ar   
    25   12   35 1    
    26   13   36 1    
    27   14   19 ar   
    28   15   16 ar   
    29   16   17 ar   
    30   15   37 1    
    31   17   18 ar   
    32   16   38 1    
    33   17   28 1    
    34   18   19 ar   
    35   20   26 1    
    36   18   39 1    
    37   19   40 1    
    38   20   41 1    
    39   20   42 1    
    40   20   43 1    
    41   21   26 1    
    42   21   44 1    
    43   21   45 1    
    44   21   46 1    
    45   22   27 1    
    46   22   47 1    
    47   22   48 1    
    48   22   49 1    
    49   23   27 1    
    50   23   50 1    
    51   23   51 1    
    52   23   52 1    
    53   24   28 1    
    54   24   53 1    
    55   24   54 1    
    56   24   55 1    
    57   25   28 1    
    58   25   56 1    
    59   25   57 1    
    60   25   58 1    
@<TRIPOS>SUBSTRUCTURE
     1 CVI301      1 GROUP   
@<TRIPOS>SET

