#    Name: 5vlm_1_CVI
#    Modification time : Fri May 22 19:12:50 2020

@<TRIPOS>MOLECULE
5vlm_1_CVI
   58    60     1     0     0
SMALL
NO_CHARGES


@<TRIPOS>ATOM
      1 C1        -39.3130   21.1170   -8.7770 C.2       1 CVI301      0.0000 
      2 C2        -39.4270   22.5560   -8.9040 C.ar      1 CVI301      0.0000 
      3 C3        -40.5180   23.2830   -8.3780 C.ar      1 CVI301      0.0000 
      4 C4        -40.6130   24.6640   -8.5000 C.ar      1 CVI301      0.0000 
      5 C5        -39.6170   25.4270   -9.1720 C.ar      1 CVI301      0.0000 
      6 C6        -38.5220   24.6910   -9.7050 C.ar      1 CVI301      0.0000 
      7 C7        -38.4360   23.3110   -9.5700 C.ar      1 CVI301      0.0000 
      8 C8        -38.4540   20.3830   -9.6770 C.2       1 CVI301      0.0000 
      9 C9        -37.5390   19.4190   -9.1950 C.2       1 CVI301      0.0000 
     10 C10       -36.7130   18.7030  -10.0550 C.2       1 CVI301      0.0000 
     11 C11       -36.7440   18.9030  -11.4690 C.2       1 CVI301      0.0000 
     12 C12       -37.6720   19.8770  -11.9380 C.2       1 CVI301      0.0000 
     13 C13       -38.4980   20.5870  -11.0730 C.2       1 CVI301      0.0000 
     14 C14       -39.9530   20.3850   -7.7040 C.ar      1 CVI301      0.0000 
     15 C15       -40.1690   20.9310   -6.4160 C.ar      1 CVI301      0.0000 
     16 C16       -40.7890   20.2010   -5.4050 C.ar      1 CVI301      0.0000 
     17 C17       -41.2290   18.8560   -5.6030 C.ar      1 CVI301      0.0000 
     18 C18       -40.9970   18.3180   -6.8990 C.ar      1 CVI301      0.0000 
     19 C19       -40.3840   19.0550   -7.9070 C.ar      1 CVI301      0.0000 
     20 C20       -40.8760   27.4980   -8.7170 C.3       1 CVI301      0.0000 
     21 C21       -38.7490   27.6570   -9.9610 C.3       1 CVI301      0.0000 
     22 C22       -34.9410   17.1670  -11.8900 C.3       1 CVI301      0.0000 
     23 C23       -35.9220   18.3680  -13.7800 C.3       1 CVI301      0.0000 
     24 C24       -42.0900   18.6770   -3.2310 C.3       1 CVI301      0.0000 
     25 C25       -42.3160   16.7540   -4.7240 C.3       1 CVI301      0.0000 
     26 N1        -39.7320   26.8330   -9.2900 N.pl3     1 CVI301      0.0000 
     27 N2        -35.8900   18.1640  -12.3490 N.pl3     1 CVI301      0.0000 
     28 N3        -41.8590   18.1180   -4.5490 N.pl3     1 CVI301      0.0000 
     29 H31       -41.1890   22.8220   -7.9280 H         1 CVI301      0.0000 
     30 H41       -41.3550   25.0850   -8.1300 H         1 CVI301      0.0000 
     31 H61       -37.8360   25.1300  -10.1540 H         1 CVI301      0.0000 
     32 H71       -37.7030   22.8670   -9.9330 H         1 CVI301      0.0000 
     33 H91       -37.4920   19.2600   -8.2800 H         1 CVI301      0.0000 
     34 H101      -36.1270   18.0790   -9.6910 H         1 CVI301      0.0000 
     35 H121      -37.7400   20.0530  -12.8490 H         1 CVI301      0.0000 
     36 H131      -39.0890   21.2160  -11.4200 H         1 CVI301      0.0000 
     37 H151      -39.9000   21.8050   -6.2470 H         1 CVI301      0.0000 
     38 H161      -40.9100   20.6070   -4.5770 H         1 CVI301      0.0000 
     39 H181      -41.2620   17.4480   -7.0950 H         1 CVI301      0.0000 
     40 H191      -40.2530   18.6630   -8.7400 H         1 CVI301      0.0000 
     41 H201      -41.6910   27.1590   -9.1200 H         1 CVI301      0.0000 
     42 H202      -40.8480   28.4600   -8.8370 H         1 CVI301      0.0000 
     43 H203      -40.9070   27.3050   -7.7660 H         1 CVI301      0.0000 
     44 H211      -38.0380   27.0890  -10.2940 H         1 CVI301      0.0000 
     45 H212      -38.3630   28.3270   -9.3750 H         1 CVI301      0.0000 
     46 H213      -39.1560   28.1060  -10.7180 H         1 CVI301      0.0000 
     47 H221      -35.1160   16.2890  -12.2630 H         1 CVI301      0.0000 
     48 H222      -35.0050   17.1100  -10.9240 H         1 CVI301      0.0000 
     49 H223      -34.0370   17.4280  -12.1270 H         1 CVI301      0.0000 
     50 H231      -36.5660   19.0390  -14.0550 H         1 CVI301      0.0000 
     51 H232      -35.0410   18.6340  -14.0850 H         1 CVI301      0.0000 
     52 H233      -36.1570   17.5270  -14.2020 H         1 CVI301      0.0000 
     53 H241      -43.0310   18.6950   -2.9960 H         1 CVI301      0.0000 
     54 H242      -41.6220   18.1280   -2.5820 H         1 CVI301      0.0000 
     55 H243      -41.7430   19.5810   -3.1820 H         1 CVI301      0.0000 
     56 H251      -42.1160   16.4800   -5.6330 H         1 CVI301      0.0000 
     57 H252      -41.8930   16.1280   -4.1160 H         1 CVI301      0.0000 
     58 H253      -43.2770   16.7180   -4.5930 H         1 CVI301      0.0000 
@<TRIPOS>BOND
     1    1    2 1    
     2    1    8 2    
     3    1   14 1    
     4    2    3 ar   
     5    2    7 ar   
     6    3    4 ar   
     7    4    5 ar   
     8    3   29 1    
     9    5    6 ar   
    10    4   30 1    
    11    5   26 1    
    12    6    7 ar   
    13    8    9 1    
    14    6   31 1    
    15    7   32 1    
    16    8   13 1    
    17    9   10 2    
    18   10   11 1    
    19    9   33 1    
    20   11   12 1    
    21   10   34 1    
    22   11   27 2    
    23   12   13 2    
    24   14   15 ar   
    25   12   35 1    
    26   13   36 1    
    27   14   19 ar   
    28   15   16 ar   
    29   16   17 ar   
    30   15   37 1    
    31   17   18 ar   
    32   16   38 1    
    33   17   28 1    
    34   18   19 ar   
    35   20   26 1    
    36   18   39 1    
    37   19   40 1    
    38   20   41 1    
    39   20   42 1    
    40   20   43 1    
    41   21   26 1    
    42   21   44 1    
    43   21   45 1    
    44   21   46 1    
    45   22   27 1    
    46   22   47 1    
    47   22   48 1    
    48   22   49 1    
    49   23   27 1    
    50   23   50 1    
    51   23   51 1    
    52   23   52 1    
    53   24   28 1    
    54   24   53 1    
    55   24   54 1    
    56   24   55 1    
    57   25   28 1    
    58   25   56 1    
    59   25   57 1    
    60   25   58 1    
@<TRIPOS>SUBSTRUCTURE
     1 CVI301      1 GROUP   
@<TRIPOS>SET

