#    Name: 5vlm_6_CVI
#    Modification time : Fri May 22 19:13:15 2020

@<TRIPOS>MOLECULE
5vlm_6_CVI
   58    60     1     0     0
SMALL
NO_CHARGES


@<TRIPOS>ATOM
      1 C1        -49.3350   59.6880  -41.3950 C.2       1 CVI301      0.0000 
      2 C2        -49.0060   58.3590  -40.9290 C.ar      1 CVI301      0.0000 
      3 C3        -49.8340   57.2430  -41.1820 C.ar      1 CVI301      0.0000 
      4 C4        -49.5050   55.9710  -40.7300 C.ar      1 CVI301      0.0000 
      5 C5        -48.3180   55.7280  -39.9800 C.ar      1 CVI301      0.0000 
      6 C6        -47.4900   56.8580  -39.7260 C.ar      1 CVI301      0.0000 
      7 C7        -47.8270   58.1240  -40.1870 C.ar      1 CVI301      0.0000 
      8 C8        -48.8850   60.8380  -40.6480 C.2       1 CVI301      0.0000 
      9 C9        -48.2660   61.9370  -41.2880 C.2       1 CVI301      0.0000 
     10 C10       -47.8350   63.0500  -40.5730 C.2       1 CVI301      0.0000 
     11 C11       -47.9900   63.1420  -39.1580 C.2       1 CVI301      0.0000 
     12 C12       -48.6140   62.0290  -38.5270 C.2       1 CVI301      0.0000 
     13 C13       -49.0460   60.9180  -39.2480 C.2       1 CVI301      0.0000 
     14 C14       -49.8930   59.8940  -42.7100 C.ar      1 CVI301      0.0000 
     15 C15       -49.6500   58.9920  -43.7700 C.ar      1 CVI301      0.0000 
     16 C16       -50.1890   59.1960  -45.0350 C.ar      1 CVI301      0.0000 
     17 C17       -51.0070   60.3280  -45.3330 C.ar      1 CVI301      0.0000 
     18 C18       -51.2380   61.2300  -44.2560 C.ar      1 CVI301      0.0000 
     19 C19       -50.7020   61.0180  -42.9910 C.ar      1 CVI301      0.0000 
     20 C20       -48.8930   53.3380  -39.8280 C.3       1 CVI301      0.0000 
     21 C21       -46.8090   54.1210  -38.7590 C.3       1 CVI301      0.0000 
     22 C22       -46.9060   65.4210  -39.0990 C.3       1 CVI301      0.0000 
     23 C23       -47.6800   64.4180  -37.0110 C.3       1 CVI301      0.0000 
     24 C24       -51.3130   59.6030  -47.7420 C.3       1 CVI301      0.0000 
     25 C25       -52.3800   61.6620  -46.9680 C.3       1 CVI301      0.0000 
     26 N1        -47.9990   54.4280  -39.5240 N.pl3     1 CVI301      0.0000 
     27 N2        -47.5380   64.2950  -38.4440 N.pl3     1 CVI301      0.0000 
     28 N3        -51.5490   60.5210  -46.6430 N.pl3     1 CVI301      0.0000 
     29 H31       -50.6170   57.3630  -41.6710 H         1 CVI301      0.0000 
     30 H41       -50.0870   55.2720  -40.9280 H         1 CVI301      0.0000 
     31 H61       -46.7020   56.7640  -39.2430 H         1 CVI301      0.0000 
     32 H71       -47.2630   58.8390  -40.0010 H         1 CVI301      0.0000 
     33 H91       -48.1480   61.9140  -42.2100 H         1 CVI301      0.0000 
     34 H101      -47.4330   63.7480  -41.0390 H         1 CVI301      0.0000 
     35 H121      -48.7450   62.0290  -37.6070 H         1 CVI301      0.0000 
     36 H131      -49.4490   60.2110  -38.7980 H         1 CVI301      0.0000 
     37 H151      -49.1230   58.2420  -43.6140 H         1 CVI301      0.0000 
     38 H161      -50.0030   58.5750  -45.7010 H         1 CVI301      0.0000 
     39 H181      -51.7640   61.9860  -44.3870 H         1 CVI301      0.0000 
     40 H191      -50.8750   61.6320  -42.3140 H         1 CVI301      0.0000 
     41 H201      -48.9760   53.2390  -40.7900 H         1 CVI301      0.0000 
     42 H202      -48.5930   52.4940  -39.4550 H         1 CVI301      0.0000 
     43 H203      -49.7700   53.5430  -39.4690 H         1 CVI301      0.0000 
     44 H211      -46.3020   54.9370  -38.6280 H         1 CVI301      0.0000 
     45 H212      -47.0120   53.7390  -37.8910 H         1 CVI301      0.0000 
     46 H213      -46.2530   53.4960  -39.2500 H         1 CVI301      0.0000 
     47 H221      -46.8300   65.2970  -40.0580 H         1 CVI301      0.0000 
     48 H222      -47.4440   66.2100  -38.9330 H         1 CVI301      0.0000 
     49 H223      -46.0180   65.5670  -38.7370 H         1 CVI301      0.0000 
     50 H231      -48.2140   65.1830  -36.7450 H         1 CVI301      0.0000 
     51 H232      -48.0890   63.6120  -36.6590 H         1 CVI301      0.0000 
     52 H233      -46.7960   64.5130  -36.6250 H         1 CVI301      0.0000 
     53 H241      -50.8710   60.0300  -48.4920 H         1 CVI301      0.0000 
     54 H242      -50.7480   58.8840  -47.4200 H         1 CVI301      0.0000 
     55 H243      -52.1520   59.2260  -48.0520 H         1 CVI301      0.0000 
     56 H251      -53.2440   61.3340  -47.2620 H         1 CVI301      0.0000 
     57 H252      -52.0080   62.2170  -47.6710 H         1 CVI301      0.0000 
     58 H253      -52.5060   62.2040  -46.1740 H         1 CVI301      0.0000 
@<TRIPOS>BOND
     1    1    2 1    
     2    1    8 2    
     3    1   14 1    
     4    2    3 ar   
     5    2    7 ar   
     6    3    4 ar   
     7    4    5 ar   
     8    3   29 1    
     9    5    6 ar   
    10    4   30 1    
    11    5   26 1    
    12    6    7 ar   
    13    8    9 1    
    14    6   31 1    
    15    7   32 1    
    16    8   13 1    
    17    9   10 2    
    18   10   11 1    
    19    9   33 1    
    20   11   12 1    
    21   10   34 1    
    22   11   27 2    
    23   12   13 2    
    24   14   15 ar   
    25   12   35 1    
    26   13   36 1    
    27   14   19 ar   
    28   15   16 ar   
    29   16   17 ar   
    30   15   37 1    
    31   17   18 ar   
    32   16   38 1    
    33   17   28 1    
    34   18   19 ar   
    35   20   26 1    
    36   18   39 1    
    37   19   40 1    
    38   20   41 1    
    39   20   42 1    
    40   20   43 1    
    41   21   26 1    
    42   21   44 1    
    43   21   45 1    
    44   21   46 1    
    45   22   27 1    
    46   22   47 1    
    47   22   48 1    
    48   22   49 1    
    49   23   27 1    
    50   23   50 1    
    51   23   51 1    
    52   23   52 1    
    53   24   28 1    
    54   24   53 1    
    55   24   54 1    
    56   24   55 1    
    57   25   28 1    
    58   25   56 1    
    59   25   57 1    
    60   25   58 1    
@<TRIPOS>SUBSTRUCTURE
     1 CVI301      1 GROUP   
@<TRIPOS>SET

