#    Name: 5vlm_2_CVI
#    Modification time : Fri May 22 19:12:55 2020

@<TRIPOS>MOLECULE
5vlm_2_CVI
   58    60     1     0     0
SMALL
NO_CHARGES


@<TRIPOS>ATOM
      1 C1        -38.8280   16.6060  -30.0210 C.2       1 CVI301      0.0000 
      2 C2        -39.2700   15.2240  -29.9960 C.ar      1 CVI301      0.0000 
      3 C3        -40.4520   14.7900  -30.6350 C.ar      1 CVI301      0.0000 
      4 C4        -40.8640   13.4650  -30.6080 C.ar      1 CVI301      0.0000 
      5 C5        -40.1200   12.4660  -29.9240 C.ar      1 CVI301      0.0000 
      6 C6        -38.9330   12.9040  -29.2760 C.ar      1 CVI301      0.0000 
      7 C7        -38.5300   14.2310  -29.3170 C.ar      1 CVI301      0.0000 
      8 C8        -37.8760   17.0760  -29.0380 C.2       1 CVI301      0.0000 
      9 C9        -36.7410   17.8350  -29.4140 C.2       1 CVI301      0.0000 
     10 C10       -35.8250   18.2980  -28.4770 C.2       1 CVI301      0.0000 
     11 C11       -35.9760   18.0280  -27.0830 C.2       1 CVI301      0.0000 
     12 C12       -37.1200   17.2640  -26.7180 C.2       1 CVI301      0.0000 
     13 C13       -38.0360   16.8100  -27.6610 C.2       1 CVI301      0.0000 
     14 C14       -39.1290   17.4820  -31.1340 C.ar      1 CVI301      0.0000 
     15 C15       -39.3730   17.0050  -32.4430 C.ar      1 CVI301      0.0000 
     16 C16       -39.6580   17.8690  -33.4950 C.ar      1 CVI301      0.0000 
     17 C17       -39.7020   19.2830  -33.3140 C.ar      1 CVI301      0.0000 
     18 C18       -39.4470   19.7530  -31.9970 C.ar      1 CVI301      0.0000 
     19 C19       -39.1730   18.8820  -30.9490 C.ar      1 CVI301      0.0000 
     20 C20       -41.7640   10.7590  -30.5870 C.3       1 CVI301      0.0000 
     21 C21       -39.8270   10.0720  -29.2170 C.3       1 CVI301      0.0000 
     22 C22       -33.8590   19.2840  -26.4840 C.3       1 CVI301      0.0000 
     23 C23       -35.1820   18.2290  -24.7110 C.3       1 CVI301      0.0000 
     24 C24       -40.2460   19.6700  -35.7450 C.3       1 CVI301      0.0000 
     25 C25       -40.0370   21.5920  -34.2360 C.3       1 CVI301      0.0000 
     26 N1        -40.5510   11.1200  -29.9000 N.pl3     1 CVI301      0.0000 
     27 N2        -35.0280   18.5040  -26.1230 N.pl3     1 CVI301      0.0000 
     28 N3        -39.9890   20.1560  -34.4050 N.pl3     1 CVI301      0.0000 
     29 H31       -40.9650   15.4130  -31.0970 H         1 CVI301      0.0000 
     30 H41       -41.6510   13.2430  -31.0530 H         1 CVI301      0.0000 
     31 H61       -38.4010   12.2980  -28.8120 H         1 CVI301      0.0000 
     32 H71       -37.7480   14.4780  -28.8780 H         1 CVI301      0.0000 
     33 H91       -36.6100   18.0320  -30.3130 H         1 CVI301      0.0000 
     34 H101      -35.0950   18.7910  -28.7750 H         1 CVI301      0.0000 
     35 H121      -37.2740   17.0570  -25.8250 H         1 CVI301      0.0000 
     36 H131      -38.7700   16.3120  -27.3790 H         1 CVI301      0.0000 
     37 H151      -39.3540   16.0880  -32.6000 H         1 CVI301      0.0000 
     38 H161      -39.8130   17.5070  -34.3370 H         1 CVI301      0.0000 
     39 H181      -39.4650   20.6650  -31.8160 H         1 CVI301      0.0000 
     40 H191      -39.0100   19.2300  -30.1020 H         1 CVI301      0.0000 
     41 H201      -41.6820   10.9660  -31.5320 H         1 CVI301      0.0000 
     42 H202      -42.5430   11.2190  -30.2370 H         1 CVI301      0.0000 
     43 H203      -41.9020    9.8030  -30.4990 H         1 CVI301      0.0000 
     44 H211      -40.4020    9.6850  -28.5390 H         1 CVI301      0.0000 
     45 H212      -39.0180   10.3950  -28.7900 H         1 CVI301      0.0000 
     46 H213      -39.5880    9.3720  -29.8450 H         1 CVI301      0.0000 
     47 H221      -33.8520   20.1580  -26.0620 H         1 CVI301      0.0000 
     48 H222      -33.8610   19.4070  -27.4460 H         1 CVI301      0.0000 
     49 H223      -33.0490   18.8140  -26.2320 H         1 CVI301      0.0000 
     50 H231      -35.9730   17.7070  -24.5070 H         1 CVI301      0.0000 
     51 H232      -34.4000   17.7540  -24.3900 H         1 CVI301      0.0000 
     52 H233      -35.2460   19.0760  -24.2420 H         1 CVI301      0.0000 
     53 H241      -40.2000   18.7030  -35.8040 H         1 CVI301      0.0000 
     54 H242      -41.1380   19.9520  -36.0040 H         1 CVI301      0.0000 
     55 H243      -39.6070   20.0480  -36.3690 H         1 CVI301      0.0000 
     56 H251      -40.9250   21.8970  -34.4800 H         1 CVI301      0.0000 
     57 H252      -39.8550   21.8760  -33.3270 H         1 CVI301      0.0000 
     58 H253      -39.3920   22.0070  -34.8300 H         1 CVI301      0.0000 
@<TRIPOS>BOND
     1    1    2 1    
     2    1    8 2    
     3    1   14 1    
     4    2    3 ar   
     5    2    7 ar   
     6    3    4 ar   
     7    4    5 ar   
     8    3   29 1    
     9    5    6 ar   
    10    4   30 1    
    11    5   26 1    
    12    6    7 ar   
    13    8    9 1    
    14    6   31 1    
    15    7   32 1    
    16    8   13 1    
    17    9   10 2    
    18   10   11 1    
    19    9   33 1    
    20   11   12 1    
    21   10   34 1    
    22   11   27 2    
    23   12   13 2    
    24   14   15 ar   
    25   12   35 1    
    26   13   36 1    
    27   14   19 ar   
    28   15   16 ar   
    29   16   17 ar   
    30   15   37 1    
    31   17   18 ar   
    32   16   38 1    
    33   17   28 1    
    34   18   19 ar   
    35   20   26 1    
    36   18   39 1    
    37   19   40 1    
    38   20   41 1    
    39   20   42 1    
    40   20   43 1    
    41   21   26 1    
    42   21   44 1    
    43   21   45 1    
    44   21   46 1    
    45   22   27 1    
    46   22   47 1    
    47   22   48 1    
    48   22   49 1    
    49   23   27 1    
    50   23   50 1    
    51   23   51 1    
    52   23   52 1    
    53   24   28 1    
    54   24   53 1    
    55   24   54 1    
    56   24   55 1    
    57   25   28 1    
    58   25   56 1    
    59   25   57 1    
    60   25   58 1    
@<TRIPOS>SUBSTRUCTURE
     1 CVI301      1 GROUP   
@<TRIPOS>SET

