#    Name: 5vlm_8_CVI
#    Modification time : Fri May 22 19:13:23 2020

@<TRIPOS>MOLECULE
5vlm_8_CVI
   58    60     1     0     0
SMALL
NO_CHARGES


@<TRIPOS>ATOM
      1 C1          8.0160   45.0340  -76.3770 C.2       1 CVI301      0.0000 
      2 C2          8.5220   46.3720  -76.1620 C.ar      1 CVI301      0.0000 
      3 C3          9.8250   46.7510  -76.5560 C.ar      1 CVI301      0.0000 
      4 C4         10.3100   48.0350  -76.3540 C.ar      1 CVI301      0.0000 
      5 C5          9.5180   49.0420  -75.7330 C.ar      1 CVI301      0.0000 
      6 C6          8.2060   48.6560  -75.3350 C.ar      1 CVI301      0.0000 
      7 C7          7.7320   47.3670  -75.5470 C.ar      1 CVI301      0.0000 
      8 C8          6.8520   44.5450  -75.6790 C.2       1 CVI301      0.0000 
      9 C9          5.8080   43.9110  -76.3900 C.2       1 CVI301      0.0000 
     10 C10         4.6780   43.4220  -75.7450 C.2       1 CVI301      0.0000 
     11 C11         4.5150   43.5300  -74.3320 C.2       1 CVI301      0.0000 
     12 C12         5.5780   44.1660  -73.6280 C.2       1 CVI301      0.0000 
     13 C13         6.7080   44.6530  -74.2790 C.2       1 CVI301      0.0000 
     14 C14         8.5400   44.2040  -77.4290 C.ar      1 CVI301      0.0000 
     15 C15         8.9070   44.7180  -78.6920 C.ar      1 CVI301      0.0000 
     16 C16         9.4080   43.8920  -79.6910 C.ar      1 CVI301      0.0000 
     17 C17         9.5640   42.4860  -79.4970 C.ar      1 CVI301      0.0000 
     18 C18         9.1810   41.9850  -78.2220 C.ar      1 CVI301      0.0000 
     19 C19         8.6870   42.8170  -77.2260 C.ar      1 CVI301      0.0000 
     20 C20        11.3760   50.6360  -75.9760 C.3       1 CVI301      0.0000 
     21 C21         9.2810   51.4100  -74.9120 C.3       1 CVI301      0.0000 
     22 C22         2.2700   42.3720  -74.4250 C.3       1 CVI301      0.0000 
     23 C23         3.1390   43.1100  -72.2650 C.3       1 CVI301      0.0000 
     24 C24        10.4660   42.1440  -81.8370 C.3       1 CVI301      0.0000 
     25 C25        10.2300   40.2180  -80.3330 C.3       1 CVI301      0.0000 
     26 N1         10.0340   50.3430  -75.5350 N.pl3     1 CVI301      0.0000 
     27 N2          3.3410   43.0180  -73.6930 N.pl3     1 CVI301      0.0000 
     28 N3         10.0740   41.6450  -80.5320 N.pl3     1 CVI301      0.0000 
     29 H31        10.3710   46.1200  -76.9670 H         1 CVI301      0.0000 
     30 H41        11.1760   48.2260  -76.6360 H         1 CVI301      0.0000 
     31 H61         7.6400   49.2690  -74.9250 H         1 CVI301      0.0000 
     32 H71         6.8690   47.1520  -75.2730 H         1 CVI301      0.0000 
     33 H91         5.8800   43.8220  -77.3130 H         1 CVI301      0.0000 
     34 H101        4.0160   43.0150  -76.2570 H         1 CVI301      0.0000 
     35 H121        5.5290   44.2670  -72.7050 H         1 CVI301      0.0000 
     36 H131        7.3800   45.0640  -73.7840 H         1 CVI301      0.0000 
     37 H151        8.8210   45.6300  -78.8520 H         1 CVI301      0.0000 
     38 H161        9.6400   44.2730  -80.5070 H         1 CVI301      0.0000 
     39 H181        9.2600   41.0780  -78.0350 H         1 CVI301      0.0000 
     40 H191        8.4460   42.4530  -76.4040 H         1 CVI301      0.0000 
     41 H201       12.0070   50.0560  -75.5210 H         1 CVI301      0.0000 
     42 H202       11.6300   51.5580  -75.8130 H         1 CVI301      0.0000 
     43 H203       11.4390   50.4600  -76.9280 H         1 CVI301      0.0000 
     44 H211        8.4030   51.0740  -74.6710 H         1 CVI301      0.0000 
     45 H212        9.7120   51.7540  -74.1140 H         1 CVI301      0.0000 
     46 H213        9.1620   52.1410  -75.5380 H         1 CVI301      0.0000 
     47 H221        2.4450   42.3300  -75.3780 H         1 CVI301      0.0000 
     48 H222        2.1780   41.4660  -74.0890 H         1 CVI301      0.0000 
     49 H223        1.4340   42.8430  -74.2850 H         1 CVI301      0.0000 
     50 H231        3.0410   42.2450  -71.8360 H         1 CVI301      0.0000 
     51 H232        2.3470   43.6410  -72.0870 H         1 CVI301      0.0000 
     52 H233        3.9070   43.5580  -71.8770 H         1 CVI301      0.0000 
     53 H241        9.9570   41.7390  -82.5560 H         1 CVI301      0.0000 
     54 H242       10.3150   43.1020  -81.8530 H         1 CVI301      0.0000 
     55 H243       11.4080   41.9740  -81.9930 H         1 CVI301      0.0000 
     56 H251        9.6840   39.7580  -80.9900 H         1 CVI301      0.0000 
     57 H252        9.9590   39.9230  -79.4500 H         1 CVI301      0.0000 
     58 H253       11.1580   39.9740  -80.4750 H         1 CVI301      0.0000 
@<TRIPOS>BOND
     1    1    2 1    
     2    1    8 2    
     3    1   14 1    
     4    2    3 ar   
     5    2    7 ar   
     6    3    4 ar   
     7    4    5 ar   
     8    3   29 1    
     9    5    6 ar   
    10    4   30 1    
    11    5   26 1    
    12    6    7 ar   
    13    8    9 1    
    14    6   31 1    
    15    7   32 1    
    16    8   13 1    
    17    9   10 2    
    18   10   11 1    
    19    9   33 1    
    20   11   12 1    
    21   10   34 1    
    22   11   27 2    
    23   12   13 2    
    24   14   15 ar   
    25   12   35 1    
    26   13   36 1    
    27   14   19 ar   
    28   15   16 ar   
    29   16   17 ar   
    30   15   37 1    
    31   17   18 ar   
    32   16   38 1    
    33   17   28 1    
    34   18   19 ar   
    35   20   26 1    
    36   18   39 1    
    37   19   40 1    
    38   20   41 1    
    39   20   42 1    
    40   20   43 1    
    41   21   26 1    
    42   21   44 1    
    43   21   45 1    
    44   21   46 1    
    45   22   27 1    
    46   22   47 1    
    47   22   48 1    
    48   22   49 1    
    49   23   27 1    
    50   23   50 1    
    51   23   51 1    
    52   23   52 1    
    53   24   28 1    
    54   24   53 1    
    55   24   54 1    
    56   24   55 1    
    57   25   28 1    
    58   25   56 1    
    59   25   57 1    
    60   25   58 1    
@<TRIPOS>SUBSTRUCTURE
     1 CVI301      1 GROUP   
@<TRIPOS>SET

