#    Name: 5vlm_3_CVI
#    Modification time : Fri May 22 19:13:00 2020

@<TRIPOS>MOLECULE
5vlm_3_CVI
   58    60     1     0     0
SMALL
NO_CHARGES


@<TRIPOS>ATOM
      1 C1         -1.1780   40.9980   -5.1010 C.2       1 CVI301      0.0000 
      2 C2         -0.7970   42.3280   -5.5250 C.ar      1 CVI301      0.0000 
      3 C3         -1.6750   43.4300   -5.4200 C.ar      1 CVI301      0.0000 
      4 C4         -1.3020   44.7050   -5.8270 C.ar      1 CVI301      0.0000 
      5 C5         -0.0160   44.9660   -6.3790 C.ar      1 CVI301      0.0000 
      6 C6          0.8630   43.8510   -6.4850 C.ar      1 CVI301      0.0000 
      7 C7          0.4810   42.5810   -6.0700 C.ar      1 CVI301      0.0000 
      8 C8         -0.6210   39.8440   -5.7630 C.2       1 CVI301      0.0000 
      9 C9         -0.1840   38.7160   -5.0340 C.2       1 CVI301      0.0000 
     10 C10         0.3470   37.6010   -5.6720 C.2       1 CVI301      0.0000 
     11 C11         0.4810   37.5380   -7.0910 C.2       1 CVI301      0.0000 
     12 C12         0.0380   38.6810   -7.8100 C.2       1 CVI301      0.0000 
     13 C13        -0.4970   39.7920   -7.1670 C.2       1 CVI301      0.0000 
     14 C14        -2.0920   40.7990   -4.0010 C.ar      1 CVI301      0.0000 
     15 C15        -2.1360   41.6830   -2.8990 C.ar      1 CVI301      0.0000 
     16 C16        -3.0170   41.4850   -1.8440 C.ar      1 CVI301      0.0000 
     17 C17        -3.9170   40.3780   -1.8130 C.ar      1 CVI301      0.0000 
     18 C18        -3.8590   39.4920   -2.9250 C.ar      1 CVI301      0.0000 
     19 C19        -2.9780   39.6980   -3.9810 C.ar      1 CVI301      0.0000 
     20 C20        -0.6120   47.3420   -6.6410 C.3       1 CVI301      0.0000 
     21 C21         1.6280   46.6030   -7.3560 C.3       1 CVI301      0.0000 
     22 C22         1.4830   35.2190   -7.0060 C.3       1 CVI301      0.0000 
     23 C23         1.1670   36.3210   -9.1740 C.3       1 CVI301      0.0000 
     24 C24        -4.8510   41.1120    0.4110 C.3       1 CVI301      0.0000 
     25 C25        -5.7380   39.0870   -0.6420 C.3       1 CVI301      0.0000 
     26 N1          0.3400   46.2720   -6.7890 N.pl3     1 CVI301      0.0000 
     27 N2          1.0300   36.3880   -7.7360 N.pl3     1 CVI301      0.0000 
     28 N3         -4.8100   40.1970   -0.7130 N.pl3     1 CVI301      0.0000 
     29 H31        -2.5230   43.2990   -5.0620 H         1 CVI301      0.0000 
     30 H41        -1.9210   45.3920   -5.7320 H         1 CVI301      0.0000 
     31 H61         1.7170   43.9580   -6.8370 H         1 CVI301      0.0000 
     32 H71         1.0820   41.8760   -6.1570 H         1 CVI301      0.0000 
     33 H91        -0.2570   38.7200   -4.1070 H         1 CVI301      0.0000 
     34 H101        0.6220   36.8810   -5.1510 H         1 CVI301      0.0000 
     35 H121        0.0980   38.7000   -8.7380 H         1 CVI301      0.0000 
     36 H131       -0.7750   40.5210   -7.6730 H         1 CVI301      0.0000 
     37 H151       -1.5650   42.4180   -2.8860 H         1 CVI301      0.0000 
     38 H161       -3.0120   42.0940   -1.1410 H         1 CVI301      0.0000 
     39 H181       -4.4210   38.7530   -2.9620 H         1 CVI301      0.0000 
     40 H191       -2.9680   39.0980   -4.6910 H         1 CVI301      0.0000 
     41 H201       -1.4130   47.1450   -7.1520 H         1 CVI301      0.0000 
     42 H202       -0.2610   48.1980   -6.9350 H         1 CVI301      0.0000 
     43 H203       -0.8610   47.4140   -5.7060 H         1 CVI301      0.0000 
     44 H211        2.1680   45.7990   -7.3960 H         1 CVI301      0.0000 
     45 H212        1.5580   46.9750   -8.2490 H         1 CVI301      0.0000 
     46 H213        2.0840   47.2440   -6.7880 H         1 CVI301      0.0000 
     47 H221        1.0040   34.4150   -7.2600 H         1 CVI301      0.0000 
     48 H222        2.4250   35.0880   -7.1970 H         1 CVI301      0.0000 
     49 H223        1.3750   35.3540   -6.0520 H         1 CVI301      0.0000 
     50 H231        0.8530   37.1200   -9.6260 H         1 CVI301      0.0000 
     51 H232        2.0990   36.1780   -9.4010 H         1 CVI301      0.0000 
     52 H233        0.6490   35.5660   -9.4940 H         1 CVI301      0.0000 
     53 H241       -4.2140   41.8380    0.3200 H         1 CVI301      0.0000 
     54 H242       -5.7420   41.4900    0.4620 H         1 CVI301      0.0000 
     55 H243       -4.6640   40.6400    1.2370 H         1 CVI301      0.0000 
     56 H251       -6.6380   39.4450   -0.5970 H         1 CVI301      0.0000 
     57 H252       -5.5960   38.5190    0.1320 H         1 CVI301      0.0000 
     58 H253       -5.6560   38.5490   -1.4440 H         1 CVI301      0.0000 
@<TRIPOS>BOND
     1    1    2 1    
     2    1    8 2    
     3    1   14 1    
     4    2    3 ar   
     5    2    7 ar   
     6    3    4 ar   
     7    4    5 ar   
     8    3   29 1    
     9    5    6 ar   
    10    4   30 1    
    11    5   26 1    
    12    6    7 ar   
    13    8    9 1    
    14    6   31 1    
    15    7   32 1    
    16    8   13 1    
    17    9   10 2    
    18   10   11 1    
    19    9   33 1    
    20   11   12 1    
    21   10   34 1    
    22   11   27 2    
    23   12   13 2    
    24   14   15 ar   
    25   12   35 1    
    26   13   36 1    
    27   14   19 ar   
    28   15   16 ar   
    29   16   17 ar   
    30   15   37 1    
    31   17   18 ar   
    32   16   38 1    
    33   17   28 1    
    34   18   19 ar   
    35   20   26 1    
    36   18   39 1    
    37   19   40 1    
    38   20   41 1    
    39   20   42 1    
    40   20   43 1    
    41   21   26 1    
    42   21   44 1    
    43   21   45 1    
    44   21   46 1    
    45   22   27 1    
    46   22   47 1    
    47   22   48 1    
    48   22   49 1    
    49   23   27 1    
    50   23   50 1    
    51   23   51 1    
    52   23   52 1    
    53   24   28 1    
    54   24   53 1    
    55   24   54 1    
    56   24   55 1    
    57   25   28 1    
    58   25   56 1    
    59   25   57 1    
    60   25   58 1    
@<TRIPOS>SUBSTRUCTURE
     1 CVI301      1 GROUP   
@<TRIPOS>SET

