#    Name: 5oed_1_GDP_CAVITY_N1_8
#    Modification time : Fri May 22 19:21:39 2020

@<TRIPOS>MOLECULE
5oed_1_GDP_CAVITY_N1_8
   53     0     7     0     0
SMALL
NO_CHARGES


@<TRIPOS>ATOM
      1 OG         10.0200  -10.5000   -2.7300 O.3       1 SER1        0.0000 
      2 OG         10.9300  -11.5200   -1.1000 O.3       1 SER1        0.0000 
      3 OG         12.2800  -11.2900   -1.7200 O.3       1 SER1        0.0000 
      4 OG         11.9100   -9.8700   -2.0100 O.3       1 SER1        0.0000 
      5 OG         11.8400  -12.5300    0.5200 O.3       1 SER1        0.0000 
      6 OG         11.4700  -11.1100    0.2300 O.3       1 SER1        0.0000 
      7 OG         12.8200  -10.8800   -0.3800 O.3       1 SER1        0.0000 
      8 OG         14.2300  -19.2400    3.3100 O.3       1 SER1        0.0000 
      9 N           9.5800  -11.7400   -0.4900 N.am      2 ALA2        0.0000 
     10 O          11.5400   -8.4400   -2.3000 O.2       2 ALA2        0.0000 
     11 N          10.1200  -11.3300    0.8500 N.am      2 ALA2        0.0000 
     12 N           9.7500   -9.9100    0.5600 N.am      2 ALA2        0.0000 
     13 O          10.7300   -8.2600   -0.3400 O.2       2 ALA2        0.0000 
     14 N          10.6600  -10.9200    2.1900 N.am      2 ALA2        0.0000 
     15 N          10.2900   -9.5000    1.9000 N.am      2 ALA2        0.0000 
     16 O          14.4000  -17.4000    4.3600 O.2       2 ALA2        0.0000 
     17 N          10.2200  -12.1600    4.4300 N.am      2 ALA2        0.0000 
     18 OD1        10.0500  -14.0000    3.3800 O.co2     3 ASP3        0.0000 
     19 OD1         9.6800  -12.5700    3.0900 O.co2     3 ASP3        0.0000 
     20 OD1        10.5900  -13.5800    4.7200 O.co2     3 ASP3        0.0000 
     21 NZ         12.3800  -12.1200    1.8600 N.4       4 LYS4        0.0000 
     22 NZ         13.7300  -11.8900    1.2500 N.4       4 LYS4        0.0000 
     23 NZ         11.9400  -13.3600    4.1000 N.4       4 LYS4        0.0000 
     24 NZ         12.9200  -11.7100    3.2000 N.4       4 LYS4        0.0000 
     25 NZ         12.5500  -10.2800    2.9100 N.4       4 LYS4        0.0000 
     26 NZ         13.9000  -10.0600    2.3000 N.4       4 LYS4        0.0000 
     27 CZ         11.5700  -11.9300    3.8100 C.ar      5 PHE5        0.0000 
     28 CZ         12.4800  -12.9500    5.4400 C.ar      5 PHE5        0.0000 
     29 CZ         13.0900   -9.8700    4.2500 C.ar      5 PHE5        0.0000 
     30 CA         11.9700  -18.4500    2.2900 C.3       6 GLY6        0.0000 
     31 CA         13.3200  -18.2300    1.6800 C.3       6 GLY6        0.0000 
     32 CA         11.6000  -17.0300    2.0100 C.3       6 GLY6        0.0000 
     33 CA         11.2300  -15.6100    1.7200 C.3       6 GLY6        0.0000 
     34 CA         10.8600  -14.1800    1.4300 C.3       6 GLY6        0.0000 
     35 CA         10.4900  -12.7600    1.1400 C.3       6 GLY6        0.0000 
     36 CA         13.1900  -12.3000   -0.0900 C.3       6 GLY6        0.0000 
     37 CA         13.8600  -17.8200    3.0200 C.3       6 GLY6        0.0000 
     38 CA         12.1400  -16.6200    3.3400 C.3       6 GLY6        0.0000 
     39 CA         10.4200  -15.4200    3.6700 C.3       6 GLY6        0.0000 
     40 CA         11.7700  -15.1900    3.0500 C.3       6 GLY6        0.0000 
     41 CA         11.4000  -13.7700    2.7600 C.3       6 GLY6        0.0000 
     42 CA         12.7500  -13.5400    2.1500 C.3       6 GLY6        0.0000 
     43 CA         12.6800  -16.2100    4.6800 C.3       6 GLY6        0.0000 
     44 CA         14.0300  -15.9800    4.0700 C.3       6 GLY6        0.0000 
     45 CA         12.3100  -14.7800    4.3900 C.3       6 GLY6        0.0000 
     46 CA         11.2000  -10.5100    3.5200 C.3       6 GLY6        0.0000 
     47 CA         10.8300   -9.0800    3.2300 C.3       6 GLY6        0.0000 
     48 DU         11.1000   -9.6800   -0.0500 H         7 CUB7        0.0000 
     49 DU         12.4500   -9.4500   -0.6700 H         7 CUB7        0.0000 
     50 DU         11.0300  -12.3400    2.4800 H         7 CUB7        0.0000 
     51 DU         12.0100  -10.6900    1.5700 H         7 CUB7        0.0000 
     52 DU         13.3600  -10.4700    0.9600 H         7 CUB7        0.0000 
     53 DU         11.6400   -9.2700    1.2800 H         7 CUB7        0.0000 
@<TRIPOS>BOND
@<TRIPOS>SUBSTRUCTURE
     1 SER1        1 GROUP   
     2 ALA2        9 GROUP   
     3 ASP3       18 GROUP   
     4 LYS4       21 GROUP   
     5 PHE5       27 GROUP   
     6 GLY6       30 GROUP   
     7 CUB7       48 GROUP   
@<TRIPOS>SET

