#    Name: 5oed_1_GDP_CAVITY_N1_4
#    Modification time : Fri May 22 19:21:39 2020

@<TRIPOS>MOLECULE
5oed_1_GDP_CAVITY_N1_4
   15     0     5     0     0
SMALL
NO_CHARGES


@<TRIPOS>ATOM
      1 OG         10.0200  -10.5000   -2.7300 O.3       1 SER1        0.0000 
      2 OG         10.9300  -11.5200   -1.1000 O.3       1 SER1        0.0000 
      3 OG         12.2800  -11.2900   -1.7200 O.3       1 SER1        0.0000 
      4 OG         11.9100   -9.8700   -2.0100 O.3       1 SER1        0.0000 
      5 OG         11.8400  -12.5300    0.5200 O.3       1 SER1        0.0000 
      6 OG         11.4700  -11.1100    0.2300 O.3       1 SER1        0.0000 
      7 OG         12.8200  -10.8800   -0.3800 O.3       1 SER1        0.0000 
      8 O          11.5400   -8.4400   -2.3000 O.2       2 ALA2        0.0000 
      9 O          10.7300   -8.2600   -0.3400 O.2       2 ALA2        0.0000 
     10 NZ         13.7300  -11.8900    1.2500 N.4       3 LYS4        0.0000 
     11 NZ         13.9000  -10.0600    2.3000 N.4       3 LYS4        0.0000 
     12 CA         13.1900  -12.3000   -0.0900 C.3       4 GLY6        0.0000 
     13 DU         11.1000   -9.6800   -0.0500 H         5 CUB7        0.0000 
     14 DU         12.4500   -9.4500   -0.6700 H         5 CUB7        0.0000 
     15 DU         13.3600  -10.4700    0.9600 H         5 CUB7        0.0000 
@<TRIPOS>BOND
@<TRIPOS>SUBSTRUCTURE
     1 SER1        1 GROUP   
     2 ALA2        8 GROUP   
     3 LYS4       10 GROUP   
     4 GLY6       12 GROUP   
     5 CUB7       13 GROUP   
@<TRIPOS>SET

