#    Name: 5oed_1_GDP_CAVITY_N1_6
#    Modification time : Fri May 22 19:21:39 2020

@<TRIPOS>MOLECULE
5oed_1_GDP_CAVITY_N1_6
   32     0     6     0     0
SMALL
NO_CHARGES


@<TRIPOS>ATOM
      1 OG         10.0200  -10.5000   -2.7300 O.3       1 SER1        0.0000 
      2 OG         10.9300  -11.5200   -1.1000 O.3       1 SER1        0.0000 
      3 OG         12.2800  -11.2900   -1.7200 O.3       1 SER1        0.0000 
      4 OG         11.9100   -9.8700   -2.0100 O.3       1 SER1        0.0000 
      5 OG         11.8400  -12.5300    0.5200 O.3       1 SER1        0.0000 
      6 OG         11.4700  -11.1100    0.2300 O.3       1 SER1        0.0000 
      7 OG         12.8200  -10.8800   -0.3800 O.3       1 SER1        0.0000 
      8 N           9.5800  -11.7400   -0.4900 N.am      2 ALA2        0.0000 
      9 O          11.5400   -8.4400   -2.3000 O.2       2 ALA2        0.0000 
     10 N          10.1200  -11.3300    0.8500 N.am      2 ALA2        0.0000 
     11 N           9.7500   -9.9100    0.5600 N.am      2 ALA2        0.0000 
     12 O          10.7300   -8.2600   -0.3400 O.2       2 ALA2        0.0000 
     13 N          10.6600  -10.9200    2.1900 N.am      2 ALA2        0.0000 
     14 N          10.2900   -9.5000    1.9000 N.am      2 ALA2        0.0000 
     15 NZ         12.3800  -12.1200    1.8600 N.4       3 LYS4        0.0000 
     16 NZ         13.7300  -11.8900    1.2500 N.4       3 LYS4        0.0000 
     17 NZ         12.9200  -11.7100    3.2000 N.4       3 LYS4        0.0000 
     18 NZ         12.5500  -10.2800    2.9100 N.4       3 LYS4        0.0000 
     19 NZ         13.9000  -10.0600    2.3000 N.4       3 LYS4        0.0000 
     20 CZ         13.0900   -9.8700    4.2500 C.ar      4 PHE5        0.0000 
     21 CA         11.2300  -15.6100    1.7200 C.3       5 GLY6        0.0000 
     22 CA         10.8600  -14.1800    1.4300 C.3       5 GLY6        0.0000 
     23 CA         10.4900  -12.7600    1.1400 C.3       5 GLY6        0.0000 
     24 CA         13.1900  -12.3000   -0.0900 C.3       5 GLY6        0.0000 
     25 CA         11.4000  -13.7700    2.7600 C.3       5 GLY6        0.0000 
     26 CA         12.7500  -13.5400    2.1500 C.3       5 GLY6        0.0000 
     27 DU         11.1000   -9.6800   -0.0500 H         6 CUB7        0.0000 
     28 DU         12.4500   -9.4500   -0.6700 H         6 CUB7        0.0000 
     29 DU         11.0300  -12.3400    2.4800 H         6 CUB7        0.0000 
     30 DU         12.0100  -10.6900    1.5700 H         6 CUB7        0.0000 
     31 DU         13.3600  -10.4700    0.9600 H         6 CUB7        0.0000 
     32 DU         11.6400   -9.2700    1.2800 H         6 CUB7        0.0000 
@<TRIPOS>BOND
@<TRIPOS>SUBSTRUCTURE
     1 SER1        1 GROUP   
     2 ALA2        8 GROUP   
     3 LYS4       15 GROUP   
     4 PHE5       20 GROUP   
     5 GLY6       21 GROUP   
     6 CUB7       27 GROUP   
@<TRIPOS>SET

