#    Name: 5oed_1_GDP
#    Modification time : Fri May 22 19:21:38 2020

@<TRIPOS>MOLECULE
5oed_1_GDP
   38    40     1     0     1
SMALL
NO_CHARGES


@<TRIPOS>ATOM
      1 PB         17.5670  -12.2820   -2.2000 P.3       1 GDP900      0.0000 
      2 O1B        18.6510  -12.8380   -3.0890 O.co2     1 GDP900      0.0000 
      3 O2B        17.1930  -13.2930   -1.1440 O.co2     1 GDP900      0.0000 
      4 O3B        18.0470  -11.0140   -1.5320 O.co2     1 GDP900      0.0000 
      5 O3A        16.2820  -11.9690   -3.1110 O.3       1 GDP900      0.0000 
      6 PA         14.9280  -11.4470   -2.4240 P.3       1 GDP900      0.0000 
      7 O1A        13.9730  -12.5970   -2.2010 O.co2     1 GDP900      0.0000 
      8 O2A        15.2310  -10.7310   -1.1290 O.co2     1 GDP900      0.0000 
      9 O5'        14.3620  -10.4310   -3.5340 O.3       1 GDP900      0.0000 
     10 C5'        14.5350   -9.0280   -3.3470 C.3       1 GDP900      0.0000 
     11 C4'        13.4270   -8.2820   -4.0720 C.3       1 GDP900      0.0000 
     12 O4'        13.1910   -8.8840   -5.3440 O.3       1 GDP900      0.0000 
     13 C3'        12.1270   -8.3290   -3.2850 C.3       1 GDP900      0.0000 
     14 O3'        11.7560   -7.0030   -2.8870 O.3       1 GDP900      0.0000 
     15 C2'        11.1180   -8.9940   -4.2120 C.3       1 GDP900      0.0000 
     16 O2'         9.8560   -8.3150   -4.2400 O.3       1 GDP900      0.0000 
     17 C1'        11.7870   -8.9960   -5.5820 C.3       1 GDP900      0.0000 
     18 N9         11.4920  -10.2380   -6.3420 N.pl3     1 GDP900      0.0000 
     19 C8         11.9320  -11.4780   -6.0490 C.2       1 GDP900      0.0000 
     20 N7         11.4780  -12.3740   -6.9650 N.2       1 GDP900      0.0000 
     21 C5         10.7400  -11.7050   -7.8710 C.2       1 GDP900      0.0000 
     22 C6          9.9730  -12.0400   -9.0970 C.2       1 GDP900      0.0000 
     23 O6          9.9080  -13.2150   -9.5190 O.2       1 GDP900      0.0000 
     24 N1          9.3500  -11.0470   -9.7450 N.am      1 GDP900      0.0000 
     25 C2          9.4020   -9.7720   -9.3140 C.2       1 GDP900      0.0000 
     26 N2          8.7450   -8.8230  -10.0230 N.pl3     1 GDP900      0.0000 
     27 N3         10.0830   -9.3930   -8.2030 N.2       1 GDP900      0.0000 
     28 C4         10.7570  -10.2980   -7.4550 C.2       1 GDP900      0.0000 
     29 H4'        13.7280   -7.2330   -4.2010 H         1 GDP900      0.0000 
     30 H3'        12.2690   -8.9640   -2.3990 H         1 GDP900      0.0000 
     31 HO3'       10.9540   -7.0410   -2.3480 H         1 GDP900      0.0000 
     32 H2'        10.9750  -10.0340   -3.8890 H         1 GDP900      0.0000 
     33 HO2'        9.4890   -8.2800   -3.3460 H         1 GDP900      0.0000 
     34 H1'        11.4350   -8.1210   -6.1460 H         1 GDP900      0.0000 
     35 H8         12.5530  -11.7280   -5.1980 H         1 GDP900      0.0000 
     36 HN1         8.8080  -11.2680  -10.6050 H         1 GDP900      0.0000 
     37 HN21        8.2300   -9.0780  -10.8540 H         1 GDP900      0.0000 
     38 HN22        8.7690   -7.8590   -9.7200 H         1 GDP900      0.0000 
@<TRIPOS>BOND
     1    1    2 ar   
     2    1    3 ar   
     3    1    4 ar   
     4    1    5 1    
     5    5    6 1    
     6    6    7 ar   
     7    6    8 ar   
     8    6    9 1    
     9    9   10 1    
    10   10   11 1    
    11   11   12 1    
    12   11   13 1    
    13   11   29 1    
    14   12   17 1    
    15   13   14 1    
    16   13   15 1    
    17   13   30 1    
    18   14   31 1    
    19   15   16 1    
    20   15   17 1    
    21   15   32 1    
    22   16   33 1    
    23   17   18 1    
    24   17   34 1    
    25   18   19 1    
    26   18   28 1    
    27   19   20 2    
    28   19   35 1    
    29   20   21 1    
    30   21   22 1    
    31   21   28 2    
    32   22   23 2    
    33   22   24 am   
    34   24   25 1    
    35   24   36 1    
    36   25   26 1    
    37   25   27 2    
    38   26   37 1    
    39   26   38 1    
    40   27   28 1    
@<TRIPOS>SUBSTRUCTURE
     1 GDP900      1 GROUP   
@<TRIPOS>SET
ATOM$ORANGE STATIC     ATOMS   COLORGROUP SYSTEM 
20 10 10 11 11 13 13 15 15 17 17 19 19 21 21 22 22 25 \
25 28 28 

