#    Name: 6uyh_3_ANP
#    Modification time : Fri May 22 19:26:15 2020

@<TRIPOS>MOLECULE
6uyh_3_ANP
   31    33     1     0     1
SMALL
NO_CHARGES


@<TRIPOS>ATOM
      1 PG         32.2550   -0.5660   14.5520 P.3       1 ANP601      0.0000 
      2 O1G        31.0160   -0.8710   13.8500 O.co2     1 ANP601      0.0000 
      3 O2G        32.4940    1.0010   14.4770 O.co2     1 ANP601      0.0000 
      4 O3G        32.0630   -1.0690   16.0350 O.co2     1 ANP601      0.0000 
      5 PB         34.7880   -0.8110   12.9690 P.3       1 ANP601      0.0000 
      6 O1B        34.7270   -1.3270   11.6100 O.co2     1 ANP601      0.0000 
      7 O2B        34.7890    0.7480   12.9320 O.co2     1 ANP601      0.0000 
      8 N3B        33.5500   -1.3470   13.9110 N.3       1 ANP601      0.0000 
      9 PA         37.5670   -1.5770   13.2150 P.3       1 ANP601      0.0000 
     10 O1A        37.6480   -2.7320   12.2960 O.co2     1 ANP601      0.0000 
     11 O2A        38.0890   -0.3410   12.5600 O.co2     1 ANP601      0.0000 
     12 O3A        36.0790   -1.2830   13.6880 O.3       1 ANP601      0.0000 
     13 O5'        38.3330   -1.7480   14.6210 O.3       1 ANP601      0.0000 
     14 C5'        38.9020   -2.9560   15.1770 C.3       1 ANP601      0.0000 
     15 C4'        38.1360   -3.2710   16.4350 C.3       1 ANP601      0.0000 
     16 O4'        38.2010   -2.1480   17.3420 O.3       1 ANP601      0.0000 
     17 C3'        36.6500   -3.4850   16.1930 C.3       1 ANP601      0.0000 
     18 O3'        36.3930   -4.8320   15.8150 O.3       1 ANP601      0.0000 
     19 C2'        36.0350   -3.1390   17.5500 C.3       1 ANP601      0.0000 
     20 O2'        35.9720   -4.2950   18.3750 O.3       1 ANP601      0.0000 
     21 C1'        37.0040   -2.0730   18.1000 C.3       1 ANP601      0.0000 
     22 N9         36.4910   -0.7120   18.0130 N.pl3     1 ANP601      0.0000 
     23 C8         36.0700   -0.0540   16.8860 C.2       1 ANP601      0.0000 
     24 N7         35.6610    1.1720   17.1000 N.2       1 ANP601      0.0000 
     25 C5         35.8260    1.3370   18.4700 C.ar      1 ANP601      0.0000 
     26 C6         35.5730    2.4200   19.3300 C.ar      1 ANP601      0.0000 
     27 N6         35.1340    3.6130   18.9210 N.pl3     1 ANP601      0.0000 
     28 N1         35.8160    2.2410   20.6480 N.ar      1 ANP601      0.0000 
     29 C2         36.3050    1.0670   21.0590 C.ar      1 ANP601      0.0000 
     30 N3         36.6000   -0.0170   20.3390 N.ar      1 ANP601      0.0000 
     31 C4         36.3320    0.1820   19.0440 C.ar      1 ANP601      0.0000 
@<TRIPOS>BOND
     1    1    2 ar   
     2    1    3 ar   
     3    1    4 ar   
     4    1    8 1    
     5    5    6 ar   
     6    5    7 ar   
     7    5    8 1    
     8    5   12 1    
     9    9   10 ar   
    10    9   11 ar   
    11    9   12 1    
    12    9   13 1    
    13   13   14 1    
    14   14   15 1    
    15   15   16 1    
    16   15   17 1    
    17   16   21 1    
    18   17   18 1    
    19   17   19 1    
    20   19   20 1    
    21   19   21 1    
    22   21   22 1    
    23   22   23 1    
    24   22   31 1    
    25   23   24 2    
    26   24   25 1    
    27   25   26 ar   
    28   25   31 ar   
    29   26   27 1    
    30   26   28 ar   
    31   28   29 ar   
    32   29   30 ar   
    33   30   31 ar   
@<TRIPOS>SUBSTRUCTURE
     1 ANP601      1 GROUP   
@<TRIPOS>SET
ATOM$ORANGE STATIC     ATOMS   COLORGROUP SYSTEM 
20 14 14 15 15 17 17 19 19 21 21 23 23 25 25 26 26 29 \
29 31 31 

