#    Name: 6uyh_3_ANP_CAVITY_N1_4
#    Modification time : Fri May 22 19:26:16 2020

@<TRIPOS>MOLECULE
6uyh_3_ANP_CAVITY_N1_4
  104     0     7     0     0
SMALL
NO_CHARGES


@<TRIPOS>ATOM
      1 OG         34.9000   -3.4500   13.8000 O.3       1 SER1        0.0000 
      2 OG         35.7800   -3.6900   12.6100 O.3       1 SER1        0.0000 
      3 OG         36.0300   -2.7400   14.5000 O.3       1 SER1        0.0000 
      4 OG         36.4800   -4.0500   15.0900 O.3       1 SER1        0.0000 
      5 OG         36.9100   -2.9800   13.3100 O.3       1 SER1        0.0000 
      6 OG         37.7900   -3.2200   12.1200 O.3       1 SER1        0.0000 
      7 OG         37.6100   -3.3400   15.7900 O.3       1 SER1        0.0000 
      8 OG         38.4900   -3.5800   14.6000 O.3       1 SER1        0.0000 
      9 OG         39.8000   -2.7600   11.6200 O.3       1 SER1        0.0000 
     10 OG         40.2500   -4.0600   12.2200 O.3       1 SER1        0.0000 
     11 OG         40.2400   -1.7000    9.8400 O.3       1 SER1        0.0000 
     12 OG         40.6800   -3.0000   10.4300 O.3       1 SER1        0.0000 
     13 OG         36.5200   -0.8500   18.2600 O.3       1 SER1        0.0000 
     14 OG         36.9700   -2.1500   18.8600 O.3       1 SER1        0.0000 
     15 OG         37.8500   -2.3900   17.6700 O.3       1 SER1        0.0000 
     16 OG         40.9100    0.3100    9.9400 O.3       1 SER1        0.0000 
     17 OG         41.3600   -0.9900   10.5300 O.3       1 SER1        0.0000 
     18 OG         36.7600    0.0900   20.1500 O.3       1 SER1        0.0000 
     19 OG         37.6500   -0.1500   18.9600 O.3       1 SER1        0.0000 
     20 N          32.1800   -1.2000    9.4400 N.am      2 ALA2        0.0000 
     21 N          32.6300   -2.5000   10.0400 N.am      2 ALA2        0.0000 
     22 N          33.0600   -1.4400    8.2500 N.am      2 ALA2        0.0000 
     23 N          38.0600   -4.6400   16.3800 N.am      2 ALA2        0.0000 
     24 N          38.9400   -4.8800   15.1900 N.am      2 ALA2        0.0000 
     25 O          41.3800   -3.3500   12.9100 O.2       2 ALA2        0.0000 
     26 N          35.4300    1.6300   20.7400 N.am      2 ALA2        0.0000 
     27 OD1        30.4200   -0.7200   11.8200 O.co2     3 ASP3        0.0000 
     28 OD1        31.3200   -3.3200   13.0100 O.co2     3 ASP3        0.0000 
     29 OD1        32.2000   -3.5600   11.8200 O.co2     3 ASP3        0.0000 
     30 OD1        31.1100   -1.0800   14.3000 O.co2     3 ASP3        0.0000 
     31 OD1        31.5600   -2.3800   14.8900 O.co2     3 ASP3        0.0000 
     32 OD1        33.3300   -2.8600   12.5100 O.co2     3 ASP3        0.0000 
     33 OD1        33.7600   -1.8000   10.7300 O.co2     3 ASP3        0.0000 
     34 OD1        34.2100   -3.1000   11.3300 O.co2     3 ASP3        0.0000 
     35 OD1        32.2400   -0.3700   14.9900 O.co2     3 ASP3        0.0000 
     36 OD1        32.6900   -1.6700   15.5900 O.co2     3 ASP3        0.0000 
     37 OD1        33.1200   -0.6100   13.8000 O.co2     3 ASP3        0.0000 
     38 OD1        33.5700   -1.9100   14.4000 O.co2     3 ASP3        0.0000 
     39 OD1        34.0200   -3.2100   14.9900 O.co2     3 ASP3        0.0000 
     40 OD1        34.0000   -0.8500   12.6100 O.co2     3 ASP3        0.0000 
     41 OD1        34.4400    0.2100   10.8300 O.co2     3 ASP3        0.0000 
     42 OD1        35.3400   -2.3900   12.0200 O.co2     3 ASP3        0.0000 
     43 OD1        33.3700    0.3400   15.6800 O.co2     3 ASP3        0.0000 
     44 OD1        33.8200   -0.9600   16.2800 O.co2     3 ASP3        0.0000 
     45 OD1        34.2500    0.1000   14.5000 O.co2     3 ASP3        0.0000 
     46 OD1        35.1500   -2.5100   15.6900 O.co2     3 ASP3        0.0000 
     47 OD1        35.6000   -3.8100   16.2800 O.co2     3 ASP3        0.0000 
     48 OD1        35.1300   -0.1400   13.3100 O.co2     3 ASP3        0.0000 
     49 OD1        35.5800   -1.4400   13.9000 O.co2     3 ASP3        0.0000 
     50 OD1        36.0100   -0.3800   12.1200 O.co2     3 ASP3        0.0000 
     51 OD1        34.9400   -0.2600   16.9700 O.co2     3 ASP3        0.0000 
     52 OD1        35.3900   -1.5600   17.5700 O.co2     3 ASP3        0.0000 
     53 OD1        35.8400   -2.8600   18.1600 O.co2     3 ASP3        0.0000 
     54 OD1        35.8200   -0.5000   15.7800 O.co2     3 ASP3        0.0000 
     55 OD1        36.7100   -0.7400   14.6000 O.co2     3 ASP3        0.0000 
     56 OD1        37.5900   -0.9800   13.4100 O.co2     3 ASP3        0.0000 
     57 OD1        38.0200    0.0800   11.6200 O.co2     3 ASP3        0.0000 
     58 OD1        38.4700   -1.2200   12.2200 O.co2     3 ASP3        0.0000 
     59 OD1        38.9000   -0.1500   10.4300 O.co2     3 ASP3        0.0000 
     60 OD1        35.1900    0.6900   18.8600 O.co2     3 ASP3        0.0000 
     61 OD1        35.6400   -0.6100   19.4500 O.co2     3 ASP3        0.0000 
     62 OD1        36.0700    0.4500   17.6700 O.co2     3 ASP3        0.0000 
     63 OD1        36.9500    0.2100   16.4800 O.co2     3 ASP3        0.0000 
     64 OD1        37.8300   -0.0300   15.2900 O.co2     3 ASP3        0.0000 
     65 OD1        38.7200   -0.2700   14.1000 O.co2     3 ASP3        0.0000 
     66 OD1        39.6000   -0.5100   12.9100 O.co2     3 ASP3        0.0000 
     67 OD1        40.0300    0.5500   11.1200 O.co2     3 ASP3        0.0000 
     68 OD1        40.4800   -0.7500   11.7200 O.co2     3 ASP3        0.0000 
     69 NZ         30.8700   -2.0200   12.4200 N.4       4 LYS4        0.0000 
     70 NZ         31.3000   -0.9600   10.6300 N.4       4 LYS4        0.0000 
     71 NZ         31.7500   -2.2600   11.2300 N.4       4 LYS4        0.0000 
     72 CZ         39.7900   -0.3900    9.2400 C.ar      5 PHE5        0.0000 
     73 CZ         37.4000   -1.0900   17.0700 C.ar      5 PHE5        0.0000 
     74 CZ         38.2800   -1.3300   15.8800 C.ar      5 PHE5        0.0000 
     75 CZ         38.7300   -2.6300   16.4800 C.ar      5 PHE5        0.0000 
     76 CZ         39.1700   -1.5700   14.6900 C.ar      5 PHE5        0.0000 
     77 CZ         39.6100   -2.8700   15.2900 C.ar      5 PHE5        0.0000 
     78 CZ         40.0500   -1.8100   13.5100 C.ar      5 PHE5        0.0000 
     79 CZ         40.5000   -3.1100   14.1000 C.ar      5 PHE5        0.0000 
     80 CZ         40.9300   -2.0500   12.3200 C.ar      5 PHE5        0.0000 
     81 CZ         36.3100    1.4000   19.5500 C.ar      5 PHE5        0.0000 
     82 CZ         37.2000    1.1600   18.3600 C.ar      5 PHE5        0.0000 
     83 CZ         38.5300   -0.3900   17.7700 C.ar      5 PHE5        0.0000 
     84 CZ         39.4100   -0.6300   16.5800 C.ar      5 PHE5        0.0000 
     85 CZ         39.8600   -1.9300   17.1700 C.ar      5 PHE5        0.0000 
     86 CZ         42.5100   -2.6500   13.6000 C.ar      5 PHE5        0.0000 
     87 CA         32.8900   -3.9200   14.3000 C.3       6 GLY6        0.0000 
     88 CA         37.1700   -4.4000   17.5700 C.3       6 GLY6        0.0000 
     89 CA         39.3700   -3.8200   13.4100 C.3       6 GLY6        0.0000 
     90 DU         31.9900   -1.3200   13.1100 H         7 CUB7        0.0000 
     91 DU         32.4400   -2.6200   13.7000 H         7 CUB7        0.0000 
     92 DU         32.8800   -1.5600   11.9200 H         7 CUB7        0.0000 
     93 DU         33.3100   -0.4900   10.1300 H         7 CUB7        0.0000 
     94 DU         34.4500   -2.1500   13.2100 H         7 CUB7        0.0000 
     95 DU         34.8900   -1.0900   11.4200 H         7 CUB7        0.0000 
     96 DU         34.7000   -1.2000   15.0900 H         7 CUB7        0.0000 
     97 DU         36.4600   -1.6800   12.7100 H         7 CUB7        0.0000 
     98 DU         36.8900   -0.6200   10.9300 H         7 CUB7        0.0000 
     99 DU         36.2700   -1.8000   16.3800 H         7 CUB7        0.0000 
    100 DU         36.7200   -3.1000   16.9800 H         7 CUB7        0.0000 
    101 DU         37.1600   -2.0400   15.1900 H         7 CUB7        0.0000 
    102 DU         38.0400   -2.2800   14.0000 H         7 CUB7        0.0000 
    103 DU         38.9200   -2.5200   12.8100 H         7 CUB7        0.0000 
    104 DU         39.3500   -1.4600   11.0300 H         7 CUB7        0.0000 
@<TRIPOS>BOND
@<TRIPOS>SUBSTRUCTURE
     1 SER1        1 GROUP   
     2 ALA2       20 GROUP   
     3 ASP3       27 GROUP   
     4 LYS4       69 GROUP   
     5 PHE5       72 GROUP   
     6 GLY6       87 GROUP   
     7 CUB7       90 GROUP   
@<TRIPOS>SET

