#    Name: 5oy0_1_ECH
#    Modification time : Fri May 22 19:13:24 2020

@<TRIPOS>MOLECULE
5oy0_1_ECH
   41    42     1     0     0
SMALL
NO_CHARGES


@<TRIPOS>ATOM
      1 C1        166.7090  -91.4010   99.3650 C.3       1 ECH4006     0.0000 
      2 C2        167.4840  -90.2180   99.9650 C.3       1 ECH4006     0.0000 
      3 C3        166.5030  -89.2220  100.5850 C.3       1 ECH4006     0.0000 
      4 C4        165.6120  -88.6290   99.4970 C.3       1 ECH4006     0.0000 
      5 C5        164.9700  -89.6980   98.6980 C.2       1 ECH4006     0.0000 
      6 C6        165.6020  -90.8660   98.4980 C.2       1 ECH4006     0.0000 
      7 C7        164.9770  -91.8240   97.5970 C.2       1 ECH4006     0.0000 
      8 C8        165.1400  -91.7050   96.2760 C.2       1 ECH4006     0.0000 
      9 C9        164.5130  -92.6540   95.3930 C.2       1 ECH4006     0.0000 
     10 C10       165.0060  -92.8890   94.1730 C.2       1 ECH4006     0.0000 
     11 C11       166.1700  -92.2280   93.6400 C.2       1 ECH4006     0.0000 
     12 C12       166.3990  -92.3510   92.3370 C.2       1 ECH4006     0.0000 
     13 C13       167.5130  -91.7490   91.6320 C.2       1 ECH4006     0.0000 
     14 C14       167.5980  -92.0440   90.3330 C.2       1 ECH4006     0.0000 
     15 C15       168.6150  -91.5650   89.4250 C.2       1 ECH4006     0.0000 
     16 C16       168.3950  -91.9040   88.1580 C.2       1 ECH4006     0.0000 
     17 C17       169.2150  -91.6040   87.0050 C.2       1 ECH4006     0.0000 
     18 C18       168.8880  -92.3240   85.9250 C.2       1 ECH4006     0.0000 
     19 C19       169.5460  -92.2290   84.6430 C.2       1 ECH4006     0.0000 
     20 C20       170.4410  -91.3350   84.2420 C.2       1 ECH4006     0.0000 
     21 C21       170.8800  -91.5410   82.8930 C.2       1 ECH4006     0.0000 
     22 C22       171.5750  -90.6770   82.1500 C.2       1 ECH4006     0.0000 
     23 C23       171.8650  -91.1390   80.8180 C.2       1 ECH4006     0.0000 
     24 C24       171.7680  -92.4580   80.6450 C.2       1 ECH4006     0.0000 
     25 C25       171.9850  -93.1020   79.3660 C.2       1 ECH4006     0.0000 
     26 C26       170.8890  -93.6110   78.8140 C.2       1 ECH4006     0.0000 
     27 C27       170.8700  -94.9900   78.3150 C.2       1 ECH4006     0.0000 
     28 O27       169.8360  -95.6000   78.1350 O.2       1 ECH4006     0.0000 
     29 C28       172.2140  -95.5990   78.0500 C.3       1 ECH4006     0.0000 
     30 C29       173.2360  -95.1970   79.0890 C.3       1 ECH4006     0.0000 
     31 C30       173.3740  -93.6720   79.1430 C.3       1 ECH4006     0.0000 
     32 C31       166.0860  -92.2380  100.4830 C.3       1 ECH4006     0.0000 
     33 C32       167.6380  -92.2920   98.5340 C.3       1 ECH4006     0.0000 
     34 C33       163.4880  -89.6270   98.5470 C.3       1 ECH4006     0.0000 
     35 C34       163.3000  -93.3400   95.9170 C.3       1 ECH4006     0.0000 
     36 C35       168.4530  -90.8540   92.3650 C.3       1 ECH4006     0.0000 
     37 C36       167.7820  -93.3150   85.9710 C.3       1 ECH4006     0.0000 
     38 C37       172.0400  -89.3270   82.5550 C.3       1 ECH4006     0.0000 
     39 C38       169.5330  -93.0780   79.1330 C.3       1 ECH4006     0.0000 
     40 C39       173.8900  -93.1320   77.8230 C.3       1 ECH4006     0.0000 
     41 C40       174.3670  -93.2660   80.2370 C.3       1 ECH4006     0.0000 
@<TRIPOS>BOND
     1    1    2 1    
     2    1    6 1    
     3    1   32 1    
     4    1   33 1    
     5    2    3 1    
     6    3    4 1    
     7    4    5 1    
     8    5    6 2    
     9    5   34 1    
    10    6    7 1    
    11    7    8 2    
    12    8    9 1    
    13    9   10 2    
    14    9   35 1    
    15   10   11 1    
    16   11   12 2    
    17   12   13 1    
    18   13   14 2    
    19   13   36 1    
    20   14   15 1    
    21   15   16 2    
    22   16   17 1    
    23   17   18 2    
    24   18   19 1    
    25   18   37 1    
    26   19   20 2    
    27   20   21 1    
    28   21   22 2    
    29   22   23 1    
    30   22   38 1    
    31   23   24 2    
    32   24   25 1    
    33   25   26 2    
    34   25   31 1    
    35   26   27 1    
    36   26   39 1    
    37   27   28 2    
    38   27   29 1    
    39   29   30 1    
    40   30   31 1    
    41   31   40 1    
    42   31   41 1    
@<TRIPOS>SUBSTRUCTURE
     1 ECH4006     1 GROUP   
@<TRIPOS>SET

