#    Name: 5oy0_1_ECH_CAVITY_N1_4
#    Modification time : Fri May 22 19:13:25 2020

@<TRIPOS>MOLECULE
5oy0_1_ECH_CAVITY_N1_4
   64     0     5     0     0
SMALL
NO_CHARGES


@<TRIPOS>ATOM
      1 OG        169.0300  -97.0200   86.3900 O.3       1 SER1        0.0000 
      2 O         167.2100  -96.2300   83.6900 O.2       2 ALA2        0.0000 
      3 CZ        173.2300  -95.1600   77.4400 C.ar      3 PHE5        0.0000 
      4 CZ        172.9800  -96.5100   78.0500 C.ar      3 PHE5        0.0000 
      5 CZ        174.5200  -93.5400   77.8800 C.ar      3 PHE5        0.0000 
      6 CZ        171.3600  -91.7500   80.5300 C.ar      3 PHE5        0.0000 
      7 CZ        174.2700  -94.8900   78.4800 C.ar      3 PHE5        0.0000 
      8 CZ        174.0200  -96.2300   79.0900 C.ar      3 PHE5        0.0000 
      9 CZ        168.2500  -95.9500   84.7400 C.ar      3 PHE5        0.0000 
     10 CZ        166.9400  -96.7000   86.2300 C.ar      3 PHE5        0.0000 
     11 CZ        175.8100  -91.9100   78.3100 C.ar      3 PHE5        0.0000 
     12 CZ        175.5600  -93.2600   78.9200 C.ar      3 PHE5        0.0000 
     13 CZ        175.3100  -94.6100   79.5300 C.ar      3 PHE5        0.0000 
     14 CZ        175.0500  -95.9600   80.1400 C.ar      3 PHE5        0.0000 
     15 CZ        172.7000  -96.1100   82.5200 C.ar      3 PHE5        0.0000 
     16 CZ        166.9300  -95.8300   88.1600 C.ar      3 PHE5        0.0000 
     17 CZ        176.3400  -94.3300   80.5800 C.ar      3 PHE5        0.0000 
     18 CZ        176.0900  -95.6800   81.1800 C.ar      3 PHE5        0.0000 
     19 CZ        175.0400  -95.0800   82.0700 C.ar      3 PHE5        0.0000 
     20 CA        167.4900  -96.6300   79.2200 C.3       4 GLY6        0.0000 
     21 CA        166.4400  -96.0300   80.1000 C.3       4 GLY6        0.0000 
     22 CA        170.0900  -94.2500   78.1600 C.3       4 GLY6        0.0000 
     23 CA        169.0300  -93.6500   79.0500 C.3       4 GLY6        0.0000 
     24 CA        170.8900  -96.1900   77.8800 C.3       4 GLY6        0.0000 
     25 CA        169.8300  -95.6000   78.7700 C.3       4 GLY6        0.0000 
     26 CA        168.7800  -95.0000   79.6600 C.3       4 GLY6        0.0000 
     27 CA        167.7300  -94.4100   80.5400 C.3       4 GLY6        0.0000 
     28 CA        168.5300  -96.3500   80.2600 C.3       4 GLY6        0.0000 
     29 CA        168.2800  -97.7000   80.8700 C.3       4 GLY6        0.0000 
     30 CA        172.6800  -91.8700   77.1100 C.3       4 GLY6        0.0000 
     31 CA        173.4800  -93.8200   76.8300 C.3       4 GLY6        0.0000 
     32 CA        172.4300  -93.2200   77.7200 C.3       4 GLY6        0.0000 
     33 CA        171.3800  -92.6200   78.6000 C.3       4 GLY6        0.0000 
     34 CA        170.3200  -92.0300   79.4900 C.3       4 GLY6        0.0000 
     35 CA        172.1800  -94.5700   78.3200 C.3       4 GLY6        0.0000 
     36 CA        171.9300  -95.9200   78.9300 C.3       4 GLY6        0.0000 
     37 CA        171.6700  -97.2600   79.5400 C.3       4 GLY6        0.0000 
     38 CA        170.6200  -96.6700   80.4300 C.3       4 GLY6        0.0000 
     39 CA        170.3700  -98.0200   81.0300 C.3       4 GLY6        0.0000 
     40 CA        174.7700  -92.1900   77.2700 C.3       4 GLY6        0.0000 
     41 CA        173.7200  -91.5900   78.1500 C.3       4 GLY6        0.0000 
     42 CA        172.6600  -91.0000   79.0400 C.3       4 GLY6        0.0000 
     43 CA        171.6100  -90.4000   79.9300 C.3       4 GLY6        0.0000 
     44 CA        173.7600  -97.5800   79.7000 C.3       4 GLY6        0.0000 
     45 CA        172.7100  -96.9900   80.5900 C.3       4 GLY6        0.0000 
     46 CA        174.8000  -97.3000   80.7500 C.3       4 GLY6        0.0000 
     47 CA        173.7500  -96.7100   81.6300 C.3       4 GLY6        0.0000 
     48 DU        167.4800  -95.7500   81.1500 H         5 CUB7        0.0000 
     49 DU        171.1200  -93.9700   79.2100 H         5 CUB7        0.0000 
     50 DU        170.0700  -93.3800   80.1000 H         5 CUB7        0.0000 
     51 DU        170.8700  -95.3200   79.8200 H         5 CUB7        0.0000 
     52 DU        169.8200  -94.7200   80.7000 H         5 CUB7        0.0000 
     53 DU        168.7700  -94.1300   81.5900 H         5 CUB7        0.0000 
     54 DU        169.5700  -96.0700   81.3100 H         5 CUB7        0.0000 
     55 DU        173.4700  -92.9400   78.7600 H         5 CUB7        0.0000 
     56 DU        172.4100  -92.3500   79.6500 H         5 CUB7        0.0000 
     57 DU        173.2100  -94.2900   79.3700 H         5 CUB7        0.0000 
     58 DU        172.9600  -95.6400   79.9800 H         5 CUB7        0.0000 
     59 DU        171.6600  -96.3900   81.4700 H         5 CUB7        0.0000 
     60 DU        170.6100  -95.7900   82.3600 H         5 CUB7        0.0000 
     61 DU        169.5500  -95.2000   83.2400 H         5 CUB7        0.0000 
     62 DU        174.5000  -92.6600   79.8100 H         5 CUB7        0.0000 
     63 DU        174.2500  -94.0100   80.4200 H         5 CUB7        0.0000 
     64 DU        174.0000  -95.3600   81.0200 H         5 CUB7        0.0000 
@<TRIPOS>BOND
@<TRIPOS>SUBSTRUCTURE
     1 SER1        1 GROUP   
     2 ALA2        2 GROUP   
     3 PHE5        3 GROUP   
     4 GLY6       20 GROUP   
     5 CUB7       48 GROUP   
@<TRIPOS>SET

