#    Name: 5oy0_3_45D_CAVITY_N1_4
#    Modification time : Fri May 22 19:14:09 2020

@<TRIPOS>MOLECULE
5oy0_3_45D_CAVITY_N1_4
   31     0     4     0     0
SMALL
NO_CHARGES


@<TRIPOS>ATOM
      1 N         134.3600  -77.1200  -39.3000 N.am      1 ALA2        0.0000 
      2 O         135.4000  -76.8400  -38.2500 O.2       1 ALA2        0.0000 
      3 N         136.4400  -76.5600  -37.2100 N.am      1 ALA2        0.0000 
      4 CZ        134.8500  -73.5500  -38.5800 C.ar      2 PHE5        0.0000 
      5 CZ        137.1900  -72.5200  -39.0300 C.ar      2 PHE5        0.0000 
      6 CZ        136.9400  -73.8700  -38.4200 C.ar      2 PHE5        0.0000 
      7 CZ        135.8900  -73.2700  -37.5400 C.ar      2 PHE5        0.0000 
      8 CZ        138.7800  -75.5300  -37.6500 C.ar      2 PHE5        0.0000 
      9 CA        137.2200  -74.2700  -42.9000 C.3       3 GLY6        0.0000 
     10 CA        135.9200  -75.0200  -41.4000 C.3       3 GLY6        0.0000 
     11 CA        134.8600  -74.4200  -40.5200 C.3       3 GLY6        0.0000 
     12 CA        135.6600  -76.3700  -40.7900 C.3       3 GLY6        0.0000 
     13 CA        134.6100  -75.7700  -39.9100 C.3       3 GLY6        0.0000 
     14 CA        133.5600  -75.1700  -39.0200 C.3       3 GLY6        0.0000 
     15 CA        133.3100  -76.5200  -38.4100 C.3       3 GLY6        0.0000 
     16 CA        137.2100  -73.3900  -40.9600 C.3       3 GLY6        0.0000 
     17 CA        136.9500  -74.7400  -40.3600 C.3       3 GLY6        0.0000 
     18 CA        136.7000  -76.0900  -39.7500 C.3       3 GLY6        0.0000 
     19 CA        134.6000  -74.9000  -37.9800 C.3       3 GLY6        0.0000 
     20 CA        136.4500  -77.4400  -39.1400 C.3       3 GLY6        0.0000 
     21 CA        137.7400  -75.8100  -38.7000 C.3       3 GLY6        0.0000 
     22 CA        136.6900  -75.2100  -37.8100 C.3       3 GLY6        0.0000 
     23 CA        135.6300  -74.6200  -36.9300 C.3       3 GLY6        0.0000 
     24 CA        138.5400  -77.7500  -38.9800 C.3       3 GLY6        0.0000 
     25 CA        137.4900  -77.1600  -38.0900 C.3       3 GLY6        0.0000 
     26 CA        139.8300  -76.1300  -38.5400 C.3       3 GLY6        0.0000 
     27 CA        138.5300  -76.8800  -37.0500 C.3       3 GLY6        0.0000 
     28 CA        137.4700  -76.2800  -36.1600 C.3       3 GLY6        0.0000 
     29 DU        133.8100  -73.8300  -39.6300 H         4 CUB7        0.0000 
     30 DU        135.9000  -74.1400  -39.4700 H         4 CUB7        0.0000 
     31 DU        135.6500  -75.4900  -38.8600 H         4 CUB7        0.0000 
@<TRIPOS>BOND
@<TRIPOS>SUBSTRUCTURE
     1 ALA2        1 GROUP   
     2 PHE5        4 GROUP   
     3 GLY6        9 GROUP   
     4 CUB7       29 GROUP   
@<TRIPOS>SET

