#    Name: 5oy0_8_ECH
#    Modification time : Fri May 22 19:15:13 2020

@<TRIPOS>MOLECULE
5oy0_8_ECH
   41    42     1     0     0
SMALL
NO_CHARGES


@<TRIPOS>ATOM
      1 C1        105.8610  -80.3980   83.6900 C.3       1 ECH4011     0.0000 
      2 C2        106.9700  -80.6750   82.6780 C.3       1 ECH4011     0.0000 
      3 C3        108.3060  -80.2640   83.3020 C.3       1 ECH4011     0.0000 
      4 C4        108.3250  -78.7530   83.5450 C.3       1 ECH4011     0.0000 
      5 C5        107.0880  -78.2910   84.2330 C.2       1 ECH4011     0.0000 
      6 C6        105.9240  -78.9440   84.0720 C.2       1 ECH4011     0.0000 
      7 C7        104.7920  -78.1420   83.6020 C.2       1 ECH4011     0.0000 
      8 C8        103.9440  -77.5540   84.4570 C.2       1 ECH4011     0.0000 
      9 C9        102.8390  -76.7770   83.9310 C.2       1 ECH4011     0.0000 
     10 C10       102.4540  -77.0780   82.6920 C.2       1 ECH4011     0.0000 
     11 C11       101.3960  -76.4600   81.9280 C.2       1 ECH4011     0.0000 
     12 C12       101.3130  -76.9510   80.7020 C.2       1 ECH4011     0.0000 
     13 C13       100.4290  -76.6220   79.6100 C.2       1 ECH4011     0.0000 
     14 C14        99.1570  -76.2010   79.7290 C.2       1 ECH4011     0.0000 
     15 C15        98.4700  -75.9680   78.4630 C.2       1 ECH4011     0.0000 
     16 C16        97.1510  -75.8430   78.2760 C.2       1 ECH4011     0.0000 
     17 C17        96.7080  -75.6590   76.8990 C.2       1 ECH4011     0.0000 
     18 C18        95.4600  -75.3410   76.5070 C.2       1 ECH4011     0.0000 
     19 C19        94.3940  -75.1090   77.4500 C.2       1 ECH4011     0.0000 
     20 C20        93.2620  -74.5850   76.9720 C.2       1 ECH4011     0.0000 
     21 C21        92.1230  -74.2970   77.7920 C.2       1 ECH4011     0.0000 
     22 C22        91.1780  -73.4840   77.3140 C.2       1 ECH4011     0.0000 
     23 C23        90.0330  -73.1900   78.1380 C.2       1 ECH4011     0.0000 
     24 C24        89.9800  -72.0500   78.8230 C.2       1 ECH4011     0.0000 
     25 C25        88.8090  -71.7750   79.6500 C.2       1 ECH4011     0.0000 
     26 C26        87.8600  -70.9890   79.1520 C.2       1 ECH4011     0.0000 
     27 C27        86.8360  -70.3990   80.0210 C.2       1 ECH4011     0.0000 
     28 O27        86.1010  -69.5050   79.6570 O.2       1 ECH4011     0.0000 
     29 C28        86.7740  -70.9700   81.4030 C.3       1 ECH4011     0.0000 
     30 C29        88.1580  -71.2220   81.9590 C.3       1 ECH4011     0.0000 
     31 C30        88.8970  -72.2440   81.0870 C.3       1 ECH4011     0.0000 
     32 C31       106.1130  -81.2240   84.9390 C.3       1 ECH4011     0.0000 
     33 C32       104.4810  -80.7530   83.1100 C.3       1 ECH4011     0.0000 
     34 C33       107.2570  -77.3190   85.3480 C.3       1 ECH4011     0.0000 
     35 C34       102.2340  -75.7300   84.7900 C.3       1 ECH4011     0.0000 
     36 C35       101.0590  -76.8200   78.2890 C.3       1 ECH4011     0.0000 
     37 C36        95.0890  -75.1860   75.0730 C.3       1 ECH4011     0.0000 
     38 C37        91.2150  -72.8470   75.9750 C.3       1 ECH4011     0.0000 
     39 C38        87.9030  -70.4470   77.7660 C.3       1 ECH4011     0.0000 
     40 C39        88.2340  -73.6190   81.1680 C.3       1 ECH4011     0.0000 
     41 C40        90.3510  -72.3770   81.5400 C.3       1 ECH4011     0.0000 
@<TRIPOS>BOND
     1    1    2 1    
     2    1    6 1    
     3    1   32 1    
     4    1   33 1    
     5    2    3 1    
     6    3    4 1    
     7    4    5 1    
     8    5    6 2    
     9    5   34 1    
    10    6    7 1    
    11    7    8 2    
    12    8    9 1    
    13    9   10 2    
    14    9   35 1    
    15   10   11 1    
    16   11   12 2    
    17   12   13 1    
    18   13   14 2    
    19   13   36 1    
    20   14   15 1    
    21   15   16 2    
    22   16   17 1    
    23   17   18 2    
    24   18   19 1    
    25   18   37 1    
    26   19   20 2    
    27   20   21 1    
    28   21   22 2    
    29   22   23 1    
    30   22   38 1    
    31   23   24 2    
    32   24   25 1    
    33   25   26 2    
    34   25   31 1    
    35   26   27 1    
    36   26   39 1    
    37   27   28 2    
    38   27   29 1    
    39   29   30 1    
    40   30   31 1    
    41   31   40 1    
    42   31   41 1    
@<TRIPOS>SUBSTRUCTURE
     1 ECH4011     1 GROUP   
@<TRIPOS>SET

