#    Name: 5oy0_8_ECH_CAVITY_N1_4
#    Modification time : Fri May 22 19:15:14 2020

@<TRIPOS>MOLECULE
5oy0_8_ECH_CAVITY_N1_4
   28     0     3     0     0
SMALL
NO_CHARGES


@<TRIPOS>ATOM
      1 CZ         91.2800  -69.5100   74.5000 C.ar      1 PHE5        0.0000 
      2 CZ         95.7900  -76.5400   71.8900 C.ar      1 PHE5        0.0000 
      3 CZ         94.7400  -75.9400   72.7800 C.ar      1 PHE5        0.0000 
      4 CZ         94.7200  -75.0700   74.7100 C.ar      1 PHE5        0.0000 
      5 CZ         95.7600  -74.7900   75.7600 C.ar      1 PHE5        0.0000 
      6 CA         93.4500  -77.5700   72.3400 C.3       2 GLY6        0.0000 
      7 CA         92.3300  -70.1100   73.6100 C.3       2 GLY6        0.0000 
      8 CA         95.5400  -77.8800   72.5000 C.3       2 GLY6        0.0000 
      9 CA         94.4900  -77.2900   73.3800 C.3       2 GLY6        0.0000 
     10 CA         94.2400  -78.6400   73.9900 C.3       2 GLY6        0.0000 
     11 CA         93.6700  -74.4700   75.6000 C.3       2 GLY6        0.0000 
     12 CA         96.5800  -77.6100   73.5400 C.3       2 GLY6        0.0000 
     13 CA         95.5300  -77.0100   74.4300 C.3       2 GLY6        0.0000 
     14 CA         94.4700  -76.4100   75.3200 C.3       2 GLY6        0.0000 
     15 CA         93.4200  -75.8200   76.2000 C.3       2 GLY6        0.0000 
     16 CA         95.2700  -78.3600   75.0400 C.3       2 GLY6        0.0000 
     17 CA         94.2200  -77.7600   75.9200 C.3       2 GLY6        0.0000 
     18 CA         93.1700  -77.1700   76.8100 C.3       2 GLY6        0.0000 
     19 CA         92.9200  -78.5100   77.4200 C.3       2 GLY6        0.0000 
     20 CA         96.5600  -76.7300   75.4800 C.3       2 GLY6        0.0000 
     21 CA         96.3100  -78.0800   76.0800 C.3       2 GLY6        0.0000 
     22 CA         95.2600  -77.4800   76.9700 C.3       2 GLY6        0.0000 
     23 CA         96.0600  -79.4300   76.6900 C.3       2 GLY6        0.0000 
     24 CA         95.0100  -78.8300   77.5800 C.3       2 GLY6        0.0000 
     25 CA         93.9500  -78.2400   78.4700 C.3       2 GLY6        0.0000 
     26 CA         96.0500  -78.5500   78.6300 C.3       2 GLY6        0.0000 
     27 DU         95.5100  -76.1400   76.3600 H         3 CUB7        0.0000 
     28 DU         94.2100  -76.8900   77.8600 H         3 CUB7        0.0000 
@<TRIPOS>BOND
@<TRIPOS>SUBSTRUCTURE
     1 PHE5        1 GROUP   
     2 GLY6        6 GROUP   
     3 CUB7       27 GROUP   
@<TRIPOS>SET

