#    Name: 5oy0_9_ECH
#    Modification time : Fri May 22 19:15:27 2020

@<TRIPOS>MOLECULE
5oy0_9_ECH
   41    42     1     0     0
SMALL
NO_CHARGES


@<TRIPOS>ATOM
      1 C1         82.6110  -66.8700    9.9200 C.3       1 ECH4006     0.0000 
      2 C2         82.2880  -65.4520   10.3830 C.3       1 ECH4006     0.0000 
      3 C3         82.5710  -64.4850    9.2340 C.3       1 ECH4006     0.0000 
      4 C4         84.0650  -64.5000    8.8980 C.3       1 ECH4006     0.0000 
      5 C5         84.5560  -65.8890    8.7050 C.2       1 ECH4006     0.0000 
      6 C6         84.0130  -66.8930    9.4100 C.2       1 ECH4006     0.0000 
      7 C7         84.5870  -68.2270    9.2420 C.2       1 ECH4006     0.0000 
      8 C8         85.6350  -68.6260    9.9790 C.2       1 ECH4006     0.0000 
      9 C9         86.1700  -69.9580    9.7820 C.2       1 ECH4006     0.0000 
     10 C10        86.9800  -70.5440   10.6870 C.2       1 ECH4006     0.0000 
     11 C11        87.4290  -69.9110   11.9110 C.2       1 ECH4006     0.0000 
     12 C12        88.1400  -70.6070   12.8080 C.2       1 ECH4006     0.0000 
     13 C13        88.6480  -70.0000   14.0380 C.2       1 ECH4006     0.0000 
     14 C14        89.5110  -70.7020   14.7910 C.2       1 ECH4006     0.0000 
     15 C15        90.0600  -70.1510   16.0070 C.2       1 ECH4006     0.0000 
     16 C16        90.9540  -70.8270   16.7420 C.2       1 ECH4006     0.0000 
     17 C17        91.4730  -70.2120   17.9400 C.2       1 ECH4006     0.0000 
     18 C18        92.2830  -70.8190   18.8310 C.2       1 ECH4006     0.0000 
     19 C19        92.6790  -69.9610   19.9620 C.2       1 ECH4006     0.0000 
     20 C20        93.4810  -70.1400   21.0310 C.2       1 ECH4006     0.0000 
     21 C21        94.2450  -71.2660   21.5030 C.2       1 ECH4006     0.0000 
     22 C22        94.9180  -71.0550   22.6540 C.2       1 ECH4006     0.0000 
     23 C23        95.7150  -72.0900   23.2570 C.2       1 ECH4006     0.0000 
     24 C24        95.1370  -73.2320   23.6070 C.2       1 ECH4006     0.0000 
     25 C25        95.9090  -74.3030   24.2360 C.2       1 ECH4006     0.0000 
     26 C26        96.6070  -75.1230   23.4480 C.2       1 ECH4006     0.0000 
     27 C27        96.7680  -76.5370   23.7840 C.2       1 ECH4006     0.0000 
     28 O27        97.2090  -77.3370   22.9880 O.2       1 ECH4006     0.0000 
     29 C28        96.3560  -76.9310   25.1750 C.3       1 ECH4006     0.0000 
     30 C29        95.1350  -76.1800   25.6420 C.3       1 ECH4006     0.0000 
     31 C30        95.3850  -74.6790   25.6150 C.3       1 ECH4006     0.0000 
     32 C31        81.6920  -67.2570    8.7640 C.3       1 ECH4006     0.0000 
     33 C32        82.4490  -67.8700   11.0660 C.3       1 ECH4006     0.0000 
     34 C33        85.2020  -66.1860    7.3940 C.3       1 ECH4006     0.0000 
     35 C34        85.7460  -70.6330    8.5210 C.3       1 ECH4006     0.0000 
     36 C35        88.1990  -68.6160   14.3810 C.3       1 ECH4006     0.0000 
     37 C36        92.7580  -72.2340   18.6960 C.3       1 ECH4006     0.0000 
     38 C37        94.9010  -69.7690   23.4070 C.3       1 ECH4006     0.0000 
     39 C38        97.5230  -74.6630   22.3610 C.3       1 ECH4006     0.0000 
     40 C39        96.4430  -74.2730   26.6400 C.3       1 ECH4006     0.0000 
     41 C40        94.0890  -73.9440   25.9480 C.3       1 ECH4006     0.0000 
@<TRIPOS>BOND
     1    1    2 1    
     2    1    6 1    
     3    1   32 1    
     4    1   33 1    
     5    2    3 1    
     6    3    4 1    
     7    4    5 1    
     8    5    6 2    
     9    5   34 1    
    10    6    7 1    
    11    7    8 2    
    12    8    9 1    
    13    9   10 2    
    14    9   35 1    
    15   10   11 1    
    16   11   12 2    
    17   12   13 1    
    18   13   14 2    
    19   13   36 1    
    20   14   15 1    
    21   15   16 2    
    22   16   17 1    
    23   17   18 2    
    24   18   19 1    
    25   18   37 1    
    26   19   20 2    
    27   20   21 1    
    28   21   22 2    
    29   22   23 1    
    30   22   38 1    
    31   23   24 2    
    32   24   25 1    
    33   25   26 2    
    34   25   31 1    
    35   26   27 1    
    36   26   39 1    
    37   27   28 2    
    38   27   29 1    
    39   29   30 1    
    40   30   31 1    
    41   31   40 1    
    42   31   41 1    
@<TRIPOS>SUBSTRUCTURE
     1 ECH4006     1 GROUP   
@<TRIPOS>SET

