#    Name: 5oy0_4_ECH_CAVITY_N1_4
#    Modification time : Fri May 22 19:14:20 2020

@<TRIPOS>MOLECULE
5oy0_4_ECH_CAVITY_N1_4
   67     0     5     0     0
SMALL
NO_CHARGES


@<TRIPOS>ATOM
      1 OG        186.3700  -92.2700  -18.0600 O.3       1 SER1        0.0000 
      2 OG        185.3200  -91.6800  -17.1800 O.3       1 SER1        0.0000 
      3 N         180.0600  -88.7000  -12.7500 N.am      2 ALA2        0.0000 
      4 N         181.4100  -93.9300  -12.7000 N.am      2 ALA2        0.0000 
      5 CZ        175.3500  -86.5200  -17.2600 C.ar      3 PHE5        0.0000 
      6 CZ        178.2600  -89.6500  -19.3100 C.ar      3 PHE5        0.0000 
      7 CZ        175.1000  -87.8600  -16.6500 C.ar      3 PHE5        0.0000 
      8 CZ        176.9600  -90.4000  -17.8200 C.ar      3 PHE5        0.0000 
      9 CZ        175.9000  -89.8100  -16.9300 C.ar      3 PHE5        0.0000 
     10 CZ        176.7100  -91.7500  -17.2100 C.ar      3 PHE5        0.0000 
     11 CZ        177.4400  -86.8300  -17.1000 C.ar      3 PHE5        0.0000 
     12 CZ        180.3500  -89.9700  -19.1500 C.ar      3 PHE5        0.0000 
     13 CZ        178.2500  -88.7800  -17.3800 C.ar      3 PHE5        0.0000 
     14 CZ        177.1900  -88.1800  -16.4900 C.ar      3 PHE5        0.0000 
     15 CZ        176.9400  -89.5300  -15.8900 C.ar      3 PHE5        0.0000 
     16 CZ        177.7400  -91.4700  -16.1600 C.ar      3 PHE5        0.0000 
     17 CZ        176.6900  -90.8800  -15.2800 C.ar      3 PHE5        0.0000 
     18 CZ        177.6800  -84.6100  -15.7800 C.ar      3 PHE5        0.0000 
     19 CZ        181.3900  -89.6900  -18.1100 C.ar      3 PHE5        0.0000 
     20 CZ        181.3600  -87.9400  -14.2400 C.ar      3 PHE5        0.0000 
     21 CZ        181.1100  -89.2900  -13.6300 C.ar      3 PHE5        0.0000 
     22 CZ        188.4700  -92.5900  -17.9000 C.ar      3 PHE5        0.0000 
     23 CZ        187.4100  -91.9900  -17.0200 C.ar      3 PHE5        0.0000 
     24 CZ        185.0500  -92.1500  -14.6400 C.ar      3 PHE5        0.0000 
     25 CZ        182.9500  -90.9600  -12.8600 C.ar      3 PHE5        0.0000 
     26 CZ        189.5000  -92.3100  -16.8600 C.ar      3 PHE5        0.0000 
     27 CA        176.6400  -84.8900  -16.8200 C.3       4 GLY6        0.0000 
     28 CA        176.3900  -86.2400  -16.2200 C.3       4 GLY6        0.0000 
     29 CA        179.3000  -89.3700  -18.2700 C.3       4 GLY6        0.0000 
     30 CA        176.1400  -87.5900  -15.6100 C.3       4 GLY6        0.0000 
     31 CA        180.1000  -91.3200  -18.5400 C.3       4 GLY6        0.0000 
     32 CA        179.0500  -90.7200  -17.6600 C.3       4 GLY6        0.0000 
     33 CA        177.9900  -90.1300  -16.7700 C.3       4 GLY6        0.0000 
     34 CA        175.8900  -88.9300  -15.0000 C.3       4 GLY6        0.0000 
     35 CA        179.8500  -92.6700  -17.9400 C.3       4 GLY6        0.0000 
     36 CA        178.8000  -92.0700  -17.0500 C.3       4 GLY6        0.0000 
     37 CA        177.4300  -85.9600  -15.1700 C.3       4 GLY6        0.0000 
     38 CA        178.2300  -87.9000  -15.4500 C.3       4 GLY6        0.0000 
     39 CA        177.1800  -87.3100  -14.5600 C.3       4 GLY6        0.0000 
     40 CA        177.9800  -89.2500  -14.8400 C.3       4 GLY6        0.0000 
     41 CA        176.9300  -88.6600  -13.9500 C.3       4 GLY6        0.0000 
     42 CA        180.8900  -92.3900  -16.8900 C.3       4 GLY6        0.0000 
     43 CA        179.8300  -91.7900  -16.0000 C.3       4 GLY6        0.0000 
     44 CA        178.7800  -91.2000  -15.1200 C.3       4 GLY6        0.0000 
     45 CA        177.7300  -90.6000  -14.2300 C.3       4 GLY6        0.0000 
     46 CA        179.5800  -93.1400  -15.4000 C.3       4 GLY6        0.0000 
     47 CA        178.5300  -92.5400  -14.5100 C.3       4 GLY6        0.0000 
     48 CA        179.2700  -87.6300  -14.4000 C.3       4 GLY6        0.0000 
     49 CA        179.0200  -88.9700  -13.7900 C.3       4 GLY6        0.0000 
     50 CA        179.8200  -90.9200  -14.0700 C.3       4 GLY6        0.0000 
     51 CA        178.7700  -90.3200  -13.1900 C.3       4 GLY6        0.0000 
     52 CA        180.6200  -92.8600  -14.3500 C.3       4 GLY6        0.0000 
     53 CA        179.5700  -92.2700  -13.4600 C.3       4 GLY6        0.0000 
     54 CA        180.8600  -90.6400  -13.0200 C.3       4 GLY6        0.0000 
     55 DU        178.4800  -86.5600  -16.0500 H         5 CUB7        0.0000 
     56 DU        180.3400  -89.1000  -17.2200 H         5 CUB7        0.0000 
     57 DU        181.1400  -91.0400  -17.5000 H         5 CUB7        0.0000 
     58 DU        180.0900  -90.4400  -16.6100 H         5 CUB7        0.0000 
     59 DU        179.0300  -89.8500  -15.7300 H         5 CUB7        0.0000 
     60 DU        183.4800  -90.0100  -17.9500 H         5 CUB7        0.0000 
     61 DU        180.3200  -88.2200  -15.2900 H         5 CUB7        0.0000 
     62 DU        183.2300  -91.3600  -17.3400 H         5 CUB7        0.0000 
     63 DU        180.0700  -89.5700  -14.6800 H         5 CUB7        0.0000 
     64 DU        180.8700  -91.5100  -14.9600 H         5 CUB7        0.0000 
     65 DU        184.2700  -91.0800  -16.2900 H         5 CUB7        0.0000 
     66 DU        182.1600  -89.8900  -14.5200 H         5 CUB7        0.0000 
     67 DU        181.9100  -91.2400  -13.9100 H         5 CUB7        0.0000 
@<TRIPOS>BOND
@<TRIPOS>SUBSTRUCTURE
     1 SER1        1 GROUP   
     2 ALA2        3 GROUP   
     3 PHE5        5 GROUP   
     4 GLY6       27 GROUP   
     5 CUB7       55 GROUP   
@<TRIPOS>SET

