#    Name: 5oy0_13_ECH_CAVITY_N1_6
#    Modification time : Fri May 22 19:16:05 2020

@<TRIPOS>MOLECULE
5oy0_13_ECH_CAVITY_N1_6
   22     0     3     0     0
SMALL
NO_CHARGES


@<TRIPOS>ATOM
      1 N         108.4700  -72.8500   26.0900 N.am      1 ALA2        0.0000 
      2 N         109.5100  -72.5700   27.1300 N.am      1 ALA2        0.0000 
      3 CA        110.8300  -72.6900   23.7100 C.3       2 GLY6        0.0000 
      4 CA        109.7800  -72.1000   24.5900 C.3       2 GLY6        0.0000 
      5 CA        112.6900  -75.2300   22.5400 C.3       2 GLY6        0.0000 
      6 CA        111.6300  -74.6400   23.4300 C.3       2 GLY6        0.0000 
      7 CA        110.5800  -74.0400   24.3100 C.3       2 GLY6        0.0000 
      8 CA        109.5300  -73.4500   25.2000 C.3       2 GLY6        0.0000 
      9 CA        112.4400  -76.5800   23.1500 C.3       2 GLY6        0.0000 
     10 CA        111.8700  -72.4200   24.7500 C.3       2 GLY6        0.0000 
     11 CA        110.8200  -71.8200   25.6400 C.3       2 GLY6        0.0000 
     12 CA        109.7600  -71.2200   26.5200 C.3       2 GLY6        0.0000 
     13 CA        113.7300  -74.9600   23.5900 C.3       2 GLY6        0.0000 
     14 CA        112.6700  -74.3600   24.4700 C.3       2 GLY6        0.0000 
     15 CA        111.6200  -73.7600   25.3600 C.3       2 GLY6        0.0000 
     16 CA        113.4700  -76.3000   24.1900 C.3       2 GLY6        0.0000 
     17 CA        110.8000  -70.9500   27.5700 C.3       2 GLY6        0.0000 
     18 CA        115.3100  -77.9700   24.9600 C.3       2 GLY6        0.0000 
     19 CA        116.1200  -79.9100   24.6800 C.3       2 GLY6        0.0000 
     20 CA        116.3500  -77.6900   26.0100 C.3       2 GLY6        0.0000 
     21 DU        110.5700  -73.1700   26.2500 H         3 CUB7        0.0000 
     22 DU        112.4200  -75.7100   25.0800 H         3 CUB7        0.0000 
@<TRIPOS>BOND
@<TRIPOS>SUBSTRUCTURE
     1 ALA2        1 GROUP   
     2 GLY6        3 GROUP   
     3 CUB7       21 GROUP   
@<TRIPOS>SET

