#    Name: 5oy0_2_ZEX
#    Modification time : Fri May 22 19:13:44 2020

@<TRIPOS>MOLECULE
5oy0_2_ZEX
   42    43     1     0     0
SMALL
NO_CHARGES


@<TRIPOS>ATOM
      1 C6        219.5600  -96.1330   70.6090 C.2       1 ZEX4015     0.0000 
      2 C17       217.6640  -97.4800   71.2140 C.3       1 ZEX4015     0.0000 
      3 C4        219.5430  -93.6640   70.9490 C.3       1 ZEX4015     0.0000 
      4 C3        218.0350  -93.7050   70.7490 C.3       1 ZEX4015     0.0000 
      5 O3        217.4460  -92.6240   71.4780 O.3       1 ZEX4015     0.0000 
      6 C2        217.4830  -95.0020   71.3000 C.3       1 ZEX4015     0.0000 
      7 C1        218.0600  -96.1810   70.5400 C.3       1 ZEX4015     0.0000 
      8 C5        220.2420  -94.9980   70.8050 C.2       1 ZEX4015     0.0000 
      9 C18       221.7360  -94.9480   70.9420 C.3       1 ZEX4015     0.0000 
     10 C16       217.5710  -96.1890   69.0990 C.3       1 ZEX4015     0.0000 
     11 O23       239.5970 -112.2440   68.3510 O.3       1 ZEX4015     0.0000 
     12 C26       238.2250 -109.2180   68.0740 C.2       1 ZEX4015     0.0000 
     13 C7        220.2420  -97.4340   70.4750 C.2       1 ZEX4015     0.0000 
     14 C8        221.0680  -97.8540   69.5280 C.2       1 ZEX4015     0.0000 
     15 C9        221.6200  -99.2130   69.6150 C.2       1 ZEX4015     0.0000 
     16 C19       220.8420 -100.3220   70.2610 C.3       1 ZEX4015     0.0000 
     17 C10       222.8280  -99.4290   69.0970 C.2       1 ZEX4015     0.0000 
     18 C11       223.5860 -100.6670   69.0480 C.2       1 ZEX4015     0.0000 
     19 C12       224.9030 -100.6360   68.9180 C.2       1 ZEX4015     0.0000 
     20 C13       225.6680 -101.8860   68.8530 C.2       1 ZEX4015     0.0000 
     21 C20       225.0250 -103.1970   69.1860 C.3       1 ZEX4015     0.0000 
     22 C14       226.9470 -101.8380   68.4790 C.2       1 ZEX4015     0.0000 
     23 C15       227.8470 -102.9690   68.3400 C.2       1 ZEX4015     0.0000 
     24 C35       229.1250 -102.8270   68.0270 C.2       1 ZEX4015     0.0000 
     25 C34       229.9590 -104.0090   67.8800 C.2       1 ZEX4015     0.0000 
     26 C33       231.2770 -104.0640   68.0720 C.2       1 ZEX4015     0.0000 
     27 C40       232.0160 -102.8300   68.4960 C.3       1 ZEX4015     0.0000 
     28 C32       232.0100 -105.3250   67.8730 C.2       1 ZEX4015     0.0000 
     29 C31       233.1840 -105.4510   68.4760 C.2       1 ZEX4015     0.0000 
     30 C30       233.9990 -106.6500   68.3330 C.2       1 ZEX4015     0.0000 
     31 C29       235.3290 -106.6630   68.4750 C.2       1 ZEX4015     0.0000 
     32 C39       236.0370 -105.3840   68.8100 C.3       1 ZEX4015     0.0000 
     33 C28       236.1030 -107.9060   68.3100 C.2       1 ZEX4015     0.0000 
     34 C27       237.4380 -107.9660   68.2510 C.2       1 ZEX4015     0.0000 
     35 C21       238.5380 -109.5500   66.6140 C.3       1 ZEX4015     0.0000 
     36 C36       237.3930 -109.2150   65.6590 C.3       1 ZEX4015     0.0000 
     37 C37       239.7110 -108.6590   66.2280 C.3       1 ZEX4015     0.0000 
     38 C22       238.9500 -111.0060   66.3840 C.3       1 ZEX4015     0.0000 
     39 C23       238.5120 -112.0120   67.4460 C.3       1 ZEX4015     0.0000 
     40 C24       237.3200 -111.4740   68.2180 C.3       1 ZEX4015     0.0000 
     41 C25       237.7610 -110.2170   68.8420 C.2       1 ZEX4015     0.0000 
     42 C38       237.7030 -110.1340   70.3410 Du        1 ZEX4015     0.0000 
@<TRIPOS>BOND
     1    1    7 1    
     2    1    8 2    
     3    1   13 1    
     4    2    7 1    
     5    3    4 1    
     6    3    8 1    
     7    4    5 1    
     8    4    6 1    
     9    6    7 1    
    10    7   10 1    
    11    8    9 1    
    12   11   39 1    
    13   12   34 1    
    14   12   35 1    
    15   12   41 2    
    16   13   14 2    
    17   14   15 1    
    18   15   16 1    
    19   15   17 2    
    20   17   18 1    
    21   18   19 2    
    22   19   20 1    
    23   20   21 1    
    24   20   22 2    
    25   22   23 1    
    26   23   24 2    
    27   24   25 1    
    28   25   26 2    
    29   26   27 1    
    30   26   28 1    
    31   28   29 2    
    32   29   30 1    
    33   30   31 2    
    34   31   32 1    
    35   31   33 1    
    36   33   34 2    
    37   35   36 1    
    38   35   37 1    
    39   35   38 1    
    40   38   39 1    
    41   39   40 1    
    42   40   41 1    
    43   41   42 du   
@<TRIPOS>SUBSTRUCTURE
     1 ZEX4015     1 GROUP   
@<TRIPOS>SET

