#    Name: 5oy0_6_ZEX
#    Modification time : Fri May 22 19:14:38 2020

@<TRIPOS>MOLECULE
5oy0_6_ZEX
   42    43     1     0     0
SMALL
NO_CHARGES


@<TRIPOS>ATOM
      1 C6        148.7130  -75.0340  -50.7470 C.2       1 ZEX4015     0.0000 
      2 C17       149.9800  -76.8880  -49.8130 C.3       1 ZEX4015     0.0000 
      3 C4        149.3410  -72.6790  -50.2170 C.3       1 ZEX4015     0.0000 
      4 C3        149.9350  -73.1710  -48.9040 C.3       1 ZEX4015     0.0000 
      5 O3        151.0520  -72.3330  -48.5920 O.3       1 ZEX4015     0.0000 
      6 C2        150.4390  -74.5970  -49.0220 C.3       1 ZEX4015     0.0000 
      7 C1        149.3480  -75.5480  -49.4820 C.3       1 ZEX4015     0.0000 
      8 C5        148.8400  -73.7600  -51.1480 C.2       1 ZEX4015     0.0000 
      9 C18       148.5410  -73.2890  -52.5440 C.3       1 ZEX4015     0.0000 
     10 C16       148.2930  -75.7340  -48.4000 C.3       1 ZEX4015     0.0000 
     11 O23       133.6140  -83.3920  -70.1280 O.3       1 ZEX4015     0.0000 
     12 C26       134.7130  -80.8380  -68.1800 C.2       1 ZEX4015     0.0000 
     13 C7        147.9520  -76.0230  -51.5390 C.2       1 ZEX4015     0.0000 
     14 C8        146.7270  -75.9420  -52.0480 C.2       1 ZEX4015     0.0000 
     15 C9        146.1900  -77.0750  -52.8130 C.2       1 ZEX4015     0.0000 
     16 C19       146.8170  -78.4310  -52.6880 C.3       1 ZEX4015     0.0000 
     17 C10       145.1390  -76.8670  -53.6120 C.2       1 ZEX4015     0.0000 
     18 C11       144.4400  -77.8150  -54.4670 C.2       1 ZEX4015     0.0000 
     19 C12       143.5670  -77.3870  -55.3700 C.2       1 ZEX4015     0.0000 
     20 C13       142.8600  -78.3350  -56.2440 C.2       1 ZEX4015     0.0000 
     21 C20       143.0730  -79.8100  -56.0990 C.3       1 ZEX4015     0.0000 
     22 C14       142.0270  -77.8630  -57.1740 C.2       1 ZEX4015     0.0000 
     23 C15       141.2480  -78.6460  -58.1230 C.2       1 ZEX4015     0.0000 
     24 C35       140.4200  -78.0930  -58.9970 C.2       1 ZEX4015     0.0000 
     25 C34       139.6560  -78.9310  -59.9110 C.2       1 ZEX4015     0.0000 
     26 C33       139.1550  -78.5370  -61.0850 C.2       1 ZEX4015     0.0000 
     27 C40       139.3840  -77.1290  -61.5460 C.3       1 ZEX4015     0.0000 
     28 C32       138.3810  -79.4650  -61.9260 C.2       1 ZEX4015     0.0000 
     29 C31       138.2220  -79.1460  -63.2040 C.2       1 ZEX4015     0.0000 
     30 C30       137.4640  -79.9780  -64.1320 C.2       1 ZEX4015     0.0000 
     31 C29       136.9560  -79.5250  -65.2860 C.2       1 ZEX4015     0.0000 
     32 C39       137.1840  -78.0890  -65.6530 C.3       1 ZEX4015     0.0000 
     33 C28       136.1880  -80.3980  -66.1950 C.2       1 ZEX4015     0.0000 
     34 C27       135.5020  -79.9690  -67.2610 C.2       1 ZEX4015     0.0000 
     35 C21       133.2340  -80.9590  -67.8070 C.3       1 ZEX4015     0.0000 
     36 C36       132.9780  -80.8450  -66.3040 C.3       1 ZEX4015     0.0000 
     37 C37       132.5530  -79.7620  -68.4580 C.3       1 ZEX4015     0.0000 
     38 C22       132.5450  -82.2310  -68.3110 C.3       1 ZEX4015     0.0000 
     39 C23       133.4440  -83.3990  -68.7070 C.3       1 ZEX4015     0.0000 
     40 C24       134.7970  -83.2590  -68.0340 C.3       1 ZEX4015     0.0000 
     41 C25       135.3540  -81.9760  -68.4870 C.2       1 ZEX4015     0.0000 
     42 C38       136.6120  -82.0150  -69.3060 Du        1 ZEX4015     0.0000 
@<TRIPOS>BOND
     1    1    7 1    
     2    1    8 2    
     3    1   13 1    
     4    2    7 1    
     5    3    4 1    
     6    3    8 1    
     7    4    5 1    
     8    4    6 1    
     9    6    7 1    
    10    7   10 1    
    11    8    9 1    
    12   11   39 1    
    13   12   34 1    
    14   12   35 1    
    15   12   41 2    
    16   13   14 2    
    17   14   15 1    
    18   15   16 1    
    19   15   17 2    
    20   17   18 1    
    21   18   19 2    
    22   19   20 1    
    23   20   21 1    
    24   20   22 2    
    25   22   23 1    
    26   23   24 2    
    27   24   25 1    
    28   25   26 2    
    29   26   27 1    
    30   26   28 1    
    31   28   29 2    
    32   29   30 1    
    33   30   31 2    
    34   31   32 1    
    35   31   33 1    
    36   33   34 2    
    37   35   36 1    
    38   35   37 1    
    39   35   38 1    
    40   38   39 1    
    41   39   40 1    
    42   40   41 1    
    43   41   42 du   
@<TRIPOS>SUBSTRUCTURE
     1 ZEX4015     1 GROUP   
@<TRIPOS>SET

