#    Name: 5oy0_4_ECH
#    Modification time : Fri May 22 19:14:18 2020

@<TRIPOS>MOLECULE
5oy0_4_ECH
   41    42     1     0     0
SMALL
NO_CHARGES


@<TRIPOS>ATOM
      1 C1        199.3510  -89.9910  -20.9260 C.3       1 ECH4006     0.0000 
      2 C2        199.6180  -88.7460  -21.7840 C.3       1 ECH4006     0.0000 
      3 C3        200.5610  -87.8080  -21.0330 C.3       1 ECH4006     0.0000 
      4 C4        199.8820  -87.3050  -19.7620 C.3       1 ECH4006     0.0000 
      5 C5        199.3520  -88.4340  -18.9560 C.2       1 ECH4006     0.0000 
      6 C6        198.9170  -89.5510  -19.5630 C.2       1 ECH4006     0.0000 
      7 C7        198.2770  -90.5740  -18.7340 C.2       1 ECH4006     0.0000 
      8 C8        197.0230  -90.3920  -18.3000 C.2       1 ECH4006     0.0000 
      9 C9        196.3620  -91.3840  -17.4720 C.2       1 ECH4006     0.0000 
     10 C10       195.0460  -91.2860  -17.2390 C.2       1 ECH4006     0.0000 
     11 C11       194.3090  -90.1980  -17.8060 C.2       1 ECH4006     0.0000 
     12 C12       193.0220  -89.9700  -17.5450 C.2       1 ECH4006     0.0000 
     13 C13       192.4190  -88.8240  -18.1780 C.2       1 ECH4006     0.0000 
     14 C14       191.1170  -88.5600  -18.0950 C.2       1 ECH4006     0.0000 
     15 C15       190.1240  -89.3380  -17.4090 C.2       1 ECH4006     0.0000 
     16 C16       188.9520  -88.7200  -17.3700 C.2       1 ECH4006     0.0000 
     17 C17       187.7310  -89.1980  -16.7880 C.2       1 ECH4006     0.0000 
     18 C18       186.7670  -88.2780  -16.7060 C.2       1 ECH4006     0.0000 
     19 C19       185.4640  -88.5780  -16.1820 C.2       1 ECH4006     0.0000 
     20 C20       184.5060  -87.6790  -16.4260 C.2       1 ECH4006     0.0000 
     21 C21       183.1590  -87.8520  -15.9870 C.2       1 ECH4006     0.0000 
     22 C22       182.2670  -86.8610  -16.0940 C.2       1 ECH4006     0.0000 
     23 C23       180.9390  -87.1430  -15.6430 C.2       1 ECH4006     0.0000 
     24 C24       180.4580  -88.3490  -15.9430 C.2       1 ECH4006     0.0000 
     25 C25       179.1360  -88.7490  -15.5130 C.2       1 ECH4006     0.0000 
     26 C26       179.0890  -89.4840  -14.4120 C.2       1 ECH4006     0.0000 
     27 C27       178.3000  -90.7050  -14.3600 C.2       1 ECH4006     0.0000 
     28 O27       178.5120  -91.5740  -13.5440 O.2       1 ECH4006     0.0000 
     29 C28       177.2010  -90.8060  -15.3760 C.3       1 ECH4006     0.0000 
     30 C29       177.5670  -90.2150  -16.7240 C.3       1 ECH4006     0.0000 
     31 C30       178.0750  -88.7740  -16.5910 C.3       1 ECH4006     0.0000 
     32 C31       200.6410  -90.8080  -20.7760 C.3       1 ECH4006     0.0000 
     33 C32       198.2630  -90.8630  -21.5570 C.3       1 ECH4006     0.0000 
     34 C33       199.7940  -88.5010  -17.5330 C.3       1 ECH4006     0.0000 
     35 C34       197.2120  -92.4680  -16.9140 C.3       1 ECH4006     0.0000 
     36 C35       193.3190  -87.9130  -18.9260 C.3       1 ECH4006     0.0000 
     37 C36       186.9780  -86.8870  -17.1720 C.3       1 ECH4006     0.0000 
     38 C37       182.5330  -85.5110  -16.6350 C.3       1 ECH4006     0.0000 
     39 C38       179.9710  -89.2500  -13.2300 C.3       1 ECH4006     0.0000 
     40 C39       176.9550  -87.8440  -16.1530 C.3       1 ECH4006     0.0000 
     41 C40       178.6100  -88.2820  -17.9340 C.3       1 ECH4006     0.0000 
@<TRIPOS>BOND
     1    1    2 1    
     2    1    6 1    
     3    1   32 1    
     4    1   33 1    
     5    2    3 1    
     6    3    4 1    
     7    4    5 1    
     8    5    6 2    
     9    5   34 1    
    10    6    7 1    
    11    7    8 2    
    12    8    9 1    
    13    9   10 2    
    14    9   35 1    
    15   10   11 1    
    16   11   12 2    
    17   12   13 1    
    18   13   14 2    
    19   13   36 1    
    20   14   15 1    
    21   15   16 2    
    22   16   17 1    
    23   17   18 2    
    24   18   19 1    
    25   18   37 1    
    26   19   20 2    
    27   20   21 1    
    28   21   22 2    
    29   22   23 1    
    30   22   38 1    
    31   23   24 2    
    32   24   25 1    
    33   25   26 2    
    34   25   31 1    
    35   26   27 1    
    36   26   39 1    
    37   27   28 2    
    38   27   29 1    
    39   29   30 1    
    40   30   31 1    
    41   31   40 1    
    42   31   41 1    
@<TRIPOS>SUBSTRUCTURE
     1 ECH4006     1 GROUP   
@<TRIPOS>SET

