#    Name: 5oy0_3_45D
#    Modification time : Fri May 22 19:14:07 2020

@<TRIPOS>MOLECULE
5oy0_3_45D
   42    43     1     0     0
SMALL
NO_CHARGES


@<TRIPOS>ATOM
      1 O01       138.1080  -67.8530  -49.4170           1 45D4011     0.0000 
      2 O02       124.0690  -74.4190  -31.3200           1 45D4011     0.0000 
      3 C03       135.2350  -70.2800  -47.8260           1 45D4011     0.0000 
      4 C04       122.7800  -70.5700  -32.0480           1 45D4011     0.0000 
      5 C05       135.0560  -69.7810  -49.2700           1 45D4011     0.0000 
      6 C06       121.9980  -71.4480  -31.0640           1 45D4011     0.0000 
      7 C07       136.6900  -70.5320  -47.3790           1 45D4011     0.0000 
      8 C08       123.5050  -71.3630  -33.1540           1 45D4011     0.0000 
      9 C09       136.3030  -69.2660  -49.9990           1 45D4011     0.0000 
     10 C10       122.8110  -72.6090  -30.4980           1 45D4011     0.0000 
     11 C11       134.4490  -71.5910  -47.6300           1 45D4011     0.0000 
     12 C12       134.6370  -69.1980  -46.9220           1 45D4011     0.0000 
     13 C13       121.7720  -69.6330  -32.7090           1 45D4011     0.0000 
     14 C14       123.8110  -69.7320  -31.2670           1 45D4011     0.0000 
     15 C15       137.7550  -69.5490  -47.8250           1 45D4011     0.0000 
     16 C16       123.6330  -72.8790  -32.9890           1 45D4011     0.0000 
     17 C17       137.4520  -68.7880  -49.1110           1 45D4011     0.0000 
     18 C18       123.5430  -73.4010  -31.5740           1 45D4011     0.0000 
     19 C19       136.9880  -71.5260  -46.2270           1 45D4011     0.0000 
     20 C20       124.0010  -70.6560  -34.4520           1 45D4011     0.0000 
     21 C21       139.1890  -69.6750  -47.3030           1 45D4011     0.0000 
     22 C22       124.3260  -73.7610  -34.0410           1 45D4011     0.0000 
     23 C23       136.6570  -71.1340  -44.9410           1 45D4011     0.0000 
     24 C24       125.3070  -70.7330  -34.8740           1 45D4011     0.0000 
     25 C25       136.9050  -72.0490  -43.7050           1 45D4011     0.0000 
     26 C26       125.6640  -69.9820  -36.1840           1 45D4011     0.0000 
     27 C27       138.1760  -72.8730  -43.5800           1 45D4011     0.0000 
     28 C28       124.5870  -69.1300  -36.8450           1 45D4011     0.0000 
     29 C29       135.9530  -72.0840  -42.7290           1 45D4011     0.0000 
     30 C30       126.9020  -70.0620  -36.7680           1 45D4011     0.0000 
     31 C31       136.1760  -72.9580  -41.4830           1 45D4011     0.0000 
     32 C32       128.0920  -70.8750  -36.2230           1 45D4011     0.0000 
     33 C33       135.7300  -72.4810  -40.2900           1 45D4011     0.0000 
     34 C34       129.1670  -70.9470  -37.0380           1 45D4011     0.0000 
     35 C35       135.9650  -73.3390  -39.0220           1 45D4011     0.0000 
     36 C36       130.4630  -71.7080  -36.6750           1 45D4011     0.0000 
     37 C37       135.0010  -73.4230  -38.0940           1 45D4011     0.0000 
     38 C38       131.4890  -71.6960  -37.5680           1 45D4011     0.0000 
     39 C39       137.3110  -74.0610  -38.8670           1 45D4011     0.0000 
     40 C40       130.5770  -72.4550  -35.3420           1 45D4011     0.0000 
     41 C41       133.6730  -72.6700  -38.3260           1 45D4011     0.0000 
     42 C42       132.8160  -72.4380  -37.2900           1 45D4011     0.0000 
@<TRIPOS>BOND
     1    1   17 du   
     2    2   18 du   
     3    3    5 du   
     4    3    7 du   
     5    3   11 du   
     6    3   12 du   
     7    4    6 du   
     8    4    8 du   
     9    4   13 du   
    10    4   14 du   
    11    5    9 du   
    12    6   10 du   
    13    7   15 du   
    14    7   19 du   
    15    8   16 du   
    16    8   20 du   
    17    9   17 du   
    18   10   18 du   
    19   15   17 du   
    20   15   21 du   
    21   16   18 du   
    22   16   22 du   
    23   19   23 du   
    24   20   24 du   
    25   23   25 du   
    26   24   26 du   
    27   25   27 du   
    28   25   29 du   
    29   26   28 du   
    30   26   30 du   
    31   29   31 du   
    32   30   32 du   
    33   31   33 du   
    34   32   34 du   
    35   33   35 du   
    36   34   36 du   
    37   35   37 du   
    38   35   39 du   
    39   36   38 du   
    40   36   40 du   
    41   37   41 du   
    42   38   42 du   
    43   41   42 du   
@<TRIPOS>SUBSTRUCTURE
     1 45D4011     1 GROUP   
@<TRIPOS>SET

