#    Name: 5oy0_12_ZEX
#    Modification time : Fri May 22 19:15:49 2020

@<TRIPOS>MOLECULE
5oy0_12_ZEX
   42    43     1     0     0
SMALL
NO_CHARGES


@<TRIPOS>ATOM
      1 C6         79.6210  -71.1790   69.7880 C.2       1 ZEX4015     0.0000 
      2 C17        79.0850  -72.2230   67.6540 C.3       1 ZEX4015     0.0000 
      3 C4         80.6510  -68.9020   69.7670 C.3       1 ZEX4015     0.0000 
      4 C3         81.4420  -69.3510   68.5510 C.3       1 ZEX4015     0.0000 
      5 O3         81.7930  -68.1830   67.8010 O.3       1 ZEX4015     0.0000 
      6 C2         80.5770  -70.2530   67.6870 C.3       1 ZEX4015     0.0000 
      7 C1         80.1880  -71.5210   68.4330 C.3       1 ZEX4015     0.0000 
      8 C5         79.7310  -69.9600   70.3340 C.2       1 ZEX4015     0.0000 
      9 C18        78.9210  -69.5340   71.5250 C.3       1 ZEX4015     0.0000 
     10 C16        81.4000  -72.4300   68.5920 C.3       1 ZEX4015     0.0000 
     11 O23        65.8320  -83.2350   87.9130 O.3       1 ZEX4015     0.0000 
     12 C26        68.2050  -81.1740   86.5600 C.2       1 ZEX4015     0.0000 
     13 C7         78.8890  -72.2360   70.5170 C.2       1 ZEX4015     0.0000 
     14 C8         79.2170  -72.8680   71.6430 C.2       1 ZEX4015     0.0000 
     15 C9         78.2860  -73.8810   72.1740 C.2       1 ZEX4015     0.0000 
     16 C19        77.2570  -74.5000   71.2770 C.3       1 ZEX4015     0.0000 
     17 C10        78.3480  -74.2520   73.4590 C.2       1 ZEX4015     0.0000 
     18 C11        77.4740  -75.2220   74.1100 C.2       1 ZEX4015     0.0000 
     19 C12        77.3110  -75.2790   75.4280 C.2       1 ZEX4015     0.0000 
     20 C13        76.3890  -76.2690   76.0120 C.2       1 ZEX4015     0.0000 
     21 C20        75.9550  -77.4610   75.2110 C.3       1 ZEX4015     0.0000 
     22 C14        75.9390  -76.0880   77.2620 C.2       1 ZEX4015     0.0000 
     23 C15        75.0060  -76.9270   78.0100 C.2       1 ZEX4015     0.0000 
     24 C35        74.6900  -76.7040   79.2820 C.2       1 ZEX4015     0.0000 
     25 C34        73.7300  -77.5650   79.9670 C.2       1 ZEX4015     0.0000 
     26 C33        73.4850  -77.6030   81.2830 C.2       1 ZEX4015     0.0000 
     27 C40        74.2520  -76.7150   82.2140 C.3       1 ZEX4015     0.0000 
     28 C32        72.4780  -78.5100   81.8630 C.2       1 ZEX4015     0.0000 
     29 C31        71.8320  -78.0350   82.9240 C.2       1 ZEX4015     0.0000 
     30 C30        70.8100  -78.7680   83.6660 C.2       1 ZEX4015     0.0000 
     31 C29        70.6980  -78.6690   84.9970 C.2       1 ZEX4015     0.0000 
     32 C39        71.6540  -77.7670   85.7220 C.3       1 ZEX4015     0.0000 
     33 C28        69.6840  -79.3940   85.7860 C.2       1 ZEX4015     0.0000 
     34 C27        69.2000  -80.6240   85.6050 C.2       1 ZEX4015     0.0000 
     35 C21        68.9180  -81.8490   87.7330 C.3       1 ZEX4015     0.0000 
     36 C36        70.3170  -82.3200   87.3240 C.3       1 ZEX4015     0.0000 
     37 C37        69.0830  -80.7970   88.8240 C.3       1 ZEX4015     0.0000 
     38 C22        68.1760  -83.0330   88.3630 C.3       1 ZEX4015     0.0000 
     39 C23        67.1150  -83.7220   87.5110 C.3       1 ZEX4015     0.0000 
     40 C24        67.3530  -83.3980   86.0480 C.3       1 ZEX4015     0.0000 
     41 C25        67.3050  -81.9340   85.9220 C.2       1 ZEX4015     0.0000 
     42 C38        66.2090  -81.3460   85.0830 Du        1 ZEX4015     0.0000 
@<TRIPOS>BOND
     1    1    7 1    
     2    1    8 2    
     3    1   13 1    
     4    2    7 1    
     5    3    4 1    
     6    3    8 1    
     7    4    5 1    
     8    4    6 1    
     9    6    7 1    
    10    7   10 1    
    11    8    9 1    
    12   11   39 1    
    13   12   34 1    
    14   12   35 1    
    15   12   41 2    
    16   13   14 2    
    17   14   15 1    
    18   15   16 1    
    19   15   17 2    
    20   17   18 1    
    21   18   19 2    
    22   19   20 1    
    23   20   21 1    
    24   20   22 2    
    25   22   23 1    
    26   23   24 2    
    27   24   25 1    
    28   25   26 2    
    29   26   27 1    
    30   26   28 1    
    31   28   29 2    
    32   29   30 1    
    33   30   31 2    
    34   31   32 1    
    35   31   33 1    
    36   33   34 2    
    37   35   36 1    
    38   35   37 1    
    39   35   38 1    
    40   38   39 1    
    41   39   40 1    
    42   40   41 1    
    43   41   42 du   
@<TRIPOS>SUBSTRUCTURE
     1 ZEX4015     1 GROUP   
@<TRIPOS>SET

