#    Name: 5oy0_13_ECH
#    Modification time : Fri May 22 19:16:04 2020

@<TRIPOS>MOLECULE
5oy0_13_ECH
   41    42     1     0     0
SMALL
NO_CHARGES


@<TRIPOS>ATOM
      1 C1        123.9010  -76.5260   21.2070 C.3       1 ECH4021     0.0000 
      2 C2        124.9130  -76.9690   22.2740 C.3       1 ECH4021     0.0000 
      3 C3        124.6980  -78.4400   22.5970 C.3       1 ECH4021     0.0000 
      4 C4        123.3490  -78.6120   23.2760 C.3       1 ECH4021     0.0000 
      5 C5        122.2590  -77.9860   22.4770 C.2       1 ECH4021     0.0000 
      6 C6        122.5100  -76.9730   21.6180 C.2       1 ECH4021     0.0000 
      7 C7        121.4220  -76.5980   20.7020 C.2       1 ECH4021     0.0000 
      8 C8        120.5220  -75.6630   21.0510 C.2       1 ECH4021     0.0000 
      9 C9        119.4470  -75.3160   20.1460 C.2       1 ECH4021     0.0000 
     10 C10       118.4910  -74.4440   20.5010 C.2       1 ECH4021     0.0000 
     11 C11       118.4330  -73.7370   21.7630 C.2       1 ECH4021     0.0000 
     12 C12       117.2640  -73.2320   22.1780 C.2       1 ECH4021     0.0000 
     13 C13       117.1390  -72.4750   23.4070 C.2       1 ECH4021     0.0000 
     14 C14       116.0310  -71.7340   23.5880 C.2       1 ECH4021     0.0000 
     15 C15       115.8440  -70.9040   24.7660 C.2       1 ECH4021     0.0000 
     16 C16       114.7320  -70.1690   24.9210 C.2       1 ECH4021     0.0000 
     17 C17       114.5800  -69.3040   26.0780 C.2       1 ECH4021     0.0000 
     18 C18       113.4910  -68.5390   26.2770 C.2       1 ECH4021     0.0000 
     19 C19       113.4470  -67.6600   27.4610 C.2       1 ECH4021     0.0000 
     20 C20       112.5140  -66.7020   27.5830 C.2       1 ECH4021     0.0000 
     21 C21       112.4580  -65.7950   28.7150 C.2       1 ECH4021     0.0000 
     22 C22       111.3820  -65.0080   28.9270 C.2       1 ECH4021     0.0000 
     23 C23       111.3410  -64.0840   30.0540 C.2       1 ECH4021     0.0000 
     24 C24       112.1070  -62.9870   30.0850 C.2       1 ECH4021     0.0000 
     25 C25       112.0330  -62.0500   31.2220 C.2       1 ECH4021     0.0000 
     26 C26       111.5300  -60.8450   30.9640 C.2       1 ECH4021     0.0000 
     27 C27       112.1940  -59.6300   31.4710 C.2       1 ECH4021     0.0000 
     28 O27       112.0150  -58.5360   30.9760 O.2       1 ECH4021     0.0000 
     29 C28       113.1170  -59.8160   32.6430 C.3       1 ECH4021     0.0000 
     30 C29       112.9440  -61.1410   33.3540 C.3       1 ECH4021     0.0000 
     31 C30       112.9840  -62.3310   32.3820 C.3       1 ECH4021     0.0000 
     32 C31       124.2500  -77.1760   19.8700 C.3       1 ECH4021     0.0000 
     33 C32       123.9340  -75.0040   21.0440 C.3       1 ECH4021     0.0000 
     34 C33       120.9640  -78.7230   22.4120 C.3       1 ECH4021     0.0000 
     35 C34       119.4480  -76.0030   18.8190 C.3       1 ECH4021     0.0000 
     36 C35       118.2550  -72.5450   24.3820 C.3       1 ECH4021     0.0000 
     37 C36       112.3330  -68.5290   25.3470 C.3       1 ECH4021     0.0000 
     38 C37       110.1630  -64.9890   28.0960 C.3       1 ECH4021     0.0000 
     39 C38       110.6400  -60.5910   29.7950 C.3       1 ECH4021     0.0000 
     40 C39       112.5190  -63.5960   33.1080 C.3       1 ECH4021     0.0000 
     41 C40       114.4080  -62.5420   31.8660 C.3       1 ECH4021     0.0000 
@<TRIPOS>BOND
     1    1    2 1    
     2    1    6 1    
     3    1   32 1    
     4    1   33 1    
     5    2    3 1    
     6    3    4 1    
     7    4    5 1    
     8    5    6 2    
     9    5   34 1    
    10    6    7 1    
    11    7    8 2    
    12    8    9 1    
    13    9   10 2    
    14    9   35 1    
    15   10   11 1    
    16   11   12 2    
    17   12   13 1    
    18   13   14 2    
    19   13   36 1    
    20   14   15 1    
    21   15   16 2    
    22   16   17 1    
    23   17   18 2    
    24   18   19 1    
    25   18   37 1    
    26   19   20 2    
    27   20   21 1    
    28   21   22 2    
    29   22   23 1    
    30   22   38 1    
    31   23   24 2    
    32   24   25 1    
    33   25   26 2    
    34   25   31 1    
    35   26   27 1    
    36   26   39 1    
    37   27   28 2    
    38   27   29 1    
    39   29   30 1    
    40   30   31 1    
    41   31   40 1    
    42   31   41 1    
@<TRIPOS>SUBSTRUCTURE
     1 ECH4021     1 GROUP   
@<TRIPOS>SET

