#    Name: 6ci7_6_ACP_CAVITY_N1_12
#    Modification time : Fri May 22 19:34:10 2020

@<TRIPOS>MOLECULE
6ci7_6_ACP_CAVITY_N1_12
  121     0     6     0     0
SMALL
NO_CHARGES


@<TRIPOS>ATOM
      1 OG        -41.5600  -26.0800   16.1800 O.3       1 SER1        0.0000 
      2 OG        -42.5500  -24.9600   16.0800 O.3       1 SER1        0.0000 
      3 OG        -42.1600  -26.5100   17.4800 O.3       1 SER1        0.0000 
      4 OG        -44.7100  -16.6600   17.7800 O.3       1 SER1        0.0000 
      5 OG        -46.3200  -15.9700   18.9900 O.3       1 SER1        0.0000 
      6 OG        -44.7700  -14.6400   18.4200 O.3       1 SER1        0.0000 
      7 OG        -43.6600  -17.2400   23.2700 O.3       1 SER1        0.0000 
      8 OG        -44.6500  -16.1300   23.1700 O.3       1 SER1        0.0000 
      9 OG        -44.2600  -17.6700   24.5700 O.3       1 SER1        0.0000 
     10 OG        -45.2600  -16.5500   24.4700 O.3       1 SER1        0.0000 
     11 OG        -43.3200  -16.7600   25.3000 O.3       1 SER1        0.0000 
     12 OG        -43.9300  -17.1900   26.6100 O.3       1 SER1        0.0000 
     13 N         -43.8300  -26.3500   13.3000 N.am      2 ALA2        0.0000 
     14 N         -44.4400  -26.7800   14.6100 N.am      2 ALA2        0.0000 
     15 O         -41.5000  -28.1000   15.5400 O.2       2 ALA2        0.0000 
     16 O         -43.5000  -25.8700   15.3400 O.2       2 ALA2        0.0000 
     17 O         -42.1100  -28.5300   16.8400 O.2       2 ALA2        0.0000 
     18 N         -40.9500  -25.6500   14.8700 N.am      2 ALA2        0.0000 
     19 N         -41.9500  -24.5400   14.7700 N.am      2 ALA2        0.0000 
     20 O         -44.1600  -24.2700   17.2800 O.2       2 ALA2        0.0000 
     21 O         -42.9400  -20.8600   20.6900 O.2       2 ALA2        0.0000 
     22 O         -43.9400  -19.7500   20.5900 O.2       2 ALA2        0.0000 
     23 O         -43.5500  -21.2900   21.9900 O.2       2 ALA2        0.0000 
     24 O         -42.3900  -18.4100   20.0200 O.2       2 ALA2        0.0000 
     25 N         -46.3700  -13.9500   19.6200 N.am      2 ALA2        0.0000 
     26 O         -42.9900  -18.8400   21.3300 O.2       2 ALA2        0.0000 
     27 N         -45.9900  -15.4900   21.0300 N.am      2 ALA2        0.0000 
     28 N         -46.9800  -14.3800   20.9300 N.am      2 ALA2        0.0000 
     29 O         -43.6000  -19.2700   22.6300 O.2       2 ALA2        0.0000 
     30 O         -41.4400  -17.5100   20.7600 O.2       2 ALA2        0.0000 
     31 N         -44.4400  -14.1600   20.4600 N.am      2 ALA2        0.0000 
     32 N         -45.4300  -13.0400   20.3600 N.am      2 ALA2        0.0000 
     33 O         -42.0500  -17.9300   22.0600 O.2       2 ALA2        0.0000 
     34 N         -45.0400  -14.5900   21.7600 N.am      2 ALA2        0.0000 
     35 O         -42.6600  -18.3600   23.3700 O.2       2 ALA2        0.0000 
     36 O         -43.2700  -18.7900   24.6700 O.2       2 ALA2        0.0000 
     37 N         -44.8700  -18.1000   25.8700 N.am      2 ALA2        0.0000 
     38 N         -40.8900  -15.0600   20.0900 N.am      2 ALA2        0.0000 
     39 O         -40.5000  -16.6000   21.4900 O.2       2 ALA2        0.0000 
     40 O         -41.1100  -17.0300   22.8000 O.2       2 ALA2        0.0000 
     41 O         -41.7200  -17.4500   24.1000 O.2       2 ALA2        0.0000 
     42 OD1       -41.8300  -28.5800   13.5000 O.co2     3 ASP3        0.0000 
     43 OD1       -42.8300  -27.4700   13.4000 O.co2     3 ASP3        0.0000 
     44 OD1       -42.4400  -29.0100   14.8000 O.co2     3 ASP3        0.0000 
     45 OD1       -43.4400  -27.8900   14.7000 O.co2     3 ASP3        0.0000 
     46 OD1       -42.5000  -26.9900   15.4400 O.co2     3 ASP3        0.0000 
     47 OD1       -43.1100  -27.4100   16.7400 O.co2     3 ASP3        0.0000 
     48 OD1       -44.1000  -26.3000   16.6400 O.co2     3 ASP3        0.0000 
     49 OD1       -43.1600  -25.3900   17.3800 O.co2     3 ASP3        0.0000 
     50 OD1       -43.7700  -25.8200   18.6800 O.co2     3 ASP3        0.0000 
     51 OD1       -44.7700  -24.7000   18.5800 O.co2     3 ASP3        0.0000 
     52 OD1       -45.7600  -23.5800   18.4800 O.co2     3 ASP3        0.0000 
     53 OD1       -43.8200  -23.7900   19.3200 O.co2     3 ASP3        0.0000 
     54 OD1       -44.8200  -22.6800   19.2200 O.co2     3 ASP3        0.0000 
     55 OD1       -45.8200  -21.5600   19.1200 O.co2     3 ASP3        0.0000 
     56 OD1       -45.2700  -19.1100   18.4500 O.co2     3 ASP3        0.0000 
     57 OD1       -43.8800  -21.7700   19.9500 O.co2     3 ASP3        0.0000 
     58 OD1       -45.8700  -19.5400   19.7600 O.co2     3 ASP3        0.0000 
     59 OD1       -46.4800  -19.9600   21.0600 O.co2     3 ASP3        0.0000 
     60 OD1       -45.9300  -17.5200   20.3900 O.co2     3 ASP3        0.0000 
     61 OD1       -46.9300  -16.4000   20.2900 O.co2     3 ASP3        0.0000 
     62 OD1       -46.5400  -17.9400   21.6900 O.co2     3 ASP3        0.0000 
     63 OD1       -47.5300  -16.8300   21.5900 O.co2     3 ASP3        0.0000 
     64 OD1       -48.5300  -15.7100   21.4900 O.co2     3 ASP3        0.0000 
     65 OD1       -47.1500  -18.3700   23.0000 O.co2     3 ASP3        0.0000 
     66 OD1       -48.1400  -17.2500   22.9000 O.co2     3 ASP3        0.0000 
     67 OD1       -43.7700  -15.7600   18.5200 O.co2     3 ASP3        0.0000 
     68 NZ        -43.2200  -23.3700   18.0200 N.4       4 LYS4        0.0000 
     69 NZ        -44.6600  -18.6900   17.1500 N.4       4 LYS4        0.0000 
     70 NZ        -43.2700  -21.3400   18.6500 N.4       4 LYS4        0.0000 
     71 NZ        -44.2700  -20.2300   18.5500 N.4       4 LYS4        0.0000 
     72 NZ        -44.8800  -20.6500   19.8500 N.4       4 LYS4        0.0000 
     73 NZ        -44.4900  -22.2000   21.2600 N.4       4 LYS4        0.0000 
     74 NZ        -45.4800  -21.0800   21.1600 N.4       4 LYS4        0.0000 
     75 NZ        -42.7200  -18.9000   17.9800 N.4       4 LYS4        0.0000 
     76 NZ        -43.7200  -17.7800   17.8800 N.4       4 LYS4        0.0000 
     77 NZ        -42.3300  -20.4400   19.3900 N.4       4 LYS4        0.0000 
     78 NZ        -43.3300  -19.3200   19.2900 N.4       4 LYS4        0.0000 
     79 NZ        -44.5400  -20.1700   21.8900 N.4       4 LYS4        0.0000 
     80 NZ        -45.5400  -19.0600   21.7900 N.4       4 LYS4        0.0000 
     81 NZ        -46.1500  -19.4800   23.1000 N.4       4 LYS4        0.0000 
     82 NZ        -47.7500  -18.7900   24.3000 N.4       4 LYS4        0.0000 
     83 NZ        -45.2100  -18.5800   23.8300 N.4       4 LYS4        0.0000 
     84 NZ        -45.8100  -19.0000   25.1400 N.4       4 LYS4        0.0000 
     85 NZ        -46.8100  -17.8900   25.0400 N.4       4 LYS4        0.0000 
     86 CA        -40.8900  -27.6800   14.2400 C.3       5 GLY6        0.0000 
     87 CA        -41.8900  -26.5600   14.1400 C.3       5 GLY6        0.0000 
     88 CA        -46.5900  -15.9200   22.3300 C.3       5 GLY6        0.0000 
     89 CA        -47.5900  -14.8000   22.2300 C.3       5 GLY6        0.0000 
     90 CA        -44.2100  -19.6900   23.9300 C.3       5 GLY6        0.0000 
     91 CA        -46.2000  -17.4600   23.7300 C.3       5 GLY6        0.0000 
     92 CA        -47.2000  -16.3500   23.6300 C.3       5 GLY6        0.0000 
     93 CA        -43.8300  -13.7300   19.1600 C.3       5 GLY6        0.0000 
     94 CA        -44.8300  -12.6200   19.0600 C.3       5 GLY6        0.0000 
     95 CA        -43.0500  -16.8200   21.9600 C.3       5 GLY6        0.0000 
     96 CA        -44.0500  -15.7000   21.8600 C.3       5 GLY6        0.0000 
     97 CA        -45.6500  -15.0100   23.0700 C.3       5 GLY6        0.0000 
     98 CA        -45.8700  -16.9800   25.7700 C.3       5 GLY6        0.0000 
     99 CA        -41.8900  -13.9400   19.9900 C.3       5 GLY6        0.0000 
    100 CA        -41.5000  -15.4800   21.3900 C.3       5 GLY6        0.0000 
    101 CA        -42.5000  -14.3700   21.2900 C.3       5 GLY6        0.0000 
    102 CA        -43.4900  -13.2500   21.1900 C.3       5 GLY6        0.0000 
    103 CA        -42.1100  -15.9100   22.7000 C.3       5 GLY6        0.0000 
    104 CA        -42.7200  -16.3400   24.0000 C.3       5 GLY6        0.0000 
    105 CA        -42.3300  -17.8800   25.4000 C.3       5 GLY6        0.0000 
    106 DU        -42.8900  -25.4400   14.0400 H         6 CUB7        0.0000 
    107 DU        -44.3200  -18.2100   19.1900 H         6 CUB7        0.0000 
    108 DU        -45.3200  -17.0900   19.0900 H         6 CUB7        0.0000 
    109 DU        -44.9300  -18.6300   20.4900 H         6 CUB7        0.0000 
    110 DU        -42.7800  -16.8700   18.6200 H         6 CUB7        0.0000 
    111 DU        -43.3800  -17.3000   19.9200 H         6 CUB7        0.0000 
    112 DU        -44.3800  -16.1800   19.8200 H         6 CUB7        0.0000 
    113 DU        -45.3800  -15.0700   19.7200 H         6 CUB7        0.0000 
    114 DU        -43.9900  -17.7200   21.2300 H         6 CUB7        0.0000 
    115 DU        -44.9900  -16.6100   21.1300 H         6 CUB7        0.0000 
    116 DU        -44.6000  -18.1500   22.5300 H         6 CUB7        0.0000 
    117 DU        -45.6000  -17.0300   22.4300 H         6 CUB7        0.0000 
    118 DU        -41.8300  -15.9700   19.3600 H         6 CUB7        0.0000 
    119 DU        -42.8300  -14.8500   19.2600 H         6 CUB7        0.0000 
    120 DU        -42.4400  -16.3900   20.6600 H         6 CUB7        0.0000 
    121 DU        -43.4400  -15.2800   20.5600 H         6 CUB7        0.0000 
@<TRIPOS>BOND
@<TRIPOS>SUBSTRUCTURE
     1 SER1        1 GROUP   
     2 ALA2       13 GROUP   
     3 ASP3       42 GROUP   
     4 LYS4       68 GROUP   
     5 GLY6       86 GROUP   
     6 CUB7      106 GROUP   
@<TRIPOS>SET

