#    Name: 6ci7_5_ACP_CAVITY_N1_4
#    Modification time : Fri May 22 19:34:06 2020

@<TRIPOS>MOLECULE
6ci7_5_ACP_CAVITY_N1_4
   65     0     6     0     0
SMALL
NO_CHARGES


@<TRIPOS>ATOM
      1 OG        -37.0000   27.4900   51.3600 O.3       1 SER1        0.0000 
      2 OG        -36.0600   28.4000   52.0900 O.3       1 SER1        0.0000 
      3 OG        -37.0600   29.5200   51.9900 O.3       1 SER1        0.0000 
      4 O         -35.0600   27.2900   52.1900 O.2       2 ALA2        0.0000 
      5 N         -36.6700   27.9700   53.4000 N.am      2 ALA2        0.0000 
      6 N         -37.6700   29.0900   53.3000 N.am      2 ALA2        0.0000 
      7 O         -34.5100   29.7300   51.5300 O.2       2 ALA2        0.0000 
      8 O         -35.1200   29.3100   52.8300 O.2       2 ALA2        0.0000 
      9 O         -34.7300   27.7700   54.2300 O.2       2 ALA2        0.0000 
     10 N         -35.3400   27.3400   55.5400 N.am      2 ALA2        0.0000 
     11 O         -37.3300   29.5700   55.3400 O.2       2 ALA2        0.0000 
     12 O         -34.7400   35.2700   48.0500 O.2       2 ALA2        0.0000 
     13 O         -35.7400   36.3800   47.9500 O.2       2 ALA2        0.0000 
     14 O         -35.3500   34.8400   49.3500 O.2       2 ALA2        0.0000 
     15 O         -36.3400   35.9600   49.2500 O.2       2 ALA2        0.0000 
     16 O         -37.3400   37.0700   49.1600 O.2       2 ALA2        0.0000 
     17 OD1       -36.6100   25.9500   52.7600 O.co2     3 ASP3        0.0000 
     18 OD1       -37.2200   25.5300   54.0600 O.co2     3 ASP3        0.0000 
     19 OD1       -35.4500   28.8300   50.7900 O.co2     3 ASP3        0.0000 
     20 OD1       -36.4500   29.9400   50.6900 O.co2     3 ASP3        0.0000 
     21 OD1       -35.6700   26.8600   53.5000 O.co2     3 ASP3        0.0000 
     22 OD1       -36.2800   26.4300   54.8000 O.co2     3 ASP3        0.0000 
     23 OD1       -34.2900   31.7000   48.8200 O.co2     3 ASP3        0.0000 
     24 OD1       -35.2900   32.8200   48.7200 O.co2     3 ASP3        0.0000 
     25 OD1       -33.9000   30.1600   50.2200 O.co2     3 ASP3        0.0000 
     26 OD1       -34.9000   31.2800   50.1200 O.co2     3 ASP3        0.0000 
     27 OD1       -32.3600   31.4900   49.6500 O.co2     3 ASP3        0.0000 
     28 OD1       -32.9600   31.0700   50.9600 O.co2     3 ASP3        0.0000 
     29 OD1       -33.9600   32.1800   50.8600 O.co2     3 ASP3        0.0000 
     30 OD1       -32.8000   35.0600   48.8900 O.co2     3 ASP3        0.0000 
     31 OD1       -33.8000   36.1800   48.7900 O.co2     3 ASP3        0.0000 
     32 OD1       -32.4100   33.5200   50.2900 O.co2     3 ASP3        0.0000 
     33 OD1       -33.4100   34.6300   50.1900 O.co2     3 ASP3        0.0000 
     34 OD1       -34.0200   34.2100   51.4900 O.co2     3 ASP3        0.0000 
     35 OD1       -35.0100   35.3200   51.3900 O.co2     3 ASP3        0.0000 
     36 OD1       -36.0100   36.4400   51.2900 O.co2     3 ASP3        0.0000 
     37 OD1       -32.2500   37.5100   48.2200 O.co2     3 ASP3        0.0000 
     38 OD1       -32.8600   37.0800   49.5200 O.co2     3 ASP3        0.0000 
     39 OD1       -32.4700   35.5400   50.9300 O.co2     3 ASP3        0.0000 
     40 OD1       -33.4600   36.6600   50.8300 O.co2     3 ASP3        0.0000 
     41 OD1       -34.4600   37.7700   50.7300 O.co2     3 ASP3        0.0000 
     42 OD1       -31.9100   37.9900   50.2600 O.co2     3 ASP3        0.0000 
     43 NZ        -35.9000   32.3900   50.0200 N.4       4 LYS4        0.0000 
     44 NZ        -35.5100   30.8500   51.4300 N.4       4 LYS4        0.0000 
     45 NZ        -36.1200   30.4200   52.7300 N.4       4 LYS4        0.0000 
     46 NZ        -35.7300   28.8800   54.1300 N.4       4 LYS4        0.0000 
     47 NZ        -36.3400   28.4600   55.4400 N.4       4 LYS4        0.0000 
     48 NZ        -34.1300   35.7000   46.7500 N.4       4 LYS4        0.0000 
     49 NZ        -33.3500   32.6100   49.5500 N.4       4 LYS4        0.0000 
     50 NZ        -34.3500   33.7300   49.4500 N.4       4 LYS4        0.0000 
     51 NZ        -34.9600   33.3000   50.7600 N.4       4 LYS4        0.0000 
     52 NZ        -35.9500   34.4200   50.6600 N.4       4 LYS4        0.0000 
     53 NZ        -36.9500   35.5300   50.5600 N.4       4 LYS4        0.0000 
     54 NZ        -34.7900   29.7900   54.8700 N.4       4 LYS4        0.0000 
     55 NZ        -33.1900   36.6000   47.4800 N.4       4 LYS4        0.0000 
     56 CA        -37.6100   27.0700   52.6600 C.3       5 GLY6        0.0000 
     57 CA        -38.2200   26.6400   53.9600 C.3       5 GLY6        0.0000 
     58 CA        -37.2800   27.5500   54.7000 C.3       5 GLY6        0.0000 
     59 CA        -36.8900   26.0100   56.1000 C.3       5 GLY6        0.0000 
     60 CA        -36.7300   30.0000   54.0300 C.3       5 GLY6        0.0000 
     61 DU        -34.1900   37.7200   47.3800 H         6 CUB7        0.0000 
     62 DU        -34.7900   37.2900   48.6900 H         6 CUB7        0.0000 
     63 DU        -34.4100   35.7500   50.0900 H         6 CUB7        0.0000 
     64 DU        -35.4000   36.8700   49.9900 H         6 CUB7        0.0000 
     65 DU        -33.8500   38.2000   49.4200 H         6 CUB7        0.0000 
@<TRIPOS>BOND
@<TRIPOS>SUBSTRUCTURE
     1 SER1        1 GROUP   
     2 ALA2        4 GROUP   
     3 ASP3       17 GROUP   
     4 LYS4       43 GROUP   
     5 GLY6       56 GROUP   
     6 CUB7       61 GROUP   
@<TRIPOS>SET

