#    Name: 6ci7_3_ACP
#    Modification time : Fri May 22 19:33:55 2020

@<TRIPOS>MOLECULE
6ci7_3_ACP
   31    33     1     0     1
SMALL
NO_CHARGES


@<TRIPOS>ATOM
      1 PG         -4.7460   62.1850   21.4450 P.3       1 ACP500      0.0000 
      2 O1G        -3.9450   60.8040   21.2150 O.co2     1 ACP500      0.0000 
      3 O2G        -6.1940   61.9080   21.5880 O.co2     1 ACP500      0.0000 
      4 O3G        -4.2220   62.8730   22.8140 O.co2     1 ACP500      0.0000 
      5 PB         -3.8680   64.8410   20.4740 P.3       1 ACP500      0.0000 
      6 O1B        -2.6960   64.5990   21.3460 O.co2     1 ACP500      0.0000 
      7 O2B        -5.0240   65.5370   21.3620 O.co2     1 ACP500      0.0000 
      8 C3B        -4.5120   63.2250   19.9650 C.3       1 ACP500      0.0000 
      9 PA         -2.0910   66.3290   18.6270 P.3       1 ACP500      0.0000 
     10 O1A        -2.3620   66.9330   17.2750 O.co2     1 ACP500      0.0000 
     11 O2A        -1.0780   65.2110   18.6960 O.co2     1 ACP500      0.0000 
     12 O3A        -3.5160   65.8410   19.2320 O.3       1 ACP500      0.0000 
     13 O5'        -1.5920   67.5940   19.4820 O.3       1 ACP500      0.0000 
     14 C5'        -1.1430   67.5640   20.8330 C.3       1 ACP500      0.0000 
     15 C4'        -1.2650   68.9790   21.4100 C.3       1 ACP500      0.0000 
     16 O4'        -0.4700   69.8980   20.6500 O.3       1 ACP500      0.0000 
     17 C3'        -2.6830   69.5320   21.3730 C.3       1 ACP500      0.0000 
     18 O3'        -2.9070   70.3140   22.5510 O.3       1 ACP500      0.0000 
     19 C2'        -2.6810   70.4110   20.1380 C.3       1 ACP500      0.0000 
     20 O2'        -3.6800   71.4300   20.1710 O.3       1 ACP500      0.0000 
     21 C1'        -1.2560   70.9580   20.1100 C.3       1 ACP500      0.0000 
     22 N9         -0.7780   71.2740   18.7400 N.pl3     1 ACP500      0.0000 
     23 C8         -0.5560   70.3650   17.7620 C.2       1 ACP500      0.0000 
     24 N7         -0.1370   70.9690   16.6170 N.2       1 ACP500      0.0000 
     25 C5         -0.0850   72.3000   16.8630 C.ar      1 ACP500      0.0000 
     26 C6          0.2890   73.5130   16.0910 C.ar      1 ACP500      0.0000 
     27 N6          0.6920   73.3910   14.8060 N.pl3     1 ACP500      0.0000 
     28 N1          0.2030   74.7250   16.6870 N.ar      1 ACP500      0.0000 
     29 C2         -0.1880   74.8370   17.9710 C.ar      1 ACP500      0.0000 
     30 N3         -0.5330   73.7690   18.7360 N.ar      1 ACP500      0.0000 
     31 C4         -0.4990   72.4970   18.2580 C.ar      1 ACP500      0.0000 
@<TRIPOS>BOND
     1    1    2 ar   
     2    1    3 ar   
     3    1    4 ar   
     4    1    8 1    
     5    5    6 ar   
     6    5    7 ar   
     7    5    8 1    
     8    5   12 1    
     9    9   10 ar   
    10    9   11 ar   
    11    9   12 1    
    12    9   13 1    
    13   13   14 1    
    14   14   15 1    
    15   15   16 1    
    16   15   17 1    
    17   16   21 1    
    18   17   18 1    
    19   17   19 1    
    20   19   20 1    
    21   19   21 1    
    22   21   22 1    
    23   22   23 1    
    24   22   31 1    
    25   23   24 2    
    26   24   25 1    
    27   25   26 ar   
    28   25   31 ar   
    29   26   27 1    
    30   26   28 ar   
    31   28   29 ar   
    32   29   30 ar   
    33   30   31 ar   
@<TRIPOS>SUBSTRUCTURE
     1 ACP500      1 GROUP   
@<TRIPOS>SET
ATOM$ORANGE STATIC     ATOMS   COLORGROUP SYSTEM 
22 8 8 14 14 15 15 17 17 19 19 21 21 23 23 25 25 26 \
26 29 29 31 31 

