#    Name: 6ci7_6_ACP
#    Modification time : Fri May 22 19:34:09 2020

@<TRIPOS>MOLECULE
6ci7_6_ACP
   31    33     1     0     1
SMALL
NO_CHARGES


@<TRIPOS>ATOM
      1 PG        -45.7160  -20.9260   19.0850 P.3       1 ACP500      0.0000 
      2 O1G       -46.3570  -20.6340   17.6340 O.co2     1 ACP500      0.0000 
      3 O2G       -44.2220  -20.3280   19.0540 O.co2     1 ACP500      0.0000 
      4 O3G       -46.5080  -20.2380   20.1300 O.co2     1 ACP500      0.0000 
      5 PB        -44.9230  -23.5940   18.1620 P.3       1 ACP500      0.0000 
      6 O1B       -45.9310  -23.4380   16.9080 O.co2     1 ACP500      0.0000 
      7 O2B       -43.6790  -22.8060   17.9680 O.co2     1 ACP500      0.0000 
      8 C3B       -45.7340  -22.7140   19.5190 C.3       1 ACP500      0.0000 
      9 PA        -43.1200  -25.8730   17.8160 P.3       1 ACP500      0.0000 
     10 O1A       -43.3060  -27.3590   17.8700 O.co2     1 ACP500      0.0000 
     11 O2A       -41.9250  -25.3530   18.5850 O.co2     1 ACP500      0.0000 
     12 O3A       -44.5090  -25.1710   18.3240 O.3       1 ACP500      0.0000 
     13 O5'       -42.8760  -25.5890   16.2490 O.3       1 ACP500      0.0000 
     14 C5'       -42.1750  -24.5070   15.6210 C.3       1 ACP500      0.0000 
     15 C4'       -42.3080  -24.6460   14.0920 C.3       1 ACP500      0.0000 
     16 O4'       -41.5370  -25.7710   13.6430 O.3       1 ACP500      0.0000 
     17 C3'       -43.7260  -24.9360   13.6040 C.3       1 ACP500      0.0000 
     18 O3'       -43.8800  -24.3180   12.3290 O.3       1 ACP500      0.0000 
     19 C2'       -43.7620  -26.4520   13.5110 C.3       1 ACP500      0.0000 
     20 O2'       -44.8070  -27.0170   12.7280 O.3       1 ACP500      0.0000 
     21 C1'       -42.3650  -26.7450   12.9900 C.3       1 ACP500      0.0000 
     22 N9        -41.9370  -28.1090   13.3490 N.pl3     1 ACP500      0.0000 
     23 C8        -41.7730  -28.5770   14.6080 C.2       1 ACP500      0.0000 
     24 N7        -41.3770  -29.8790   14.5890 N.2       1 ACP500      0.0000 
     25 C5        -41.2840  -30.2540   13.3000 C.ar      1 ACP500      0.0000 
     26 C6        -40.9250  -31.5010   12.5960 C.ar      1 ACP500      0.0000 
     27 N6        -40.5740  -32.6130   13.2930 N.pl3     1 ACP500      0.0000 
     28 N1        -40.9500  -31.4800   11.2420 N.ar      1 ACP500      0.0000 
     29 C2        -41.2990  -30.3680   10.5420 C.ar      1 ACP500      0.0000 
     30 N3        -41.6500  -29.1990   11.1170 N.ar      1 ACP500      0.0000 
     31 C4        -41.6520  -29.0850   12.4780 C.ar      1 ACP500      0.0000 
@<TRIPOS>BOND
     1    1    2 ar   
     2    1    3 ar   
     3    1    4 ar   
     4    1    8 1    
     5    5    6 ar   
     6    5    7 ar   
     7    5    8 1    
     8    5   12 1    
     9    9   10 ar   
    10    9   11 ar   
    11    9   12 1    
    12    9   13 1    
    13   13   14 1    
    14   14   15 1    
    15   15   16 1    
    16   15   17 1    
    17   16   21 1    
    18   17   18 1    
    19   17   19 1    
    20   19   20 1    
    21   19   21 1    
    22   21   22 1    
    23   22   23 1    
    24   22   31 1    
    25   23   24 2    
    26   24   25 1    
    27   25   26 ar   
    28   25   31 ar   
    29   26   27 1    
    30   26   28 ar   
    31   28   29 ar   
    32   29   30 ar   
    33   30   31 ar   
@<TRIPOS>SUBSTRUCTURE
     1 ACP500      1 GROUP   
@<TRIPOS>SET
ATOM$ORANGE STATIC     ATOMS   COLORGROUP SYSTEM 
22 8 8 14 14 15 15 17 17 19 19 21 21 23 23 25 25 26 \
26 29 29 31 31 

