#    Name: 6ci7_5_ACP
#    Modification time : Fri May 22 19:34:05 2020

@<TRIPOS>MOLECULE
6ci7_5_ACP
   31    33     1     0     1
SMALL
NO_CHARGES


@<TRIPOS>ATOM
      1 PG        -33.4770   33.7090   50.1610 P.3       1 ACP500      0.0000 
      2 O1G       -32.6890   34.5080   49.1900 O.co2     1 ACP500      0.0000 
      3 O2G       -35.0110   34.2020   50.1960 O.co2     1 ACP500      0.0000 
      4 O3G       -32.8850   33.9340   51.6470 O.co2     1 ACP500      0.0000 
      5 PB        -34.0930   30.9150   50.9440 P.3       1 ACP500      0.0000 
      6 O1B       -35.3150   31.6400   51.3630 O.co2     1 ACP500      0.0000 
      7 O2B       -32.9800   30.8350   52.1130 O.co2     1 ACP500      0.0000 
      8 C3B       -33.3810   31.9540   49.6410 C.3       1 ACP500      0.0000 
      9 PA        -35.7380   28.4780   50.8980 P.3       1 ACP500      0.0000 
     10 O1A       -37.0210   28.8460   50.1900 O.co2     1 ACP500      0.0000 
     11 O2A       -35.3070   27.0440   50.6600 O.co2     1 ACP500      0.0000 
     12 O3A       -34.4840   29.4020   50.4810 O.3       1 ACP500      0.0000 
     13 O5'       -35.9400   28.6080   52.4830 O.3       1 ACP500      0.0000 
     14 C5'       -36.8770   29.4040   53.2280 C.3       1 ACP500      0.0000 
     15 C4'       -36.6690   29.0520   54.7090 C.3       1 ACP500      0.0000 
     16 O4'       -37.3610   27.8350   54.9770 O.3       1 ACP500      0.0000 
     17 C3'       -35.2230   28.7520   55.0950 C.3       1 ACP500      0.0000 
     18 O3'       -35.0160   29.1190   56.4680 O.3       1 ACP500      0.0000 
     19 C2'       -35.1000   27.2490   54.9120 C.3       1 ACP500      0.0000 
     20 O2'       -34.1050   26.6470   55.7060 O.3       1 ACP500      0.0000 
     21 C1'       -36.4540   26.8100   55.4220 C.3       1 ACP500      0.0000 
     22 N9        -36.8500   25.5060   54.8720 N.pl3     1 ACP500      0.0000 
     23 C8        -37.0460   25.2700   53.5540 C.2       1 ACP500      0.0000 
     24 N7        -37.4020   23.9850   53.3240 N.2       1 ACP500      0.0000 
     25 C5        -37.4380   23.3820   54.5340 C.ar      1 ACP500      0.0000 
     26 C6        -37.7600   22.0180   55.0020 C.ar      1 ACP500      0.0000 
     27 N6        -38.1010   21.0720   54.0950 N.pl3     1 ACP500      0.0000 
     28 N1        -37.6990   21.7690   56.3270 N.ar      1 ACP500      0.0000 
     29 C2        -37.3580   22.7280   57.2230 C.ar      1 ACP500      0.0000 
     30 N3        -37.0510   23.9990   56.8730 N.ar      1 ACP500      0.0000 
     31 C4        -37.0760   24.3820   55.5600 C.ar      1 ACP500      0.0000 
@<TRIPOS>BOND
     1    1    2 ar   
     2    1    3 ar   
     3    1    4 ar   
     4    1    8 1    
     5    5    6 ar   
     6    5    7 ar   
     7    5    8 1    
     8    5   12 1    
     9    9   10 ar   
    10    9   11 ar   
    11    9   12 1    
    12    9   13 1    
    13   13   14 1    
    14   14   15 1    
    15   15   16 1    
    16   15   17 1    
    17   16   21 1    
    18   17   18 1    
    19   17   19 1    
    20   19   20 1    
    21   19   21 1    
    22   21   22 1    
    23   22   23 1    
    24   22   31 1    
    25   23   24 2    
    26   24   25 1    
    27   25   26 ar   
    28   25   31 ar   
    29   26   27 1    
    30   26   28 ar   
    31   28   29 ar   
    32   29   30 ar   
    33   30   31 ar   
@<TRIPOS>SUBSTRUCTURE
     1 ACP500      1 GROUP   
@<TRIPOS>SET
ATOM$ORANGE STATIC     ATOMS   COLORGROUP SYSTEM 
22 8 8 14 14 15 15 17 17 19 19 21 21 23 23 25 25 26 \
26 29 29 31 31 

