#    Name: 6ci7_4_ACP
#    Modification time : Fri May 22 19:34:00 2020

@<TRIPOS>MOLECULE
6ci7_4_ACP
   31    33     1     0     1
SMALL
NO_CHARGES


@<TRIPOS>ATOM
      1 PG        -75.0850   11.9400   42.9970 P.3       1 ACP500      0.0000 
      2 O1G       -76.0170   11.4780   41.7610 O.co2     1 ACP500      0.0000 
      3 O2G       -74.2250   10.8140   43.4370 O.co2     1 ACP500      0.0000 
      4 O3G       -74.1360   13.1560   42.5190 O.co2     1 ACP500      0.0000 
      5 PB        -75.1980   13.6420   45.4620 P.3       1 ACP500      0.0000 
      6 O1B       -75.2210   14.9750   44.8230 O.co2     1 ACP500      0.0000 
      7 O2B       -73.6620   13.1510   45.5090 O.co2     1 ACP500      0.0000 
      8 C3B       -76.1110   12.4640   44.4100 C.3       1 ACP500      0.0000 
      9 PA        -76.8510   14.6720   47.7260 P.3       1 ACP500      0.0000 
     10 O1A       -78.1710   13.9600   47.8260 O.co2     1 ACP500      0.0000 
     11 O2A       -76.2040   15.0090   49.0450 O.co2     1 ACP500      0.0000 
     12 O3A       -75.7670   13.7060   46.9880 O.3       1 ACP500      0.0000 
     13 O5'       -77.0470   16.0440   46.9270 O.3       1 ACP500      0.0000 
     14 C5'       -77.9790   16.3250   45.8750 C.3       1 ACP500      0.0000 
     15 C4'       -77.6970   17.7420   45.3450 C.3       1 ACP500      0.0000 
     16 O4'       -78.4190   18.6610   46.1630 O.3       1 ACP500      0.0000 
     17 C3'       -76.2300   18.2200   45.4200 C.3       1 ACP500      0.0000 
     18 O3'       -75.9630   19.2310   44.4380 O.3       1 ACP500      0.0000 
     19 C2'       -76.1360   18.8740   46.7790 C.3       1 ACP500      0.0000 
     20 O2'       -75.0790   19.8240   46.8750 O.3       1 ACP500      0.0000 
     21 C1'       -77.5270   19.4940   46.9250 C.3       1 ACP500      0.0000 
     22 N9        -77.9290   19.5740   48.3450 N.pl3     1 ACP500      0.0000 
     23 C8        -78.1160   18.5310   49.1800 C.2       1 ACP500      0.0000 
     24 N7        -78.4750   18.9460   50.4280 N.2       1 ACP500      0.0000 
     25 C5        -78.5240   20.2870   50.3820 C.ar      1 ACP500      0.0000 
     26 C6        -78.8320   21.3560   51.3510 C.ar      1 ACP500      0.0000 
     27 N6        -79.1630   21.0380   52.6360 N.pl3     1 ACP500      0.0000 
     28 N1        -78.7730   22.6350   50.9160 N.ar      1 ACP500      0.0000 
     29 C2        -78.4470   22.9470   49.6480 C.ar      1 ACP500      0.0000 
     30 N3        -78.1640   22.0140   48.7160 N.ar      1 ACP500      0.0000 
     31 C4        -78.1770   20.6960   49.0170 C.ar      1 ACP500      0.0000 
@<TRIPOS>BOND
     1    1    2 ar   
     2    1    3 ar   
     3    1    4 ar   
     4    1    8 1    
     5    5    6 ar   
     6    5    7 ar   
     7    5    8 1    
     8    5   12 1    
     9    9   10 ar   
    10    9   11 ar   
    11    9   12 1    
    12    9   13 1    
    13   13   14 1    
    14   14   15 1    
    15   15   16 1    
    16   15   17 1    
    17   16   21 1    
    18   17   18 1    
    19   17   19 1    
    20   19   20 1    
    21   19   21 1    
    22   21   22 1    
    23   22   23 1    
    24   22   31 1    
    25   23   24 2    
    26   24   25 1    
    27   25   26 ar   
    28   25   31 ar   
    29   26   27 1    
    30   26   28 ar   
    31   28   29 ar   
    32   29   30 ar   
    33   30   31 ar   
@<TRIPOS>SUBSTRUCTURE
     1 ACP500      1 GROUP   
@<TRIPOS>SET
ATOM$ORANGE STATIC     ATOMS   COLORGROUP SYSTEM 
22 8 8 14 14 15 15 17 17 19 19 21 21 23 23 25 25 26 \
26 29 29 31 31 

