#    Name: 6ci7_4_ACP_CAVITY_N1_6
#    Modification time : Fri May 22 19:34:01 2020

@<TRIPOS>MOLECULE
6ci7_4_ACP_CAVITY_N1_6
   69     0     6     0     0
SMALL
NO_CHARGES


@<TRIPOS>ATOM
      1 OG        -78.5300    9.3700   38.1500 O.3       1 SER1        0.0000 
      2 OG        -77.1500    6.7200   39.6500 O.3       1 SER1        0.0000 
      3 OG        -78.1400    7.8300   39.5500 O.3       1 SER1        0.0000 
      4 OG        -74.9900    8.4700   37.7800 O.3       1 SER1        0.0000 
      5 OG        -75.9900    9.5900   37.6800 O.3       1 SER1        0.0000 
      6 OG        -75.6000    8.0500   39.0900 O.3       1 SER1        0.0000 
      7 OG        -76.5900    9.1600   38.9900 O.3       1 SER1        0.0000 
      8 N         -80.1400   10.0600   39.3600 N.am      2 ALA2        0.0000 
      9 N         -74.6000    6.9300   39.1900 N.am      2 ALA2        0.0000 
     10 O         -76.8100    7.2000   41.6900 O.2       2 ALA2        0.0000 
     11 O         -77.8100    8.3100   41.5900 O.2       2 ALA2        0.0000 
     12 O         -78.8100    9.4300   41.4900 O.2       2 ALA2        0.0000 
     13 O         -79.8000   10.5400   41.3900 O.2       2 ALA2        0.0000 
     14 O         -77.4200    6.7700   43.0000 O.2       2 ALA2        0.0000 
     15 O         -75.8700    8.1000   42.4300 O.2       2 ALA2        0.0000 
     16 O         -76.8700    9.2200   42.3300 O.2       2 ALA2        0.0000 
     17 O         -77.8700   10.3400   42.2300 O.2       2 ALA2        0.0000 
     18 O         -75.9300   10.1300   43.0600 O.2       2 ALA2        0.0000 
     19 O         -76.5300    9.7000   44.3700 O.2       2 ALA2        0.0000 
     20 N         -77.5300   10.8200   44.2700 N.am      2 ALA2        0.0000 
     21 OD1       -76.3800   11.1300   36.2800 O.co2     3 ASP3        0.0000 
     22 OD1       -76.9800   10.7100   37.5800 O.co2     3 ASP3        0.0000 
     23 OD1       -77.5900   10.2800   38.8900 O.co2     3 ASP3        0.0000 
     24 OD1       -76.6500   11.1900   39.6200 O.co2     3 ASP3        0.0000 
     25 OD1       -71.1100    8.0600   39.4500 O.co2     3 ASP3        0.0000 
     26 OD1       -72.1100    9.1700   39.3500 O.co2     3 ASP3        0.0000 
     27 OD1       -71.7200    7.6300   40.7600 O.co2     3 ASP3        0.0000 
     28 OD1       -72.7200    8.7500   40.6600 O.co2     3 ASP3        0.0000 
     29 OD1       -73.7100    9.8600   40.5600 O.co2     3 ASP3        0.0000 
     30 OD1       -73.3300    8.3200   41.9600 O.co2     3 ASP3        0.0000 
     31 OD1       -74.3200    9.4400   41.8600 O.co2     3 ASP3        0.0000 
     32 OD1       -74.3800   11.4600   42.5000 O.co2     3 ASP3        0.0000 
     33 OD1       -75.3800   12.5800   42.4000 O.co2     3 ASP3        0.0000 
     34 OD1       -76.5900   11.7200   45.0000 O.co2     3 ASP3        0.0000 
     35 NZ        -77.2600   10.7600   40.9300 N.4       4 LYS4        0.0000 
     36 NZ        -78.8600   11.4500   42.1300 N.4       4 LYS4        0.0000 
     37 NZ        -75.7100   12.0900   40.3600 N.4       4 LYS4        0.0000 
     38 NZ        -76.3200   11.6700   41.6600 N.4       4 LYS4        0.0000 
     39 NZ        -74.9300    9.0100   43.1600 N.4       4 LYS4        0.0000 
     40 NZ        -76.9200   11.2400   42.9700 N.4       4 LYS4        0.0000 
     41 NZ        -75.9800   12.1500   43.7000 N.4       4 LYS4        0.0000 
     42 CA        -79.1400    8.9500   39.4500 C.3       5 GLY6        0.0000 
     43 CA        -77.7500    6.2900   40.9600 C.3       5 GLY6        0.0000 
     44 CA        -78.7500    7.4100   40.8600 C.3       5 GLY6        0.0000 
     45 CA        -79.7500    8.5200   40.7600 C.3       5 GLY6        0.0000 
     46 CA        -75.3800   10.0200   36.3800 C.3       5 GLY6        0.0000 
     47 CA        -76.4200    5.6500   43.1000 C.3       5 GLY6        0.0000 
     48 CA        -73.4400    9.8100   37.2200 C.3       5 GLY6        0.0000 
     49 CA        -74.4400   10.9200   37.1200 C.3       5 GLY6        0.0000 
     50 CA        -74.0500    9.3800   38.5200 C.3       5 GLY6        0.0000 
     51 CA        -75.0500   10.5000   38.4200 C.3       5 GLY6        0.0000 
     52 CA        -72.5000   10.7100   37.9500 C.3       5 GLY6        0.0000 
     53 CA        -73.1100   10.2900   39.2500 C.3       5 GLY6        0.0000 
     54 CA        -74.7100   10.9800   40.4600 C.3       5 GLY6        0.0000 
     55 DU        -75.2100    6.5100   40.4900 H         6 CUB7        0.0000 
     56 DU        -76.2100    7.6200   40.3900 H         6 CUB7        0.0000 
     57 DU        -77.2000    8.7400   40.2900 H         6 CUB7        0.0000 
     58 DU        -78.2000    9.8500   40.1900 H         6 CUB7        0.0000 
     59 DU        -75.8200    6.0800   41.7900 H         6 CUB7        0.0000 
     60 DU        -73.0500    8.2700   38.6200 H         6 CUB7        0.0000 
     61 DU        -72.6600    6.7200   40.0200 H         6 CUB7        0.0000 
     62 DU        -73.6600    7.8400   39.9200 H         6 CUB7        0.0000 
     63 DU        -74.6600    8.9600   39.8200 H         6 CUB7        0.0000 
     64 DU        -75.6500   10.0700   39.7200 H         6 CUB7        0.0000 
     65 DU        -73.2700    6.3000   41.3300 H         6 CUB7        0.0000 
     66 DU        -74.2700    7.4100   41.2300 H         6 CUB7        0.0000 
     67 DU        -75.2600    8.5300   41.1300 H         6 CUB7        0.0000 
     68 DU        -76.2600    9.6500   41.0300 H         6 CUB7        0.0000 
     69 DU        -75.3200   10.5500   41.7600 H         6 CUB7        0.0000 
@<TRIPOS>BOND
@<TRIPOS>SUBSTRUCTURE
     1 SER1        1 GROUP   
     2 ALA2        8 GROUP   
     3 ASP3       21 GROUP   
     4 LYS4       35 GROUP   
     5 GLY6       42 GROUP   
     6 CUB7       55 GROUP   
@<TRIPOS>SET

