#    Name: 6ci7_6_ACP_CAVITY_N1_4
#    Modification time : Fri May 22 19:34:10 2020

@<TRIPOS>MOLECULE
6ci7_6_ACP_CAVITY_N1_4
   65     0     6     0     0
SMALL
NO_CHARGES


@<TRIPOS>ATOM
      1 OG        -41.5600  -26.0800   16.1800 O.3       1 SER1        0.0000 
      2 OG        -42.5500  -24.9600   16.0800 O.3       1 SER1        0.0000 
      3 OG        -42.1600  -26.5100   17.4800 O.3       1 SER1        0.0000 
      4 OG        -44.7100  -16.6600   17.7800 O.3       1 SER1        0.0000 
      5 N         -43.8300  -26.3500   13.3000 N.am      2 ALA2        0.0000 
      6 N         -44.4400  -26.7800   14.6100 N.am      2 ALA2        0.0000 
      7 O         -41.5000  -28.1000   15.5400 O.2       2 ALA2        0.0000 
      8 O         -43.5000  -25.8700   15.3400 O.2       2 ALA2        0.0000 
      9 O         -42.1100  -28.5300   16.8400 O.2       2 ALA2        0.0000 
     10 N         -40.9500  -25.6500   14.8700 N.am      2 ALA2        0.0000 
     11 N         -41.9500  -24.5400   14.7700 N.am      2 ALA2        0.0000 
     12 O         -44.1600  -24.2700   17.2800 O.2       2 ALA2        0.0000 
     13 O         -42.9400  -20.8600   20.6900 O.2       2 ALA2        0.0000 
     14 O         -43.9400  -19.7500   20.5900 O.2       2 ALA2        0.0000 
     15 O         -43.5500  -21.2900   21.9900 O.2       2 ALA2        0.0000 
     16 O         -42.3900  -18.4100   20.0200 O.2       2 ALA2        0.0000 
     17 O         -42.9900  -18.8400   21.3300 O.2       2 ALA2        0.0000 
     18 O         -43.6000  -19.2700   22.6300 O.2       2 ALA2        0.0000 
     19 OD1       -41.8300  -28.5800   13.5000 O.co2     3 ASP3        0.0000 
     20 OD1       -42.8300  -27.4700   13.4000 O.co2     3 ASP3        0.0000 
     21 OD1       -42.4400  -29.0100   14.8000 O.co2     3 ASP3        0.0000 
     22 OD1       -43.4400  -27.8900   14.7000 O.co2     3 ASP3        0.0000 
     23 OD1       -42.5000  -26.9900   15.4400 O.co2     3 ASP3        0.0000 
     24 OD1       -43.1100  -27.4100   16.7400 O.co2     3 ASP3        0.0000 
     25 OD1       -44.1000  -26.3000   16.6400 O.co2     3 ASP3        0.0000 
     26 OD1       -43.1600  -25.3900   17.3800 O.co2     3 ASP3        0.0000 
     27 OD1       -43.7700  -25.8200   18.6800 O.co2     3 ASP3        0.0000 
     28 OD1       -44.7700  -24.7000   18.5800 O.co2     3 ASP3        0.0000 
     29 OD1       -45.7600  -23.5800   18.4800 O.co2     3 ASP3        0.0000 
     30 OD1       -43.8200  -23.7900   19.3200 O.co2     3 ASP3        0.0000 
     31 OD1       -44.8200  -22.6800   19.2200 O.co2     3 ASP3        0.0000 
     32 OD1       -45.8200  -21.5600   19.1200 O.co2     3 ASP3        0.0000 
     33 OD1       -45.2700  -19.1100   18.4500 O.co2     3 ASP3        0.0000 
     34 OD1       -43.8800  -21.7700   19.9500 O.co2     3 ASP3        0.0000 
     35 OD1       -45.8700  -19.5400   19.7600 O.co2     3 ASP3        0.0000 
     36 OD1       -46.4800  -19.9600   21.0600 O.co2     3 ASP3        0.0000 
     37 OD1       -45.9300  -17.5200   20.3900 O.co2     3 ASP3        0.0000 
     38 OD1       -46.9300  -16.4000   20.2900 O.co2     3 ASP3        0.0000 
     39 OD1       -46.5400  -17.9400   21.6900 O.co2     3 ASP3        0.0000 
     40 OD1       -47.5300  -16.8300   21.5900 O.co2     3 ASP3        0.0000 
     41 OD1       -47.1500  -18.3700   23.0000 O.co2     3 ASP3        0.0000 
     42 NZ        -43.2200  -23.3700   18.0200 N.4       4 LYS4        0.0000 
     43 NZ        -44.6600  -18.6900   17.1500 N.4       4 LYS4        0.0000 
     44 NZ        -43.2700  -21.3400   18.6500 N.4       4 LYS4        0.0000 
     45 NZ        -44.2700  -20.2300   18.5500 N.4       4 LYS4        0.0000 
     46 NZ        -44.8800  -20.6500   19.8500 N.4       4 LYS4        0.0000 
     47 NZ        -44.4900  -22.2000   21.2600 N.4       4 LYS4        0.0000 
     48 NZ        -45.4800  -21.0800   21.1600 N.4       4 LYS4        0.0000 
     49 NZ        -42.7200  -18.9000   17.9800 N.4       4 LYS4        0.0000 
     50 NZ        -43.7200  -17.7800   17.8800 N.4       4 LYS4        0.0000 
     51 NZ        -42.3300  -20.4400   19.3900 N.4       4 LYS4        0.0000 
     52 NZ        -43.3300  -19.3200   19.2900 N.4       4 LYS4        0.0000 
     53 NZ        -44.5400  -20.1700   21.8900 N.4       4 LYS4        0.0000 
     54 NZ        -45.5400  -19.0600   21.7900 N.4       4 LYS4        0.0000 
     55 NZ        -46.1500  -19.4800   23.1000 N.4       4 LYS4        0.0000 
     56 CA        -40.8900  -27.6800   14.2400 C.3       5 GLY6        0.0000 
     57 CA        -41.8900  -26.5600   14.1400 C.3       5 GLY6        0.0000 
     58 DU        -42.8900  -25.4400   14.0400 H         6 CUB7        0.0000 
     59 DU        -44.3200  -18.2100   19.1900 H         6 CUB7        0.0000 
     60 DU        -45.3200  -17.0900   19.0900 H         6 CUB7        0.0000 
     61 DU        -44.9300  -18.6300   20.4900 H         6 CUB7        0.0000 
     62 DU        -42.7800  -16.8700   18.6200 H         6 CUB7        0.0000 
     63 DU        -43.3800  -17.3000   19.9200 H         6 CUB7        0.0000 
     64 DU        -43.9900  -17.7200   21.2300 H         6 CUB7        0.0000 
     65 DU        -44.6000  -18.1500   22.5300 H         6 CUB7        0.0000 
@<TRIPOS>BOND
@<TRIPOS>SUBSTRUCTURE
     1 SER1        1 GROUP   
     2 ALA2        5 GROUP   
     3 ASP3       19 GROUP   
     4 LYS4       42 GROUP   
     5 GLY6       56 GROUP   
     6 CUB7       58 GROUP   
@<TRIPOS>SET

