#    Name: 6ci7_2_ACP_CAVITY_N1_8
#    Modification time : Fri May 22 19:33:51 2020

@<TRIPOS>MOLECULE
6ci7_2_ACP_CAVITY_N1_8
   85     0     6     0     0
SMALL
NO_CHARGES


@<TRIPOS>ATOM
      1 OG          3.4200   18.0400   60.2100 O.3       1 SER1        0.0000 
      2 OG          4.3700   18.9400   60.9400 O.3       1 SER1        0.0000 
      3 OG          3.7600   18.5200   62.2500 O.3       1 SER1        0.0000 
      4 N           5.6900   15.7500   57.0700 N.am      2 ALA2        0.0000 
      5 N           5.0900   15.3200   58.3700 N.am      2 ALA2        0.0000 
      6 N           3.4800   16.0100   59.5700 N.am      2 ALA2        0.0000 
      7 O           6.0300   16.2300   59.1000 O.2       2 ALA2        0.0000 
      8 N           4.4200   16.9200   60.3100 N.am      2 ALA2        0.0000 
      9 N           3.8100   16.4900   61.6100 N.am      2 ALA2        0.0000 
     10 O           5.9700   18.2500   59.7400 O.2       2 ALA2        0.0000 
     11 O           6.3600   16.7100   61.1400 O.2       2 ALA2        0.0000 
     12 O           5.3600   17.8300   61.0400 O.2       2 ALA2        0.0000 
     13 O           5.8100   16.8200   67.8300 O.2       2 ALA2        0.0000 
     14 O           5.2100   16.3900   69.1300 O.2       2 ALA2        0.0000 
     15 O           4.6000   15.9700   70.4400 O.2       2 ALA2        0.0000 
     16 O           5.7600   18.8400   68.4600 O.2       2 ALA2        0.0000 
     17 O           6.1500   17.3000   69.8700 O.2       2 ALA2        0.0000 
     18 O           6.0900   19.3200   70.5000 O.2       2 ALA2        0.0000 
     19 N           9.4700   14.4300   72.2100 N.am      2 ALA2        0.0000 
     20 N           8.4700   15.5500   72.1100 N.am      2 ALA2        0.0000 
     21 N           9.4200   16.4500   72.8400 N.am      2 ALA2        0.0000 
     22 OD1         4.7000   16.8700   56.9700 O.co2     3 ASP3        0.0000 
     23 OD1         5.0300   17.3500   59.0100 O.co2     3 ASP3        0.0000 
     24 OD1         4.9700   19.3700   59.6400 O.co2     3 ASP3        0.0000 
     25 OD1         6.3100   18.7300   61.7800 O.co2     3 ASP3        0.0000 
     26 OD1         6.6900   17.1900   63.1800 O.co2     3 ASP3        0.0000 
     27 OD1         5.7000   18.3100   63.0800 O.co2     3 ASP3        0.0000 
     28 OD1         5.0900   17.8800   64.3900 O.co2     3 ASP3        0.0000 
     29 OD1         6.8700   13.6800   67.2900 O.co2     3 ASP3        0.0000 
     30 OD1         5.8700   14.8000   67.1900 O.co2     3 ASP3        0.0000 
     31 OD1         5.2600   14.3700   68.5000 O.co2     3 ASP3        0.0000 
     32 OD1         4.6500   13.9400   69.8000 O.co2     3 ASP3        0.0000 
     33 OD1         7.4200   16.1300   66.6300 O.co2     3 ASP3        0.0000 
     34 OD1         5.4200   18.3600   66.4300 O.co2     3 ASP3        0.0000 
     35 OD1         7.8100   14.5900   68.0300 O.co2     3 ASP3        0.0000 
     36 OD1         8.2000   13.0400   69.4300 O.co2     3 ASP3        0.0000 
     37 OD1         7.2000   14.1600   69.3300 O.co2     3 ASP3        0.0000 
     38 OD1         8.3600   17.0400   67.3600 O.co2     3 ASP3        0.0000 
     39 OD1         9.7500   14.3800   68.8600 O.co2     3 ASP3        0.0000 
     40 OD1         8.7500   15.4900   68.7600 O.co2     3 ASP3        0.0000 
     41 OD1         7.7500   16.6100   68.6600 O.co2     3 ASP3        0.0000 
     42 OD1         9.1400   13.9500   70.1700 O.co2     3 ASP3        0.0000 
     43 OD1         8.1400   15.0700   70.0700 O.co2     3 ASP3        0.0000 
     44 OD1         8.6900   17.5200   69.4000 O.co2     3 ASP3        0.0000 
     45 OD1        10.0800   14.8600   70.9000 O.co2     3 ASP3        0.0000 
     46 OD1         9.0800   15.9700   70.8000 O.co2     3 ASP3        0.0000 
     47 OD1        10.0200   16.8800   71.5400 O.co2     3 ASP3        0.0000 
     48 NZ          4.4800   14.9000   59.6700 N.4       4 LYS4        0.0000 
     49 NZ          5.4200   15.8000   60.4100 N.4       4 LYS4        0.0000 
     50 NZ          4.7600   17.4000   62.3500 N.4       4 LYS4        0.0000 
     51 NZ          6.0900   16.7600   64.4900 N.4       4 LYS4        0.0000 
     52 NZ          6.4800   15.2200   65.8900 N.4       4 LYS4        0.0000 
     53 NZ          5.4800   16.3400   65.7900 N.4       4 LYS4        0.0000 
     54 NZ          4.4800   17.4500   65.6900 N.4       4 LYS4        0.0000 
     55 NZ          4.8700   15.9100   67.0900 N.4       4 LYS4        0.0000 
     56 NZ          4.2600   15.4900   68.4000 N.4       4 LYS4        0.0000 
     57 NZ          7.0300   17.6700   65.2200 N.4       4 LYS4        0.0000 
     58 NZ          6.4200   17.2500   66.5300 N.4       4 LYS4        0.0000 
     59 NZ          6.7500   17.7300   68.5600 N.4       4 LYS4        0.0000 
     60 NZ          7.7000   18.6300   69.3000 N.4       4 LYS4        0.0000 
     61 NZ          7.0900   18.2100   70.6000 N.4       4 LYS4        0.0000 
     62 NZ          9.6300   18.4200   70.1400 N.4       4 LYS4        0.0000 
     63 NZ          8.0300   19.1100   71.3400 N.4       4 LYS4        0.0000 
     64 NZ          7.0300   20.2300   71.2400 N.4       4 LYS4        0.0000 
     65 CA          3.7500   15.9600   56.2300 C.3       5 GLY6        0.0000 
     66 CA          4.0900   16.4400   58.2700 C.3       5 GLY6        0.0000 
     67 CA          3.0900   17.5600   58.1700 C.3       5 GLY6        0.0000 
     68 CA          4.0300   18.4600   58.9100 C.3       5 GLY6        0.0000 
     69 CA          6.5900   13.7300   70.6400 C.3       5 GLY6        0.0000 
     70 CA          5.5900   14.8500   70.5400 C.3       5 GLY6        0.0000 
     71 CA          7.5300   14.6400   71.3700 C.3       5 GLY6        0.0000 
     72 CA          4.5400   17.9900   71.0700 C.3       5 GLY6        0.0000 
     73 CA          5.4800   18.9000   71.8100 C.3       5 GLY6        0.0000 
     74 DU          3.6600   15.0600   69.7000 H         6 CUB7        0.0000 
     75 DU          6.8100   15.7000   67.9300 H         6 CUB7        0.0000 
     76 DU          6.2000   15.2800   69.2300 H         6 CUB7        0.0000 
     77 DU          7.1400   16.1800   69.9700 H         6 CUB7        0.0000 
     78 DU          6.5400   15.7600   71.2700 H         6 CUB7        0.0000 
     79 DU          5.5400   16.8700   71.1700 H         6 CUB7        0.0000 
     80 DU          8.0900   17.0900   70.7000 H         6 CUB7        0.0000 
     81 DU          7.4800   16.6600   72.0100 H         6 CUB7        0.0000 
     82 DU          6.4800   17.7800   71.9100 H         6 CUB7        0.0000 
     83 DU          9.0300   18.0000   71.4400 H         6 CUB7        0.0000 
     84 DU          8.4200   17.5700   72.7400 H         6 CUB7        0.0000 
     85 DU          7.4200   18.6900   72.6400 H         6 CUB7        0.0000 
@<TRIPOS>BOND
@<TRIPOS>SUBSTRUCTURE
     1 SER1        1 GROUP   
     2 ALA2        4 GROUP   
     3 ASP3       22 GROUP   
     4 LYS4       48 GROUP   
     5 GLY6       65 GROUP   
     6 CUB7       74 GROUP   
@<TRIPOS>SET

