#    Name: 6ci7_4_ACP_CAVITY_N1_4
#    Modification time : Fri May 22 19:34:01 2020

@<TRIPOS>MOLECULE
6ci7_4_ACP_CAVITY_N1_4
   35     0     6     0     0
SMALL
NO_CHARGES


@<TRIPOS>ATOM
      1 OG        -76.5900    9.1600   38.9900 O.3       1 SER1        0.0000 
      2 O         -77.8100    8.3100   41.5900 O.2       2 ALA2        0.0000 
      3 O         -78.8100    9.4300   41.4900 O.2       2 ALA2        0.0000 
      4 O         -79.8000   10.5400   41.3900 O.2       2 ALA2        0.0000 
      5 O         -75.8700    8.1000   42.4300 O.2       2 ALA2        0.0000 
      6 O         -76.8700    9.2200   42.3300 O.2       2 ALA2        0.0000 
      7 O         -77.8700   10.3400   42.2300 O.2       2 ALA2        0.0000 
      8 O         -75.9300   10.1300   43.0600 O.2       2 ALA2        0.0000 
      9 O         -76.5300    9.7000   44.3700 O.2       2 ALA2        0.0000 
     10 N         -77.5300   10.8200   44.2700 N.am      2 ALA2        0.0000 
     11 OD1       -77.5900   10.2800   38.8900 O.co2     3 ASP3        0.0000 
     12 OD1       -76.6500   11.1900   39.6200 O.co2     3 ASP3        0.0000 
     13 OD1       -72.7200    8.7500   40.6600 O.co2     3 ASP3        0.0000 
     14 OD1       -73.7100    9.8600   40.5600 O.co2     3 ASP3        0.0000 
     15 OD1       -73.3300    8.3200   41.9600 O.co2     3 ASP3        0.0000 
     16 OD1       -74.3200    9.4400   41.8600 O.co2     3 ASP3        0.0000 
     17 OD1       -74.3800   11.4600   42.5000 O.co2     3 ASP3        0.0000 
     18 OD1       -75.3800   12.5800   42.4000 O.co2     3 ASP3        0.0000 
     19 OD1       -76.5900   11.7200   45.0000 O.co2     3 ASP3        0.0000 
     20 NZ        -77.2600   10.7600   40.9300 N.4       4 LYS4        0.0000 
     21 NZ        -78.8600   11.4500   42.1300 N.4       4 LYS4        0.0000 
     22 NZ        -75.7100   12.0900   40.3600 N.4       4 LYS4        0.0000 
     23 NZ        -76.3200   11.6700   41.6600 N.4       4 LYS4        0.0000 
     24 NZ        -74.9300    9.0100   43.1600 N.4       4 LYS4        0.0000 
     25 NZ        -76.9200   11.2400   42.9700 N.4       4 LYS4        0.0000 
     26 NZ        -75.9800   12.1500   43.7000 N.4       4 LYS4        0.0000 
     27 CA        -75.0500   10.5000   38.4200 C.3       5 GLY6        0.0000 
     28 CA        -74.7100   10.9800   40.4600 C.3       5 GLY6        0.0000 
     29 DU        -77.2000    8.7400   40.2900 H         6 CUB7        0.0000 
     30 DU        -78.2000    9.8500   40.1900 H         6 CUB7        0.0000 
     31 DU        -74.6600    8.9600   39.8200 H         6 CUB7        0.0000 
     32 DU        -75.6500   10.0700   39.7200 H         6 CUB7        0.0000 
     33 DU        -75.2600    8.5300   41.1300 H         6 CUB7        0.0000 
     34 DU        -76.2600    9.6500   41.0300 H         6 CUB7        0.0000 
     35 DU        -75.3200   10.5500   41.7600 H         6 CUB7        0.0000 
@<TRIPOS>BOND
@<TRIPOS>SUBSTRUCTURE
     1 SER1        1 GROUP   
     2 ALA2        2 GROUP   
     3 ASP3       11 GROUP   
     4 LYS4       20 GROUP   
     5 GLY6       27 GROUP   
     6 CUB7       29 GROUP   
@<TRIPOS>SET

