#    Name: 6ci7_3_ACP_CAVITY_N1_4
#    Modification time : Fri May 22 19:33:56 2020

@<TRIPOS>MOLECULE
6ci7_3_ACP_CAVITY_N1_4
   73     0     6     0     0
SMALL
NO_CHARGES


@<TRIPOS>ATOM
      1 OG         -1.2800   66.5600   18.6500 O.3       1 SER1        0.0000 
      2 OG         -0.8900   65.0200   20.0500 O.3       1 SER1        0.0000 
      3 OG         -1.8900   66.1300   19.9500 O.3       1 SER1        0.0000 
      4 OG         -0.3400   67.4700   19.3800 O.3       1 SER1        0.0000 
      5 O          -2.5500   57.6700   22.0500 O.2       2 ALA2        0.0000 
      6 O          -3.5400   58.7800   21.9500 O.2       2 ALA2        0.0000 
      7 O          -2.9900   61.2300   21.2900 O.2       2 ALA2        0.0000 
      8 O          -2.6000   59.6900   22.6900 O.2       2 ALA2        0.0000 
      9 O          -3.6000   60.8100   22.5900 O.2       2 ALA2        0.0000 
     10 O          -3.2100   59.2700   23.9900 O.2       2 ALA2        0.0000 
     11 N          -1.4400   62.5700   20.7200 N.am      2 ALA2        0.0000 
     12 O          -2.0500   62.1400   22.0200 O.2       2 ALA2        0.0000 
     13 O          -1.6600   60.6000   23.4200 O.2       2 ALA2        0.0000 
     14 O          -2.2700   60.1700   24.7300 O.2       2 ALA2        0.0000 
     15 O          -2.8800   67.2500   19.8500 O.2       2 ALA2        0.0000 
     16 N          -0.9500   67.0400   20.6900 N.am      2 ALA2        0.0000 
     17 N          -2.9400   69.2700   20.4900 N.am      2 ALA2        0.0000 
     18 O           0.8200   70.3400   17.4100 O.2       2 ALA2        0.0000 
     19 N          -0.3900   69.4900   20.0200 N.am      2 ALA2        0.0000 
     20 N          -1.3900   70.6100   19.9200 N.am      2 ALA2        0.0000 
     21 N          -2.3900   71.7200   19.8200 N.am      2 ALA2        0.0000 
     22 N           0.0000   67.9500   21.4200 N.am      2 ALA2        0.0000 
     23 O          -1.0000   69.0600   21.3200 O.2       2 ALA2        0.0000 
     24 N          -2.0000   70.1800   21.2200 N.am      2 ALA2        0.0000 
     25 OD1        -5.1500   59.4700   23.1600 O.co2     3 ASP3        0.0000 
     26 OD1        -2.3800   61.6600   19.9800 O.co2     3 ASP3        0.0000 
     27 OD1        -3.3800   62.7800   19.8800 O.co2     3 ASP3        0.0000 
     28 OD1        -4.3800   63.8900   19.7800 O.co2     3 ASP3        0.0000 
     29 OD1        -4.9900   63.4700   21.0900 O.co2     3 ASP3        0.0000 
     30 OD1        -4.6000   61.9200   22.4900 O.co2     3 ASP3        0.0000 
     31 OD1        -4.2100   60.3800   23.8900 O.co2     3 ASP3        0.0000 
     32 OD1        -5.2000   61.5000   23.7900 O.co2     3 ASP3        0.0000 
     33 OD1        -4.8100   59.9600   25.2000 O.co2     3 ASP3        0.0000 
     34 OD1        -5.8100   61.0700   25.1000 O.co2     3 ASP3        0.0000 
     35 OD1        -2.8300   65.2300   19.2100 O.co2     3 ASP3        0.0000 
     36 OD1        -2.4400   63.6800   20.6200 O.co2     3 ASP3        0.0000 
     37 OD1        -3.4400   64.8000   20.5200 O.co2     3 ASP3        0.0000 
     38 OD1        -3.0500   63.2600   21.9200 O.co2     3 ASP3        0.0000 
     39 OD1        -3.6500   62.8300   23.2200 O.co2     3 ASP3        0.0000 
     40 OD1        -3.2700   61.2900   24.6300 O.co2     3 ASP3        0.0000 
     41 OD1        -4.2600   62.4000   24.5300 O.co2     3 ASP3        0.0000 
     42 OD1        -3.8700   60.8600   25.9300 O.co2     3 ASP3        0.0000 
     43 OD1        -2.2800   67.6800   18.5500 O.co2     3 ASP3        0.0000 
     44 OD1        -3.4900   66.8200   21.1500 O.co2     3 ASP3        0.0000 
     45 OD1        -1.7200   70.1200   17.8800 O.co2     3 ASP3        0.0000 
     46 OD1        -2.3300   69.7000   19.1800 O.co2     3 ASP3        0.0000 
     47 OD1        -0.1800   71.4600   17.3100 O.co2     3 ASP3        0.0000 
     48 OD1        -0.7800   71.0300   18.6200 O.co2     3 ASP3        0.0000 
     49 OD1        -0.8400   73.0500   19.2500 O.co2     3 ASP3        0.0000 
     50 NZ         -4.4900   57.8800   21.2200 N.4       4 LYS4        0.0000 
     51 NZ         -6.0900   58.5700   22.4200 N.4       4 LYS4        0.0000 
     52 NZ         -4.3200   61.8700   19.1500 N.4       4 LYS4        0.0000 
     53 NZ         -3.9300   60.3300   20.5500 N.4       4 LYS4        0.0000 
     54 NZ         -5.9300   62.5600   20.3500 N.4       4 LYS4        0.0000 
     55 NZ         -4.5400   59.9000   21.8500 N.4       4 LYS4        0.0000 
     56 NZ         -5.5400   61.0200   21.7500 N.4       4 LYS4        0.0000 
     57 NZ         -3.9900   62.3500   21.1900 N.4       4 LYS4        0.0000 
     58 NZ         -5.5900   63.0400   22.3900 N.4       4 LYS4        0.0000 
     59 NZ         -2.6600   61.7100   23.3200 N.4       4 LYS4        0.0000 
     60 NZ         -1.5000   64.5900   21.3500 N.4       4 LYS4        0.0000 
     61 NZ         -2.4900   65.7100   21.2500 N.4       4 LYS4        0.0000 
     62 NZ         -2.5500   67.7300   21.8900 N.4       4 LYS4        0.0000 
     63 CA         -2.9400   59.2100   20.6500 C.3       5 GLY6        0.0000 
     64 CA         -4.8700   61.9800   25.8300 C.3       5 GLY6        0.0000 
     65 CA         -0.7300   69.0100   17.9800 C.3       5 GLY6        0.0000 
     66 CA          0.2100   69.9200   18.7200 C.3       5 GLY6        0.0000 
     67 CA          1.1600   70.8200   19.4500 C.3       5 GLY6        0.0000 
     68 CA          0.1600   71.9400   19.3500 C.3       5 GLY6        0.0000 
     69 CA         -0.4500   71.5100   20.6500 C.3       5 GLY6        0.0000 
     70 CA         -0.0600   69.9700   22.0600 C.3       5 GLY6        0.0000 
     71 DU         -4.1500   58.3600   23.2600 H         6 CUB7        0.0000 
     72 DU         -1.3400   68.5800   19.2800 H         6 CUB7        0.0000 
     73 DU         -1.9400   68.1600   20.5900 H         6 CUB7        0.0000 
@<TRIPOS>BOND
@<TRIPOS>SUBSTRUCTURE
     1 SER1        1 GROUP   
     2 ALA2        5 GROUP   
     3 ASP3       25 GROUP   
     4 LYS4       50 GROUP   
     5 GLY6       63 GROUP   
     6 CUB7       71 GROUP   
@<TRIPOS>SET

