#    Name: 6ci7_3_ACP_CAVITY_N1_12
#    Modification time : Fri May 22 19:33:56 2020

@<TRIPOS>MOLECULE
6ci7_3_ACP_CAVITY_N1_12
  123     0     6     0     0
SMALL
NO_CHARGES


@<TRIPOS>ATOM
      1 OG         -2.7100   53.6800   24.1200 O.3       1 SER1        0.0000 
      2 OG         -3.7100   54.7900   24.0200 O.3       1 SER1        0.0000 
      3 OG         -4.7000   55.9100   23.9200 O.3       1 SER1        0.0000 
      4 OG         -5.3100   55.4800   25.2300 O.3       1 SER1        0.0000 
      5 OG         -3.1500   57.2400   23.3600 O.3       1 SER1        0.0000 
      6 OG         -3.7600   56.8200   24.6600 O.3       1 SER1        0.0000 
      7 OG         -4.7600   57.9300   24.5600 O.3       1 SER1        0.0000 
      8 OG         -5.3700   57.5100   25.8600 O.3       1 SER1        0.0000 
      9 OG         -2.2100   58.1500   24.0900 O.3       1 SER1        0.0000 
     10 OG         -3.8200   58.8400   25.3000 O.3       1 SER1        0.0000 
     11 OG         -4.4300   58.4100   26.6000 O.3       1 SER1        0.0000 
     12 OG         -1.8800   58.6300   26.1300 O.3       1 SER1        0.0000 
     13 OG         -1.2800   66.5600   18.6500 O.3       1 SER1        0.0000 
     14 OG         -0.8900   65.0200   20.0500 O.3       1 SER1        0.0000 
     15 OG         -1.8900   66.1300   19.9500 O.3       1 SER1        0.0000 
     16 OG         -0.3400   67.4700   19.3800 O.3       1 SER1        0.0000 
     17 N          -4.0400   54.3100   21.9900 N.am      2 ALA2        0.0000 
     18 N          -4.3100   54.3700   25.3300 N.am      2 ALA2        0.0000 
     19 O          -2.5500   57.6700   22.0500 O.2       2 ALA2        0.0000 
     20 O          -3.5400   58.7800   21.9500 O.2       2 ALA2        0.0000 
     21 O          -2.9900   61.2300   21.2900 O.2       2 ALA2        0.0000 
     22 O          -2.6000   59.6900   22.6900 O.2       2 ALA2        0.0000 
     23 O          -3.6000   60.8100   22.5900 O.2       2 ALA2        0.0000 
     24 O          -3.2100   59.2700   23.9900 O.2       2 ALA2        0.0000 
     25 N          -1.4400   62.5700   20.7200 N.am      2 ALA2        0.0000 
     26 O          -2.0500   62.1400   22.0200 O.2       2 ALA2        0.0000 
     27 O          -1.6600   60.6000   23.4200 O.2       2 ALA2        0.0000 
     28 O          -1.2700   59.0600   24.8300 O.2       2 ALA2        0.0000 
     29 O          -2.2700   60.1700   24.7300 O.2       2 ALA2        0.0000 
     30 O          -2.8800   67.2500   19.8500 O.2       2 ALA2        0.0000 
     31 O           0.2800   60.3900   24.2600 O.2       2 ALA2        0.0000 
     32 N          -0.9500   67.0400   20.6900 N.am      2 ALA2        0.0000 
     33 N          -2.9400   69.2700   20.4900 N.am      2 ALA2        0.0000 
     34 N           1.6100   59.7500   26.4000 N.am      2 ALA2        0.0000 
     35 N           2.0000   58.2100   27.8000 N.am      2 ALA2        0.0000 
     36 N           1.0000   59.3300   27.7000 N.am      2 ALA2        0.0000 
     37 O           0.8200   70.3400   17.4100 O.2       2 ALA2        0.0000 
     38 N          -0.3900   69.4900   20.0200 N.am      2 ALA2        0.0000 
     39 N          -1.3900   70.6100   19.9200 N.am      2 ALA2        0.0000 
     40 N          -2.3900   71.7200   19.8200 N.am      2 ALA2        0.0000 
     41 N           0.0000   67.9500   21.4200 N.am      2 ALA2        0.0000 
     42 O          -1.0000   69.0600   21.3200 O.2       2 ALA2        0.0000 
     43 N          -2.0000   70.1800   21.2200 N.am      2 ALA2        0.0000 
     44 OD1        -5.1500   59.4700   23.1600 O.co2     3 ASP3        0.0000 
     45 OD1        -5.7600   59.0500   24.4600 O.co2     3 ASP3        0.0000 
     46 OD1        -6.3600   58.6200   25.7600 O.co2     3 ASP3        0.0000 
     47 OD1        -2.3800   61.6600   19.9800 O.co2     3 ASP3        0.0000 
     48 OD1        -3.3800   62.7800   19.8800 O.co2     3 ASP3        0.0000 
     49 OD1        -4.3800   63.8900   19.7800 O.co2     3 ASP3        0.0000 
     50 OD1        -4.9900   63.4700   21.0900 O.co2     3 ASP3        0.0000 
     51 OD1        -4.6000   61.9200   22.4900 O.co2     3 ASP3        0.0000 
     52 OD1        -4.2100   60.3800   23.8900 O.co2     3 ASP3        0.0000 
     53 OD1        -5.2000   61.5000   23.7900 O.co2     3 ASP3        0.0000 
     54 OD1        -4.8100   59.9600   25.2000 O.co2     3 ASP3        0.0000 
     55 OD1        -5.8100   61.0700   25.1000 O.co2     3 ASP3        0.0000 
     56 OD1        -2.8300   65.2300   19.2100 O.co2     3 ASP3        0.0000 
     57 OD1        -2.4400   63.6800   20.6200 O.co2     3 ASP3        0.0000 
     58 OD1        -3.4400   64.8000   20.5200 O.co2     3 ASP3        0.0000 
     59 OD1        -3.0500   63.2600   21.9200 O.co2     3 ASP3        0.0000 
     60 OD1        -3.6500   62.8300   23.2200 O.co2     3 ASP3        0.0000 
     61 OD1        -3.2700   61.2900   24.6300 O.co2     3 ASP3        0.0000 
     62 OD1        -4.2600   62.4000   24.5300 O.co2     3 ASP3        0.0000 
     63 OD1        -2.8800   59.7500   26.0300 O.co2     3 ASP3        0.0000 
     64 OD1        -3.8700   60.8600   25.9300 O.co2     3 ASP3        0.0000 
     65 OD1        -2.2800   67.6800   18.5500 O.co2     3 ASP3        0.0000 
     66 OD1        -3.4900   66.8200   21.1500 O.co2     3 ASP3        0.0000 
     67 OD1        -1.3300   61.0800   25.4600 O.co2     3 ASP3        0.0000 
     68 OD1        -1.9300   60.6500   26.7700 O.co2     3 ASP3        0.0000 
     69 OD1        -2.5400   60.2300   28.0700 O.co2     3 ASP3        0.0000 
     70 OD1        -1.7200   70.1200   17.8800 O.co2     3 ASP3        0.0000 
     71 OD1        -2.3300   69.7000   19.1800 O.co2     3 ASP3        0.0000 
     72 OD1        -0.6000   60.0200   28.9100 O.co2     3 ASP3        0.0000 
     73 OD1        -0.1800   71.4600   17.3100 O.co2     3 ASP3        0.0000 
     74 OD1        -0.7800   71.0300   18.6200 O.co2     3 ASP3        0.0000 
     75 OD1        -0.8400   73.0500   19.2500 O.co2     3 ASP3        0.0000 
     76 NZ         -3.4900   56.7600   21.3200 N.4       4 LYS4        0.0000 
     77 NZ         -4.4900   57.8800   21.2200 N.4       4 LYS4        0.0000 
     78 NZ         -6.0900   58.5700   22.4200 N.4       4 LYS4        0.0000 
     79 NZ         -4.3200   61.8700   19.1500 N.4       4 LYS4        0.0000 
     80 NZ         -3.9300   60.3300   20.5500 N.4       4 LYS4        0.0000 
     81 NZ         -5.9300   62.5600   20.3500 N.4       4 LYS4        0.0000 
     82 NZ         -4.5400   59.9000   21.8500 N.4       4 LYS4        0.0000 
     83 NZ         -5.5400   61.0200   21.7500 N.4       4 LYS4        0.0000 
     84 NZ         -3.9900   62.3500   21.1900 N.4       4 LYS4        0.0000 
     85 NZ         -5.5900   63.0400   22.3900 N.4       4 LYS4        0.0000 
     86 NZ         -2.6600   61.7100   23.3200 N.4       4 LYS4        0.0000 
     87 NZ         -1.5000   64.5900   21.3500 N.4       4 LYS4        0.0000 
     88 NZ         -2.4900   65.7100   21.2500 N.4       4 LYS4        0.0000 
     89 NZ         -0.3300   59.9600   25.5600 N.4       4 LYS4        0.0000 
     90 NZ         -2.5500   67.7300   21.8900 N.4       4 LYS4        0.0000 
     91 CA         -2.1000   54.1000   22.8200 C.3       5 GLY6        0.0000 
     92 CA         -2.9400   59.2100   20.6500 C.3       5 GLY6        0.0000 
     93 CA         -1.5500   56.5500   22.1500 C.3       5 GLY6        0.0000 
     94 CA         -2.1600   56.1300   23.4600 C.3       5 GLY6        0.0000 
     95 CA         -1.2200   57.0300   24.1900 C.3       5 GLY6        0.0000 
     96 CA         -5.4200   59.5300   26.5000 C.3       5 GLY6        0.0000 
     97 CA         -0.2700   57.9400   24.9300 C.3       5 GLY6        0.0000 
     98 CA         -4.8700   61.9800   25.8300 C.3       5 GLY6        0.0000 
     99 CA         -3.4800   59.3200   27.3300 C.3       5 GLY6        0.0000 
    100 CA         -4.4800   60.4400   27.2400 C.3       5 GLY6        0.0000 
    101 CA          1.2700   59.2700   24.3600 C.3       5 GLY6        0.0000 
    102 CA          0.6700   58.8500   25.6600 C.3       5 GLY6        0.0000 
    103 CA          1.0600   57.3000   27.0700 C.3       5 GLY6        0.0000 
    104 CA          0.0600   58.4200   26.9700 C.3       5 GLY6        0.0000 
    105 CA         -0.9400   59.5400   26.8700 C.3       5 GLY6        0.0000 
    106 CA         -1.5500   59.1100   28.1700 C.3       5 GLY6        0.0000 
    107 CA         -0.7300   69.0100   17.9800 C.3       5 GLY6        0.0000 
    108 CA          0.3900   58.9000   29.0100 C.3       5 GLY6        0.0000 
    109 CA          0.2100   69.9200   18.7200 C.3       5 GLY6        0.0000 
    110 CA          1.1600   70.8200   19.4500 C.3       5 GLY6        0.0000 
    111 CA          0.1600   71.9400   19.3500 C.3       5 GLY6        0.0000 
    112 CA         -0.4500   71.5100   20.6500 C.3       5 GLY6        0.0000 
    113 CA         -0.0600   69.9700   22.0600 C.3       5 GLY6        0.0000 
    114 DU         -3.6500   52.7700   23.3900 H         6 CUB7        0.0000 
    115 DU         -4.6500   53.8900   23.2900 H         6 CUB7        0.0000 
    116 DU         -6.2500   54.5800   24.4900 H         6 CUB7        0.0000 
    117 DU         -3.1000   55.2200   22.7200 H         6 CUB7        0.0000 
    118 DU         -4.1000   56.3400   22.6200 H         6 CUB7        0.0000 
    119 DU         -5.7000   57.0300   23.8200 H         6 CUB7        0.0000 
    120 DU         -6.3100   56.6000   25.1300 H         6 CUB7        0.0000 
    121 DU         -4.1500   58.3600   23.2600 H         6 CUB7        0.0000 
    122 DU         -1.3400   68.5800   19.2800 H         6 CUB7        0.0000 
    123 DU         -1.9400   68.1600   20.5900 H         6 CUB7        0.0000 
@<TRIPOS>BOND
@<TRIPOS>SUBSTRUCTURE
     1 SER1        1 GROUP   
     2 ALA2       17 GROUP   
     3 ASP3       44 GROUP   
     4 LYS4       76 GROUP   
     5 GLY6       91 GROUP   
     6 CUB7      114 GROUP   
@<TRIPOS>SET

