#    Name: 5yd2_1_PLP_CAVITY_N1_8
#    Modification time : Fri May 22 19:18:03 2020

@<TRIPOS>MOLECULE
5yd2_1_PLP_CAVITY_N1_8
   96     0     7     0     0
SMALL
NO_CHARGES


@<TRIPOS>ATOM
      1 OG        -29.9300   26.8300  115.3100 O.3       1 SER1        0.0000 
      2 OG        -29.1400   25.8300  114.5100 O.3       1 SER1        0.0000 
      3 OG        -29.1800   24.8800  115.6600 O.3       1 SER1        0.0000 
      4 OG        -29.4900   27.4500  117.7900 O.3       1 SER1        0.0000 
      5 OG        -29.5300   26.4900  118.9500 O.3       1 SER1        0.0000 
      6 OG        -28.6500   27.4100  115.8400 O.3       1 SER1        0.0000 
      7 OG        -31.3700   32.0100  121.5200 O.3       1 SER1        0.0000 
      8 OG        -26.5000   28.9200  113.2700 O.3       1 SER1        0.0000 
      9 OG        -30.1000   32.6000  122.0500 O.3       1 SER1        0.0000 
     10 OG        -28.8200   33.1800  122.5900 O.3       1 SER1        0.0000 
     11 OG        -28.8700   32.2200  123.7400 O.3       1 SER1        0.0000 
     12 OG        -23.9500   30.0900  114.3400 O.3       1 SER1        0.0000 
     13 OG        -26.2300   35.3100  122.5000 O.3       1 SER1        0.0000 
     14 O         -28.6100   28.3700  114.6900 O.2       2 ALA2        0.0000 
     15 O         -29.0000   29.0300  119.1300 O.2       2 ALA2        0.0000 
     16 O         -28.1700   28.9900  117.1700 O.2       2 ALA2        0.0000 
     17 N         -30.8000   35.5100  120.5400 N.am      2 ALA2        0.0000 
     18 N         -30.0100   34.5100  119.7500 N.am      2 ALA2        0.0000 
     19 OD1       -28.3000   26.1200  120.6300 O.co2     3 ASP3        0.0000 
     20 OD1       -27.3400   28.9600  115.2200 O.co2     3 ASP3        0.0000 
     21 OD1       -28.4700   31.5700  119.3000 O.co2     3 ASP3        0.0000 
     22 OD1       -27.6800   30.5700  118.5100 O.co2     3 ASP3        0.0000 
     23 OD1       -27.8100   27.6900  121.9600 O.co2     3 ASP3        0.0000 
     24 OD1       -26.8900   29.5800  117.7100 O.co2     3 ASP3        0.0000 
     25 OD1       -27.0700   25.7400  122.3200 O.co2     3 ASP3        0.0000 
     26 OD1       -26.0200   30.5000  114.6000 O.co2     3 ASP3        0.0000 
     27 OD1       -26.0600   29.5400  115.7600 O.co2     3 ASP3        0.0000 
     28 OD1       -25.4900   23.7500  120.7200 O.co2     3 ASP3        0.0000 
     29 OD1       -26.5800   27.3200  123.6500 O.co2     3 ASP3        0.0000 
     30 OD1       -27.5500   33.7600  123.1200 O.co2     3 ASP3        0.0000 
     31 OD1       -27.5900   32.8100  124.2700 O.co2     3 ASP3        0.0000 
     32 OD1       -26.8000   31.8100  123.4700 O.co2     3 ASP3        0.0000 
     33 OD1       -26.8400   30.8500  124.6300 O.co2     3 ASP3        0.0000 
     34 OD1       -26.0500   29.8600  123.8300 O.co2     3 ASP3        0.0000 
     35 OD1       -25.2600   28.8600  123.0300 O.co2     3 ASP3        0.0000 
     36 OD1       -26.2700   34.3500  123.6500 O.co2     3 ASP3        0.0000 
     37 NZ        -24.4400   28.5100  113.0100 N.4       4 LYS4        0.0000 
     38 CZ        -28.7000   26.4500  117.0000 C.ar      5 PHE5        0.0000 
     39 CZ        -28.7400   25.5000  118.1500 C.ar      5 PHE5        0.0000 
     40 CZ        -27.8600   26.4200  115.0500 C.ar      5 PHE5        0.0000 
     41 CZ        -27.9100   25.4600  116.2000 C.ar      5 PHE5        0.0000 
     42 CZ        -27.0700   25.4200  114.2500 C.ar      5 PHE5        0.0000 
     43 CZ        -30.5800   31.0200  120.7200 C.ar      5 PHE5        0.0000 
     44 CZ        -29.7900   30.0200  119.9200 C.ar      5 PHE5        0.0000 
     45 CZ        -29.0400   28.0700  120.2800 C.ar      5 PHE5        0.0000 
     46 CZ        -28.2100   28.0300  118.3300 C.ar      5 PHE5        0.0000 
     47 CZ        -28.2600   27.0700  119.4800 C.ar      5 PHE5        0.0000 
     48 CZ        -27.3800   28.0000  116.3800 C.ar      5 PHE5        0.0000 
     49 CZ        -26.5900   27.0000  115.5800 C.ar      5 PHE5        0.0000 
     50 CZ        -25.7600   26.9700  113.6300 C.ar      5 PHE5        0.0000 
     51 CZ        -29.3100   31.6000  121.2500 C.ar      5 PHE5        0.0000 
     52 CZ        -28.5200   30.6100  120.4600 C.ar      5 PHE5        0.0000 
     53 CZ        -28.5600   29.6500  121.6100 C.ar      5 PHE5        0.0000 
     54 CZ        -26.9400   28.6200  118.8600 C.ar      5 PHE5        0.0000 
     55 CZ        -26.9800   27.6600  120.0100 C.ar      5 PHE5        0.0000 
     56 CZ        -27.0200   26.7000  121.1700 C.ar      5 PHE5        0.0000 
     57 CZ        -26.1100   28.5800  116.9100 C.ar      5 PHE5        0.0000 
     58 CZ        -26.2800   24.7500  121.5200 C.ar      5 PHE5        0.0000 
     59 CZ        -25.2700   28.5500  114.9600 C.ar      5 PHE5        0.0000 
     60 CZ        -24.4800   27.5500  114.1600 C.ar      5 PHE5        0.0000 
     61 CZ        -29.5300   36.0900  121.0800 C.ar      5 PHE5        0.0000 
     62 CZ        -28.7400   35.1000  120.2800 C.ar      5 PHE5        0.0000 
     63 CZ        -25.7500   27.2800  121.7000 C.ar      5 PHE5        0.0000 
     64 CZ        -25.7900   26.3200  122.8500 C.ar      5 PHE5        0.0000 
     65 CZ        -24.9600   26.2900  120.9000 C.ar      5 PHE5        0.0000 
     66 CZ        -25.0000   25.3300  122.0500 C.ar      5 PHE5        0.0000 
     67 CZ        -24.0000   29.1300  115.4900 C.ar      5 PHE5        0.0000 
     68 CZ        -27.4600   35.6800  120.8100 C.ar      5 PHE5        0.0000 
     69 CZ        -25.3100   27.9000  124.1800 C.ar      5 PHE5        0.0000 
     70 CA        -29.9700   25.8700  116.4600 C.3       6 GLY6        0.0000 
     71 CA        -27.8200   27.3800  113.8900 C.3       6 GLY6        0.0000 
     72 CA        -31.2900   33.9300  119.2100 C.3       6 GLY6        0.0000 
     73 CA        -31.3300   32.9700  120.3700 C.3       6 GLY6        0.0000 
     74 CA        -30.5400   31.9800  119.5700 C.3       6 GLY6        0.0000 
     75 CA        -26.5500   27.9600  114.4300 C.3       6 GLY6        0.0000 
     76 CA        -30.8400   34.5500  121.7000 C.3       6 GLY6        0.0000 
     77 CA        -29.2200   33.5200  118.9500 C.3       6 GLY6        0.0000 
     78 CA        -29.2600   32.5600  120.1000 C.3       6 GLY6        0.0000 
     79 CA        -29.3500   30.6400  122.4100 C.3       6 GLY6        0.0000 
     80 CA        -28.6000   28.6900  122.7600 C.3       6 GLY6        0.0000 
     81 CA        -27.9500   34.1000  119.4800 C.3       6 GLY6        0.0000 
     82 CA        -28.0800   31.2300  122.9400 C.3       6 GLY6        0.0000 
     83 CA        -28.1200   30.2700  124.0900 C.3       6 GLY6        0.0000 
     84 CA        -27.3300   29.2700  123.3000 C.3       6 GLY6        0.0000 
     85 CA        -27.3700   28.3100  124.4500 C.3       6 GLY6        0.0000 
     86 CA        -24.2100   24.3400  121.2600 C.3       6 GLY6        0.0000 
     87 CA        -24.4700   27.8700  122.2300 C.3       6 GLY6        0.0000 
     88 DU        -30.0500   33.5500  120.9000 H         7 CUB7        0.0000 
     89 DU        -27.7300   29.6100  119.6600 H         7 CUB7        0.0000 
     90 DU        -27.7700   28.6500  120.8100 H         7 CUB7        0.0000 
     91 DU        -29.5700   35.1300  122.2300 H         7 CUB7        0.0000 
     92 DU        -28.7800   34.1400  121.4300 H         7 CUB7        0.0000 
     93 DU        -26.5000   29.2400  121.3400 H         7 CUB7        0.0000 
     94 DU        -26.5400   28.2800  122.5000 H         7 CUB7        0.0000 
     95 DU        -27.5100   34.7200  121.9700 H         7 CUB7        0.0000 
     96 DU        -26.1000   28.9000  124.9800 H         7 CUB7        0.0000 
@<TRIPOS>BOND
@<TRIPOS>SUBSTRUCTURE
     1 SER1        1 GROUP   
     2 ALA2       14 GROUP   
     3 ASP3       19 GROUP   
     4 LYS4       37 GROUP   
     5 PHE5       38 GROUP   
     6 GLY6       70 GROUP   
     7 CUB7       88 GROUP   
@<TRIPOS>SET

