#    Name: 5yd2_1_PLP
#    Modification time : Fri May 22 19:18:03 2020

@<TRIPOS>MOLECULE
5yd2_1_PLP
   16    16     1     0     0
SMALL
NO_CHARGES


@<TRIPOS>ATOM
      1 N1        -24.5180   27.7900  113.3320 N.ar      1 PLP402      0.0000 
      2 C2        -24.1230   28.8410  114.1170 C.ar      1 PLP402      0.0000 
      3 C2A       -22.8490   29.5720  113.8050 C.3       1 PLP402      0.0000 
      4 C3        -24.9740   29.2810  115.2330 C.ar      1 PLP402      0.0000 
      5 O3        -24.6970   30.3410  116.0540 O.3       1 PLP402      0.0000 
      6 C4        -26.2050   28.5170  115.4460 C.ar      1 PLP402      0.0000 
      7 C4A       -27.0780   28.9260  116.5420 C.2       1 PLP402      0.0000 
      8 O4A       -26.7140   29.9140  117.1590 O.2       1 PLP402      0.0000 
      9 C5        -26.4910   27.3980  114.5380 C.ar      1 PLP402      0.0000 
     10 C6        -25.6160   27.0830  113.5220 C.ar      1 PLP402      0.0000 
     11 C5A       -27.7280   26.5820  114.7380 C.3       1 PLP402      0.0000 
     12 O4P       -28.7760   27.3060  114.1270 O.3       1 PLP402      0.0000 
     13 P         -30.2510   26.8170  114.4210 P.3       1 PLP402      0.0000 
     14 O1P       -30.9360   27.9600  113.6260 O.co2     1 PLP402      0.0000 
     15 O2P       -30.4820   26.9840  115.9000 O.co2     1 PLP402      0.0000 
     16 O3P       -30.2320   25.3450  114.0160 O.co2     1 PLP402      0.0000 
@<TRIPOS>BOND
     1    1    2 ar   
     2    1   10 ar   
     3    2    3 1    
     4    2    4 ar   
     5    4    5 1    
     6    4    6 ar   
     7    6    7 1    
     8    6    9 ar   
     9    7    8 2    
    10    9   10 ar   
    11    9   11 1    
    12   11   12 1    
    13   12   13 1    
    14   13   14 ar   
    15   13   15 ar   
    16   13   16 ar   
@<TRIPOS>SUBSTRUCTURE
     1 PLP402      1 GROUP   
@<TRIPOS>SET

