#    Name: 5yd2_2_PLP_CAVITY_N1_6
#    Modification time : Fri May 22 19:18:11 2020

@<TRIPOS>MOLECULE
5yd2_2_PLP_CAVITY_N1_6
   63     0     6     0     0
SMALL
NO_CHARGES


@<TRIPOS>ATOM
      1 OG        -55.2900   27.6200  103.3200 O.3       1 SER1        0.0000 
      2 OG        -55.3300   26.6700  104.4700 O.3       1 SER1        0.0000 
      3 OG        -52.3900   27.1800  101.1000 O.3       1 SER1        0.0000 
      4 OG        -51.6000   26.1800  100.3000 O.3       1 SER1        0.0000 
      5 OG        -50.3700   25.8100  101.9900 O.3       1 SER1        0.0000 
      6 OG        -50.4100   24.8500  103.1400 O.3       1 SER1        0.0000 
      7 OG        -49.5800   24.8100  101.1900 O.3       1 SER1        0.0000 
      8 OG        -49.6200   23.8500  102.3400 O.3       1 SER1        0.0000 
      9 OG        -49.6600   22.9000  103.5000 O.3       1 SER1        0.0000 
     10 OG        -49.7500   20.9800  105.8000 O.3       1 SER1        0.0000 
     11 OG        -49.2200   23.5200  105.9800 O.3       1 SER1        0.0000 
     12 OG        -48.4300   22.5200  105.1800 O.3       1 SER1        0.0000 
     13 OG        -47.6000   22.4900  103.2300 O.3       1 SER1        0.0000 
     14 OG        -47.1600   23.1100  105.7200 O.3       1 SER1        0.0000 
     15 N         -54.0100   28.2100  103.8500 N.am      2 ALA2        0.0000 
     16 O         -53.1800   28.1700  101.9000 O.2       2 ALA2        0.0000 
     17 O         -47.5600   23.4400  102.0800 O.2       2 ALA2        0.0000 
     18 OD1       -55.7300   27.0000  100.8300 O.co2     3 ASP3        0.0000 
     19 OD1       -55.7700   26.0500  101.9900 O.co2     3 ASP3        0.0000 
     20 OD1       -54.9400   26.0100  100.0400 O.co2     3 ASP3        0.0000 
     21 OD1       -54.9800   25.0500  101.1900 O.co2     3 ASP3        0.0000 
     22 OD1       -54.1500   25.0100   99.2400 O.co2     3 ASP3        0.0000 
     23 OD1       -54.1900   24.0600  100.3900 O.co2     3 ASP3        0.0000 
     24 OD1       -54.5000   26.6300  102.5200 O.co2     3 ASP3        0.0000 
     25 OD1       -53.6600   26.5900  100.5700 O.co2     3 ASP3        0.0000 
     26 OD1       -53.7100   25.6300  101.7200 O.co2     3 ASP3        0.0000 
     27 OD1       -52.9200   24.6400  100.9200 O.co2     3 ASP3        0.0000 
     28 OD1       -52.9600   23.6800  102.0800 O.co2     3 ASP3        0.0000 
     29 OD1       -52.0400   25.5600   97.8200 O.co2     3 ASP3        0.0000 
     30 OD1       -53.2200   27.2100  103.0500 O.co2     3 ASP3        0.0000 
     31 OD1       -52.4300   26.2200  102.2500 O.co2     3 ASP3        0.0000 
     32 OD1       -51.6400   25.2200  101.4600 O.co2     3 ASP3        0.0000 
     33 OD1       -50.8100   25.1900   99.5100 O.co2     3 ASP3        0.0000 
     34 OD1       -50.4500   23.8900  104.3000 O.co2     3 ASP3        0.0000 
     35 OD1       -49.5400   25.7700  100.0400 O.co2     3 ASP3        0.0000 
     36 OD1       -47.9600   23.7800   98.4400 O.co2     3 ASP3        0.0000 
     37 CZ        -53.4000   23.0600   99.5900 C.ar      4 PHE5        0.0000 
     38 CZ        -52.0800   24.6000   98.9700 C.ar      4 PHE5        0.0000 
     39 CZ        -52.1300   23.6500  100.1300 C.ar      4 PHE5        0.0000 
     40 CZ        -51.2900   23.6100   98.1700 C.ar      4 PHE5        0.0000 
     41 CZ        -50.5000   22.6100   97.3800 C.ar      4 PHE5        0.0000 
     42 CZ        -50.9000   23.2700  101.8100 C.ar      4 PHE5        0.0000 
     43 CZ        -50.9400   22.3100  102.9600 C.ar      4 PHE5        0.0000 
     44 CZ        -50.0200   24.1900   98.7100 C.ar      4 PHE5        0.0000 
     45 CZ        -50.1900   20.3600  103.3200 C.ar      4 PHE5        0.0000 
     46 CZ        -49.2300   23.2000   97.9100 C.ar      4 PHE5        0.0000 
     47 CZ        -48.7900   23.8200  100.3900 C.ar      4 PHE5        0.0000 
     48 CZ        -48.8300   22.8600  101.5500 C.ar      4 PHE5        0.0000 
     49 CZ        -48.8700   21.9000  102.7000 C.ar      4 PHE5        0.0000 
     50 CZ        -48.1300   19.9500  103.0500 C.ar      4 PHE5        0.0000 
     51 CA        -54.6300   23.4400   97.9100 C.3       5 GLY6        0.0000 
     52 CA        -53.3600   24.0200   98.4400 C.3       5 GLY6        0.0000 
     53 CA        -52.5700   23.0300   97.6400 C.3       5 GLY6        0.0000 
     54 CA        -52.8300   26.5600   98.6200 C.3       5 GLY6        0.0000 
     55 CA        -52.3500   28.1400   99.9500 C.3       5 GLY6        0.0000 
     56 CA        -51.5600   27.1400   99.1500 C.3       5 GLY6        0.0000 
     57 CA        -50.9800   21.3500  104.1200 C.3       5 GLY6        0.0000 
     58 CA        -49.7100   21.9400  104.6500 C.3       5 GLY6        0.0000 
     59 CA        -48.9200   20.9400  103.8500 C.3       5 GLY6        0.0000 
     60 CA        -48.4800   21.5600  106.3400 C.3       5 GLY6        0.0000 
     61 CA        -47.6400   21.5300  104.3900 C.3       5 GLY6        0.0000 
     62 DU        -54.4500   27.5900  101.3700 H         6 CUB7        0.0000 
     63 DU        -52.8700   25.6000   99.7700 H         6 CUB7        0.0000 
@<TRIPOS>BOND
@<TRIPOS>SUBSTRUCTURE
     1 SER1        1 GROUP   
     2 ALA2       15 GROUP   
     3 ASP3       18 GROUP   
     4 PHE5       37 GROUP   
     5 GLY6       51 GROUP   
     6 CUB7       62 GROUP   
@<TRIPOS>SET

