#    Name: 5yd2_1_PLP_CAVITY_N1_4
#    Modification time : Fri May 22 19:18:03 2020

@<TRIPOS>MOLECULE
5yd2_1_PLP_CAVITY_N1_4
   39     0     7     0     0
SMALL
NO_CHARGES


@<TRIPOS>ATOM
      1 OG        -29.9300   26.8300  115.3100 O.3       1 SER1        0.0000 
      2 OG        -29.1400   25.8300  114.5100 O.3       1 SER1        0.0000 
      3 OG        -29.1800   24.8800  115.6600 O.3       1 SER1        0.0000 
      4 OG        -29.4900   27.4500  117.7900 O.3       1 SER1        0.0000 
      5 OG        -29.5300   26.4900  118.9500 O.3       1 SER1        0.0000 
      6 OG        -28.6500   27.4100  115.8400 O.3       1 SER1        0.0000 
      7 OG        -26.5000   28.9200  113.2700 O.3       1 SER1        0.0000 
      8 OG        -23.9500   30.0900  114.3400 O.3       1 SER1        0.0000 
      9 O         -28.6100   28.3700  114.6900 O.2       2 ALA2        0.0000 
     10 O         -29.0000   29.0300  119.1300 O.2       2 ALA2        0.0000 
     11 O         -28.1700   28.9900  117.1700 O.2       2 ALA2        0.0000 
     12 OD1       -27.3400   28.9600  115.2200 O.co2     3 ASP3        0.0000 
     13 OD1       -28.4700   31.5700  119.3000 O.co2     3 ASP3        0.0000 
     14 OD1       -27.6800   30.5700  118.5100 O.co2     3 ASP3        0.0000 
     15 OD1       -26.8900   29.5800  117.7100 O.co2     3 ASP3        0.0000 
     16 OD1       -26.0200   30.5000  114.6000 O.co2     3 ASP3        0.0000 
     17 OD1       -26.0600   29.5400  115.7600 O.co2     3 ASP3        0.0000 
     18 NZ        -24.4400   28.5100  113.0100 N.4       4 LYS4        0.0000 
     19 CZ        -28.7000   26.4500  117.0000 C.ar      5 PHE5        0.0000 
     20 CZ        -28.7400   25.5000  118.1500 C.ar      5 PHE5        0.0000 
     21 CZ        -27.8600   26.4200  115.0500 C.ar      5 PHE5        0.0000 
     22 CZ        -27.9100   25.4600  116.2000 C.ar      5 PHE5        0.0000 
     23 CZ        -27.0700   25.4200  114.2500 C.ar      5 PHE5        0.0000 
     24 CZ        -28.2100   28.0300  118.3300 C.ar      5 PHE5        0.0000 
     25 CZ        -28.2600   27.0700  119.4800 C.ar      5 PHE5        0.0000 
     26 CZ        -27.3800   28.0000  116.3800 C.ar      5 PHE5        0.0000 
     27 CZ        -26.5900   27.0000  115.5800 C.ar      5 PHE5        0.0000 
     28 CZ        -25.7600   26.9700  113.6300 C.ar      5 PHE5        0.0000 
     29 CZ        -28.5200   30.6100  120.4600 C.ar      5 PHE5        0.0000 
     30 CZ        -26.9400   28.6200  118.8600 C.ar      5 PHE5        0.0000 
     31 CZ        -26.9800   27.6600  120.0100 C.ar      5 PHE5        0.0000 
     32 CZ        -26.1100   28.5800  116.9100 C.ar      5 PHE5        0.0000 
     33 CZ        -25.2700   28.5500  114.9600 C.ar      5 PHE5        0.0000 
     34 CZ        -24.4800   27.5500  114.1600 C.ar      5 PHE5        0.0000 
     35 CZ        -24.0000   29.1300  115.4900 C.ar      5 PHE5        0.0000 
     36 CA        -29.9700   25.8700  116.4600 C.3       6 GLY6        0.0000 
     37 CA        -27.8200   27.3800  113.8900 C.3       6 GLY6        0.0000 
     38 CA        -26.5500   27.9600  114.4300 C.3       6 GLY6        0.0000 
     39 DU        -27.7300   29.6100  119.6600 H         7 CUB7        0.0000 
@<TRIPOS>BOND
@<TRIPOS>SUBSTRUCTURE
     1 SER1        1 GROUP   
     2 ALA2        9 GROUP   
     3 ASP3       12 GROUP   
     4 LYS4       18 GROUP   
     5 PHE5       19 GROUP   
     6 GLY6       36 GROUP   
     7 CUB7       39 GROUP   
@<TRIPOS>SET

