#    Name: 5yd2_2_PLP
#    Modification time : Fri May 22 19:18:10 2020

@<TRIPOS>MOLECULE
5yd2_2_PLP
   16    16     1     0     0
SMALL
NO_CHARGES


@<TRIPOS>ATOM
      1 N1        -51.1210   18.2090  104.3670 N.ar      1 PLP402      0.0000 
      2 C2        -52.3020   18.8630  104.3140 C.ar      1 PLP402      0.0000 
      3 C2A       -53.5470   18.0940  104.6420 C.3       1 PLP402      0.0000 
      4 C3        -52.3440   20.3170  103.9670 C.ar      1 PLP402      0.0000 
      5 O3        -53.5260   20.9980  103.9140 O.3       1 PLP402      0.0000 
      6 C4        -51.0540   21.0000  103.6780 C.ar      1 PLP402      0.0000 
      7 C4A       -50.9380   22.4170  103.2770 C.2       1 PLP402      0.0000 
      8 O4A       -51.9450   23.0780  103.0790 O.2       1 PLP402      0.0000 
      9 C5        -49.8470   20.1620  103.7500 C.ar      1 PLP402      0.0000 
     10 C6        -49.9500   18.8060  104.0980 C.ar      1 PLP402      0.0000 
     11 C5A       -48.5030   20.7820  103.4480 C.3       1 PLP402      0.0000 
     12 O4P       -48.2060   21.7680  104.4360 O.3       1 PLP402      0.0000 
     13 P         -46.7810   22.5410  104.4940 P.3       1 PLP402      0.0000 
     14 O1P       -46.9080   23.7690  103.6100 O.co2     1 PLP402      0.0000 
     15 O2P       -45.7010   21.5880  103.9900 O.co2     1 PLP402      0.0000 
     16 O3P       -46.8720   22.8110  105.9970 O.co2     1 PLP402      0.0000 
@<TRIPOS>BOND
     1    1    2 ar   
     2    1   10 ar   
     3    2    3 1    
     4    2    4 ar   
     5    4    5 1    
     6    4    6 ar   
     7    6    7 1    
     8    6    9 ar   
     9    7    8 2    
    10    9   10 ar   
    11    9   11 1    
    12   11   12 1    
    13   12   13 1    
    14   13   14 ar   
    15   13   15 ar   
    16   13   16 ar   
@<TRIPOS>SUBSTRUCTURE
     1 PLP402      1 GROUP   
@<TRIPOS>SET

