#    Name: 5yd2_2_PLP_CAVITY_N1_8
#    Modification time : Fri May 22 19:18:11 2020

@<TRIPOS>MOLECULE
5yd2_2_PLP_CAVITY_N1_8
  103     0     6     0     0
SMALL
NO_CHARGES


@<TRIPOS>ATOM
      1 OG        -56.5600   27.0400  102.7800 O.3       1 SER1        0.0000 
      2 OG        -55.2000   29.5400  101.0100 O.3       1 SER1        0.0000 
      3 OG        -55.2900   27.6200  103.3200 O.3       1 SER1        0.0000 
      4 OG        -55.3300   26.6700  104.4700 O.3       1 SER1        0.0000 
      5 OG        -54.3700   29.5100   99.0600 O.3       1 SER1        0.0000 
      6 OG        -54.4100   28.5500  100.2100 O.3       1 SER1        0.0000 
      7 OG        -49.6700   22.5800   95.4300 O.3       1 SER1        0.0000 
      8 OG        -52.3900   27.1800  101.1000 O.3       1 SER1        0.0000 
      9 OG        -51.6000   26.1800  100.3000 O.3       1 SER1        0.0000 
     10 OG        -50.3700   25.8100  101.9900 O.3       1 SER1        0.0000 
     11 OG        -50.4100   24.8500  103.1400 O.3       1 SER1        0.0000 
     12 OG        -49.5800   24.8100  101.1900 O.3       1 SER1        0.0000 
     13 OG        -49.6200   23.8500  102.3400 O.3       1 SER1        0.0000 
     14 OG        -49.6600   22.9000  103.5000 O.3       1 SER1        0.0000 
     15 OG        -49.7500   20.9800  105.8000 O.3       1 SER1        0.0000 
     16 OG        -49.2200   23.5200  105.9800 O.3       1 SER1        0.0000 
     17 OG        -48.4300   22.5200  105.1800 O.3       1 SER1        0.0000 
     18 OG        -47.6000   22.4900  103.2300 O.3       1 SER1        0.0000 
     19 OG        -47.1600   23.1100  105.7200 O.3       1 SER1        0.0000 
     20 O         -54.7600   30.1600  103.5000 O.2       2 ALA2        0.0000 
     21 N         -54.8000   29.2000  104.6500 N.am      2 ALA2        0.0000 
     22 O         -53.9700   29.1700  102.7000 O.2       2 ALA2        0.0000 
     23 N         -54.0100   28.2100  103.8500 N.am      2 ALA2        0.0000 
     24 O         -53.1800   28.1700  101.9000 O.2       2 ALA2        0.0000 
     25 N         -47.1200   23.7500   96.4900 N.am      2 ALA2        0.0000 
     26 N         -47.1700   22.7900   97.6500 N.am      2 ALA2        0.0000 
     27 O         -47.5600   23.4400  102.0800 O.2       2 ALA2        0.0000 
     28 OD1       -57.7900   27.4100  101.1000 O.co2     3 ASP3        0.0000 
     29 OD1       -56.4800   28.9600  100.4800 O.co2     3 ASP3        0.0000 
     30 OD1       -56.5200   28.0000  101.6300 O.co2     3 ASP3        0.0000 
     31 OD1       -55.6900   27.9600   99.6800 O.co2     3 ASP3        0.0000 
     32 OD1       -55.7300   27.0000  100.8300 O.co2     3 ASP3        0.0000 
     33 OD1       -55.7700   26.0500  101.9900 O.co2     3 ASP3        0.0000 
     34 OD1       -54.8500   27.9300   97.7300 O.co2     3 ASP3        0.0000 
     35 OD1       -54.9400   26.0100  100.0400 O.co2     3 ASP3        0.0000 
     36 OD1       -54.9800   25.0500  101.1900 O.co2     3 ASP3        0.0000 
     37 OD1       -54.0600   26.9300   96.9300 O.co2     3 ASP3        0.0000 
     38 OD1       -54.1100   25.9700   98.0800 O.co2     3 ASP3        0.0000 
     39 OD1       -54.1500   25.0100   99.2400 O.co2     3 ASP3        0.0000 
     40 OD1       -54.1900   24.0600  100.3900 O.co2     3 ASP3        0.0000 
     41 OD1       -54.5000   26.6300  102.5200 O.co2     3 ASP3        0.0000 
     42 OD1       -53.6600   26.5900  100.5700 O.co2     3 ASP3        0.0000 
     43 OD1       -53.7100   25.6300  101.7200 O.co2     3 ASP3        0.0000 
     44 OD1       -52.9200   24.6400  100.9200 O.co2     3 ASP3        0.0000 
     45 OD1       -52.9600   23.6800  102.0800 O.co2     3 ASP3        0.0000 
     46 OD1       -52.0400   25.5600   97.8200 O.co2     3 ASP3        0.0000 
     47 OD1       -51.2100   25.5300   95.8700 O.co2     3 ASP3        0.0000 
     48 OD1       -51.2500   24.5700   97.0200 O.co2     3 ASP3        0.0000 
     49 OD1       -49.7200   21.6200   96.5800 O.co2     3 ASP3        0.0000 
     50 OD1       -53.2200   27.2100  103.0500 O.co2     3 ASP3        0.0000 
     51 OD1       -52.4300   26.2200  102.2500 O.co2     3 ASP3        0.0000 
     52 OD1       -51.6400   25.2200  101.4600 O.co2     3 ASP3        0.0000 
     53 OD1       -50.8100   25.1900   99.5100 O.co2     3 ASP3        0.0000 
     54 OD1       -49.9800   25.1500   97.5600 O.co2     3 ASP3        0.0000 
     55 OD1       -49.1900   24.1600   96.7600 O.co2     3 ASP3        0.0000 
     56 OD1       -48.4000   23.1600   95.9600 O.co2     3 ASP3        0.0000 
     57 OD1       -48.4400   22.2000   97.1100 O.co2     3 ASP3        0.0000 
     58 OD1       -50.4500   23.8900  104.3000 O.co2     3 ASP3        0.0000 
     59 OD1       -49.5400   25.7700  100.0400 O.co2     3 ASP3        0.0000 
     60 OD1       -47.9600   23.7800   98.4400 O.co2     3 ASP3        0.0000 
     61 CZ        -57.3500   28.0300  103.5800 C.ar      4 PHE5        0.0000 
     62 CZ        -53.2700   25.9400   96.1300 C.ar      4 PHE5        0.0000 
     63 CZ        -53.3200   24.9800   97.2900 C.ar      4 PHE5        0.0000 
     64 CZ        -53.4000   23.0600   99.5900 C.ar      4 PHE5        0.0000 
     65 CZ        -52.5300   23.9800   96.4900 C.ar      4 PHE5        0.0000 
     66 CZ        -51.7400   22.9900   95.6900 C.ar      4 PHE5        0.0000 
     67 CZ        -56.0800   28.6200  104.1200 C.ar      4 PHE5        0.0000 
     68 CZ        -52.0800   24.6000   98.9700 C.ar      4 PHE5        0.0000 
     69 CZ        -52.1300   23.6500  100.1300 C.ar      4 PHE5        0.0000 
     70 CZ        -51.2900   23.6100   98.1700 C.ar      4 PHE5        0.0000 
     71 CZ        -50.4600   23.5700   96.2200 C.ar      4 PHE5        0.0000 
     72 CZ        -50.5000   22.6100   97.3800 C.ar      4 PHE5        0.0000 
     73 CZ        -50.9000   23.2700  101.8100 C.ar      4 PHE5        0.0000 
     74 CZ        -50.9400   22.3100  102.9600 C.ar      4 PHE5        0.0000 
     75 CZ        -50.0200   24.1900   98.7100 C.ar      4 PHE5        0.0000 
     76 CZ        -50.1900   20.3600  103.3200 C.ar      4 PHE5        0.0000 
     77 CZ        -49.2300   23.2000   97.9100 C.ar      4 PHE5        0.0000 
     78 CZ        -48.7900   23.8200  100.3900 C.ar      4 PHE5        0.0000 
     79 CZ        -48.8300   22.8600  101.5500 C.ar      4 PHE5        0.0000 
     80 CZ        -48.8700   21.9000  102.7000 C.ar      4 PHE5        0.0000 
     81 CZ        -48.1300   19.9500  103.0500 C.ar      4 PHE5        0.0000 
     82 CA        -54.5900   24.3900   96.7500 C.3       5 GLY6        0.0000 
     83 CA        -54.6300   23.4400   97.9100 C.3       5 GLY6        0.0000 
     84 CA        -53.3600   24.0200   98.4400 C.3       5 GLY6        0.0000 
     85 CA        -52.5700   23.0300   97.6400 C.3       5 GLY6        0.0000 
     86 CA        -51.7800   22.0300   96.8400 C.3       5 GLY6        0.0000 
     87 CA        -50.9900   21.0400   96.0500 C.3       5 GLY6        0.0000 
     88 CA        -53.5800   28.5100   98.2600 C.3       5 GLY6        0.0000 
     89 CA        -53.6200   27.5500   99.4200 C.3       5 GLY6        0.0000 
     90 CA        -52.7900   27.5200   97.4700 C.3       5 GLY6        0.0000 
     91 CA        -52.8300   26.5600   98.6200 C.3       5 GLY6        0.0000 
     92 CA        -52.0000   26.5200   96.6700 C.3       5 GLY6        0.0000 
     93 CA        -52.3500   28.1400   99.9500 C.3       5 GLY6        0.0000 
     94 CA        -51.5600   27.1400   99.1500 C.3       5 GLY6        0.0000 
     95 CA        -50.9800   21.3500  104.1200 C.3       5 GLY6        0.0000 
     96 CA        -49.7100   21.9400  104.6500 C.3       5 GLY6        0.0000 
     97 CA        -48.9200   20.9400  103.8500 C.3       5 GLY6        0.0000 
     98 CA        -48.4800   21.5600  106.3400 C.3       5 GLY6        0.0000 
     99 CA        -47.6400   21.5300  104.3900 C.3       5 GLY6        0.0000 
    100 DU        -56.0300   29.5800  102.9600 H         6 CUB7        0.0000 
    101 DU        -55.2400   28.5800  102.1600 H         6 CUB7        0.0000 
    102 DU        -54.4500   27.5900  101.3700 H         6 CUB7        0.0000 
    103 DU        -52.8700   25.6000   99.7700 H         6 CUB7        0.0000 
@<TRIPOS>BOND
@<TRIPOS>SUBSTRUCTURE
     1 SER1        1 GROUP   
     2 ALA2       20 GROUP   
     3 ASP3       28 GROUP   
     4 PHE5       61 GROUP   
     5 GLY6       82 GROUP   
     6 CUB7      100 GROUP   
@<TRIPOS>SET

