#    Name: 5yd2_2_PLP_CAVITY_N1_4
#    Modification time : Fri May 22 19:18:11 2020

@<TRIPOS>MOLECULE
5yd2_2_PLP_CAVITY_N1_4
   32     0     5     0     0
SMALL
NO_CHARGES


@<TRIPOS>ATOM
      1 OG        -50.3700   25.8100  101.9900 O.3       1 SER1        0.0000 
      2 OG        -50.4100   24.8500  103.1400 O.3       1 SER1        0.0000 
      3 OG        -49.5800   24.8100  101.1900 O.3       1 SER1        0.0000 
      4 OG        -49.6200   23.8500  102.3400 O.3       1 SER1        0.0000 
      5 OG        -49.6600   22.9000  103.5000 O.3       1 SER1        0.0000 
      6 OG        -49.7500   20.9800  105.8000 O.3       1 SER1        0.0000 
      7 OG        -49.2200   23.5200  105.9800 O.3       1 SER1        0.0000 
      8 OG        -48.4300   22.5200  105.1800 O.3       1 SER1        0.0000 
      9 OG        -47.6000   22.4900  103.2300 O.3       1 SER1        0.0000 
     10 OG        -47.1600   23.1100  105.7200 O.3       1 SER1        0.0000 
     11 O         -47.5600   23.4400  102.0800 O.2       2 ALA2        0.0000 
     12 OD1       -54.1900   24.0600  100.3900 O.co2     3 ASP3        0.0000 
     13 OD1       -53.7100   25.6300  101.7200 O.co2     3 ASP3        0.0000 
     14 OD1       -52.9200   24.6400  100.9200 O.co2     3 ASP3        0.0000 
     15 OD1       -52.9600   23.6800  102.0800 O.co2     3 ASP3        0.0000 
     16 OD1       -52.4300   26.2200  102.2500 O.co2     3 ASP3        0.0000 
     17 OD1       -51.6400   25.2200  101.4600 O.co2     3 ASP3        0.0000 
     18 OD1       -50.4500   23.8900  104.3000 O.co2     3 ASP3        0.0000 
     19 CZ        -53.4000   23.0600   99.5900 C.ar      4 PHE5        0.0000 
     20 CZ        -52.1300   23.6500  100.1300 C.ar      4 PHE5        0.0000 
     21 CZ        -50.9000   23.2700  101.8100 C.ar      4 PHE5        0.0000 
     22 CZ        -50.9400   22.3100  102.9600 C.ar      4 PHE5        0.0000 
     23 CZ        -50.1900   20.3600  103.3200 C.ar      4 PHE5        0.0000 
     24 CZ        -48.7900   23.8200  100.3900 C.ar      4 PHE5        0.0000 
     25 CZ        -48.8300   22.8600  101.5500 C.ar      4 PHE5        0.0000 
     26 CZ        -48.8700   21.9000  102.7000 C.ar      4 PHE5        0.0000 
     27 CZ        -48.1300   19.9500  103.0500 C.ar      4 PHE5        0.0000 
     28 CA        -50.9800   21.3500  104.1200 C.3       5 GLY6        0.0000 
     29 CA        -49.7100   21.9400  104.6500 C.3       5 GLY6        0.0000 
     30 CA        -48.9200   20.9400  103.8500 C.3       5 GLY6        0.0000 
     31 CA        -48.4800   21.5600  106.3400 C.3       5 GLY6        0.0000 
     32 CA        -47.6400   21.5300  104.3900 C.3       5 GLY6        0.0000 
@<TRIPOS>BOND
@<TRIPOS>SUBSTRUCTURE
     1 SER1        1 GROUP   
     2 ALA2       11 GROUP   
     3 ASP3       12 GROUP   
     4 PHE5       19 GROUP   
     5 GLY6       28 GROUP   
@<TRIPOS>SET

