#    Name: 5nqd_6_MGD
#    Modification time : Fri May 22 19:12:40 2020

@<TRIPOS>MOLECULE
5nqd_6_MGD
   47    52     1     0     0
SMALL
NO_CHARGES


@<TRIPOS>ATOM
      1 PB        -44.3340  -42.9710  -23.3100 P.3       1 MGD2002     0.0000 
      2 O1B       -44.0590  -42.6440  -24.7360 O.co2     1 MGD2002     0.0000 
      3 O2B       -45.5070  -42.3510  -22.6120 O.co2     1 MGD2002     0.0000 
      4 O3B       -42.8850  -42.6860  -22.6300 O.3       1 MGD2002     0.0000 
      5 O3A       -41.9450  -41.5700  -20.5130 O.3       1 MGD2002     0.0000 
      6 PA        -42.3730  -42.9860  -21.1090 P.3       1 MGD2002     0.0000 
      7 O1A       -43.4260  -43.6150  -20.2410 O.co2     1 MGD2002     0.0000 
      8 O2A       -40.9970  -43.5680  -21.3030 O.co2     1 MGD2002     0.0000 
      9 O5'       -44.5590  -44.5320  -23.1600 O.3       1 MGD2002     0.0000 
     10 C5'       -43.4440  -45.4160  -22.9720 C.3       1 MGD2002     0.0000 
     11 C4'       -43.7480  -46.7580  -23.6110 C.3       1 MGD2002     0.0000 
     12 O4'       -44.8810  -47.3710  -22.9700 O.3       1 MGD2002     0.0000 
     13 C3'       -44.0800  -46.6920  -25.0910 C.3       1 MGD2002     0.0000 
     14 O3'       -42.9840  -47.0370  -25.9130 O.3       1 MGD2002     0.0000 
     15 C2'       -45.2500  -47.6270  -25.2500 C.3       1 MGD2002     0.0000 
     16 O2'       -45.2390  -48.5150  -26.3730 O.3       1 MGD2002     0.0000 
     17 C1'       -45.2240  -48.3580  -23.9500 C.3       1 MGD2002     0.0000 
     18 N9        -46.4930  -49.0250  -23.6590 N.pl3     1 MGD2002     0.0000 
     19 C8        -47.7360  -48.7500  -24.1130 C.2       1 MGD2002     0.0000 
     20 N7        -48.6160  -49.5690  -23.5790 N.2       1 MGD2002     0.0000 
     21 C5        -47.9380  -50.4220  -22.7760 C.2       1 MGD2002     0.0000 
     22 C6        -48.2570  -51.5660  -21.9080 C.2       1 MGD2002     0.0000 
     23 O6        -49.4350  -51.9650  -21.7940 O.2       1 MGD2002     0.0000 
     24 N1        -47.2650  -52.1440  -21.2070 N.am      1 MGD2002     0.0000 
     25 C2        -45.9750  -51.7440  -21.3350 C.2       1 MGD2002     0.0000 
     26 N2        -45.0020  -52.3810  -20.6470 N.pl3     1 MGD2002     0.0000 
     27 N3        -45.6120  -50.7010  -22.1110 N.2       1 MGD2002     0.0000 
     28 C4        -46.5420  -50.0460  -22.8210 C.2       1 MGD2002     0.0000 
     29 C10       -42.9620  -40.6850  -20.0850 C.3       1 MGD2002     0.0000 
     30 C11       -42.3280  -39.4370  -19.5160 C.3       1 MGD2002     0.0000 
     31 O11       -41.4810  -38.9120  -20.5030 O.3       1 MGD2002     0.0000 
     32 C12       -43.3230  -38.4350  -19.0320 C.2       1 MGD2002     0.0000 
     33 S12       -44.5560  -38.9630  -18.0210 S.3       1 MGD2002     0.0000 
     34 C13       -43.1890  -37.1440  -19.2730 C.2       1 MGD2002     0.0000 
     35 S13       -44.1940  -35.9630  -18.6140 S.3       1 MGD2002     0.0000 
     36 C14       -42.0140  -36.6530  -20.0500 C.3       1 MGD2002     0.0000 
     37 N15       -42.3940  -36.1410  -21.3480 N.3       1 MGD2002     0.0000 
     38 C16       -41.5800  -36.1990  -22.4060 C.2       1 MGD2002     0.0000 
     39 C17       -41.9630  -35.6240  -23.7120 C.2       1 MGD2002     0.0000 
     40 O17       -43.0870  -35.1000  -23.8840 O.2       1 MGD2002     0.0000 
     41 N18       -41.0860  -35.7410  -24.7270 N.am      1 MGD2002     0.0000 
     42 C19       -39.9040  -36.3720  -24.5950 C.2       1 MGD2002     0.0000 
     43 N19       -39.1060  -36.4670  -25.6790 N.pl3     1 MGD2002     0.0000 
     44 N20       -39.4650  -36.8880  -23.4170 N.2       1 MGD2002     0.0000 
     45 C21       -40.2550  -36.8210  -22.3020 C.2       1 MGD2002     0.0000 
     46 N22       -39.9040  -37.3810  -21.1270 N.pl3     1 MGD2002     0.0000 
     47 C23       -40.8920  -37.6960  -20.1190 C.3       1 MGD2002     0.0000 
@<TRIPOS>BOND
     1    1    2 ar   
     2    1    3 ar   
     3    1    4 1    
     4    1    9 1    
     5    4    6 1    
     6    5    6 1    
     7    5   29 1    
     8    6    7 ar   
     9    6    8 ar   
    10    9   10 1    
    11   10   11 1    
    12   11   12 1    
    13   11   13 1    
    14   12   17 1    
    15   13   14 1    
    16   13   15 1    
    17   15   16 1    
    18   15   17 1    
    19   17   18 1    
    20   18   19 1    
    21   18   28 1    
    22   19   20 2    
    23   20   21 1    
    24   21   22 1    
    25   21   28 2    
    26   22   23 2    
    27   22   24 am   
    28   24   25 1    
    29   25   26 1    
    30   25   27 2    
    31   27   28 1    
    32   29   30 1    
    33   30   31 1    
    34   30   32 1    
    35   31   47 1    
    36   32   33 1    
    37   32   34 2    
    38   34   35 1    
    39   34   36 1    
    40   36   37 1    
    41   36   47 1    
    42   37   38 1    
    43   38   39 1    
    44   38   45 2    
    45   39   40 2    
    46   39   41 am   
    47   41   42 1    
    48   42   43 1    
    49   42   44 2    
    50   44   45 1    
    51   45   46 1    
    52   46   47 1    
@<TRIPOS>SUBSTRUCTURE
     1 MGD2002     1 GROUP   
@<TRIPOS>SET

