#    Name: 6dq4_1_K0I
#    Modification time : Fri May 22 19:33:01 2020

@<TRIPOS>MOLECULE
6dq4_1_K0I
   29    32     1     0     0
SMALL
NO_CHARGES


@<TRIPOS>ATOM
      1 O2        -21.3240   18.5740    8.1470 O.co2     1 K0I601      0.0000 
      2 C1        -22.2720   19.2050    7.6100 C.2       1 K0I601      0.0000 
      3 O1        -23.1130   19.8040    8.3280 O.co2     1 K0I601      0.0000 
      4 C2        -22.4040   19.2450    6.0890 C.3       1 K0I601      0.0000 
      5 C3        -23.8700   19.0260    5.7150 C.3       1 K0I601      0.0000 
      6 N1        -24.0600   19.1920    4.2810 N.pl3     1 K0I601      0.0000 
      7 C4        -24.3460   20.4150    3.7580 C.ar      1 K0I601      0.0000 
      8 N3        -24.2350   20.6080    2.4570 N.ar      1 K0I601      0.0000 
      9 C7        -24.5320   21.8400    1.9770 C.ar      1 K0I601      0.0000 
     10 C8        -24.4090   22.0600    0.5070 C.ar      1 K0I601      0.0000 
     11 N4        -24.2150   20.9630   -0.2630 N.ar      1 K0I601      0.0000 
     12 C12       -24.1030   21.1490   -1.5970 C.ar      1 K0I601      0.0000 
     13 C11       -24.1840   22.4020   -2.1790 C.ar      1 K0I601      0.0000 
     14 C10       -24.3810   23.4870   -1.3900 C.ar      1 K0I601      0.0000 
     15 C9        -24.4950   23.3280   -0.0480 C.ar      1 K0I601      0.0000 
     16 N2        -24.9300   22.8990    2.7280 N.ar      1 K0I601      0.0000 
     17 C6        -25.0350   22.6730    4.0280 C.ar      1 K0I601      0.0000 
     18 C5        -24.7420   21.4270    4.5640 C.ar      1 K0I601      0.0000 
     19 N5        -25.4350   23.7220    4.8200 N.3       1 K0I601      0.0000 
     20 C22       -25.6390   25.0490    4.2600 C.3       1 K0I601      0.0000 
     21 C21       -26.9250   25.1560    3.4330 C.3       1 K0I601      0.0000 
     22 C20       -28.2450   25.0720    4.2080 C.ar      1 K0I601      0.0000 
     23 C15       -28.3200   24.8620    5.6000 C.ar      1 K0I601      0.0000 
     24 C14       -27.0170   24.7090    6.4070 C.3       1 K0I601      0.0000 
     25 C13       -26.2220   23.4820    6.0070 C.3       1 K0I601      0.0000 
     26 C19       -29.4440   25.2070    3.4970 C.ar      1 K0I601      0.0000 
     27 C18       -30.6820   25.1390    4.1180 C.ar      1 K0I601      0.0000 
     28 C17       -30.7510   24.9320    5.4860 C.ar      1 K0I601      0.0000 
     29 C16       -29.5770   24.7940    6.2100 C.ar      1 K0I601      0.0000 
@<TRIPOS>BOND
     1    1    2 ar   
     2    2    3 ar   
     3    2    4 1    
     4    4    5 1    
     5    5    6 1    
     6    6    7 1    
     7    7    8 ar   
     8    7   18 ar   
     9    8    9 ar   
    10    9   10 1    
    11    9   16 ar   
    12   10   11 ar   
    13   10   15 ar   
    14   11   12 ar   
    15   12   13 ar   
    16   13   14 ar   
    17   14   15 ar   
    18   16   17 ar   
    19   17   18 ar   
    20   17   19 1    
    21   19   20 1    
    22   19   25 1    
    23   20   21 1    
    24   21   22 1    
    25   22   23 ar   
    26   22   26 ar   
    27   23   24 1    
    28   23   29 ar   
    29   24   25 1    
    30   26   27 ar   
    31   27   28 ar   
    32   28   29 ar   
@<TRIPOS>SUBSTRUCTURE
     1 K0I601      1 GROUP   
@<TRIPOS>SET

