#    Name: 6dq4_1_K0I_CAVITY_N1_ALL
#    Modification time : Fri May 22 19:33:02 2020

@<TRIPOS>MOLECULE
6dq4_1_K0I_CAVITY_N1_ALL
  104     0     7     0     0
SMALL
NO_CHARGES


@<TRIPOS>ATOM
      1 OG        -29.2000   21.2100    2.2700 O.3       1 SER1        0.0000 
      2 OG        -26.0000   20.9300    0.4800 O.3       1 SER1        0.0000 
      3 OG        -24.3700   21.9000    3.2500 O.3       1 SER1        0.0000 
      4 OG        -24.6000   22.0200    6.5900 O.3       1 SER1        0.0000 
      5 OG        -23.3200   19.3200    6.7800 O.3       1 SER1        0.0000 
      6 N         -31.1800   23.6700    3.3800 N.am      2 ALA2        0.0000 
      7 N         -30.5400   22.3200    3.4800 N.am      2 ALA2        0.0000 
      8 N         -29.8400   22.5600    2.1700 N.am      2 ALA2        0.0000 
      9 N         -29.1400   22.8000    0.8700 N.am      2 ALA2        0.0000 
     10 O         -27.1100   21.9200   -1.6500 O.2       2 ALA2        0.0000 
     11 N         -25.7700   20.8100   -2.8600 N.am      2 ALA2        0.0000 
     12 N         -31.3500   25.3900    5.3300 N.am      2 ALA2        0.0000 
     13 N         -30.7100   24.0400    5.4200 N.am      2 ALA2        0.0000 
     14 O         -30.0700   22.6800    5.5200 O.2       2 ALA2        0.0000 
     15 O         -29.3800   22.9200    4.2100 O.2       2 ALA2        0.0000 
     16 O         -28.7300   21.5700    4.3000 O.2       2 ALA2        0.0000 
     17 O         -29.5500   24.6400    6.1500 O.2       2 ALA2        0.0000 
     18 N         -28.9100   23.2800    6.2500 N.am      2 ALA2        0.0000 
     19 O         -22.6800   17.9600    6.8700 O.2       2 ALA2        0.0000 
     20 O         -21.9800   18.2000    5.5700 O.2       2 ALA2        0.0000 
     21 O         -21.5200   18.5600    7.6100 O.2       2 ALA2        0.0000 
     22 O         -20.8200   18.8000    6.3000 O.2       2 ALA2        0.0000 
     23 OD1       -31.9900   26.7400    5.2300 O.co2     3 ASP3        0.0000 
     24 OD1       -31.3000   26.9800    3.9300 O.co2     3 ASP3        0.0000 
     25 OD1       -30.6600   25.6300    4.0200 O.co2     3 ASP3        0.0000 
     26 OD1       -24.6100   21.4100   -2.1300 O.co2     3 ASP3        0.0000 
     27 OD1       -30.1900   25.9900    6.0600 O.co2     3 ASP3        0.0000 
     28 OD1       -29.4900   26.2300    4.7500 O.co2     3 ASP3        0.0000 
     29 OD1       -28.8500   24.8800    4.8500 O.co2     3 ASP3        0.0000 
     30 OD1       -28.8000   26.4700    3.4400 O.co2     3 ASP3        0.0000 
     31 OD1       -28.1600   25.1200    3.5400 O.co2     3 ASP3        0.0000 
     32 OD1       -25.5400   21.3000    2.5200 O.co2     3 ASP3        0.0000 
     33 OD1       -24.8400   21.5300    1.2100 O.co2     3 ASP3        0.0000 
     34 OD1       -24.1400   21.7700   -0.1000 O.co2     3 ASP3        0.0000 
     35 OD1       -23.4400   22.0100   -1.4000 O.co2     3 ASP3        0.0000 
     36 OD1       -27.6900   25.4800    5.5800 O.co2     3 ASP3        0.0000 
     37 OD1       -26.9900   25.7200    4.2700 O.co2     3 ASP3        0.0000 
     38 OD1       -23.7300   20.5400    3.3400 O.co2     3 ASP3        0.0000 
     39 OD1       -23.6800   22.1400    1.9400 O.co2     3 ASP3        0.0000 
     40 OD1       -22.9800   22.3800    0.6300 O.co2     3 ASP3        0.0000 
     41 NZ        -26.4100   22.1600   -2.9600 N.4       4 LYS4        0.0000 
     42 NZ        -23.9100   21.6500   -3.4400 N.4       4 LYS4        0.0000 
     43 NZ        -25.6500   24.6000    3.0600 N.4       4 LYS4        0.0000 
     44 NZ        -25.0100   23.2500    3.1500 N.4       4 LYS4        0.0000 
     45 NZ        -24.9600   24.8400    1.7500 N.4       4 LYS4        0.0000 
     46 NZ        -24.3200   23.4900    1.8500 N.4       4 LYS4        0.0000 
     47 NZ        -23.8500   23.8500    3.8800 N.4       4 LYS4        0.0000 
     48 CZ        -28.5000   21.4400    0.9600 C.ar      5 PHE5        0.0000 
     49 CZ        -27.8100   21.6800   -0.3500 C.ar      5 PHE5        0.0000 
     50 CZ        -27.4000   20.4500    3.0900 C.ar      5 PHE5        0.0000 
     51 CZ        -27.3400   22.0500    1.6900 C.ar      5 PHE5        0.0000 
     52 CZ        -26.7000   20.6900    1.7900 C.ar      5 PHE5        0.0000 
     53 CZ        -26.6400   22.2900    0.3800 C.ar      5 PHE5        0.0000 
     54 CZ        -25.3000   21.1700   -0.8300 C.ar      5 PHE5        0.0000 
     55 CZ        -25.5900   19.7000    3.9200 C.ar      5 PHE5        0.0000 
     56 CZ        -27.0500   24.1300    5.6700 C.ar      5 PHE5        0.0000 
     57 CZ        -24.4900   18.7100    6.0500 C.ar      5 PHE5        0.0000 
     58 CZ        -23.7900   18.9500    4.7400 C.ar      5 PHE5        0.0000 
     59 CZ        -24.5500   23.6100    5.1900 C.ar      5 PHE5        0.0000 
     60 CZ        -23.2700   20.9100    5.3800 C.ar      5 PHE5        0.0000 
     61 CZ        -22.6200   19.5500    5.4700 C.ar      5 PHE5        0.0000 
     62 CZ        -22.1600   19.9200    7.5100 C.ar      5 PHE5        0.0000 
     63 CZ        -21.4600   20.1600    6.2000 C.ar      5 PHE5        0.0000 
     64 CA        -30.4800   23.9100    2.0800 C.3       6 GLY6        0.0000 
     65 CA        -29.9600   25.8700    2.7100 C.3       6 GLY6        0.0000 
     66 CA        -29.3200   24.5100    2.8100 C.3       6 GLY6        0.0000 
     67 CA        -28.6200   24.7500    1.5000 C.3       6 GLY6        0.0000 
     68 CA        -27.9200   24.9900    0.2000 C.3       6 GLY6        0.0000 
     69 CA        -27.5700   22.1700    5.0300 C.3       6 GLY6        0.0000 
     70 CA        -26.8700   22.4100    3.7300 C.3       6 GLY6        0.0000 
     71 CA        -26.2300   21.0600    3.8200 C.3       6 GLY6        0.0000 
     72 CA        -28.3900   25.2400    6.8800 C.3       6 GLY6        0.0000 
     73 CA        -26.4100   22.7700    5.7700 C.3       6 GLY6        0.0000 
     74 CA        -25.7700   21.4200    5.8600 C.3       6 GLY6        0.0000 
     75 CA        -25.1300   20.0700    5.9500 C.3       6 GLY6        0.0000 
     76 CA        -25.0700   21.6600    4.5500 C.3       6 GLY6        0.0000 
     77 CA        -24.4300   20.3100    4.6500 C.3       6 GLY6        0.0000 
     78 CA        -26.5300   26.0800    6.3100 C.3       6 GLY6        0.0000 
     79 CA        -25.8900   24.7300    6.4000 C.3       6 GLY6        0.0000 
     80 CA        -25.2400   23.3700    6.5000 C.3       6 GLY6        0.0000 
     81 CA        -25.1900   24.9700    5.1000 C.3       6 GLY6        0.0000 
     82 DU        -28.4500   23.0400   -0.4400 H         7 CUB7        0.0000 
     83 DU        -30.0200   24.2700    4.1100 H         7 CUB7        0.0000 
     84 DU        -28.6800   23.1600    2.9000 H         7 CUB7        0.0000 
     85 DU        -28.0400   21.8100    3.0000 H         7 CUB7        0.0000 
     86 DU        -27.9800   23.4000    1.6000 H         7 CUB7        0.0000 
     87 DU        -27.2800   23.6400    0.2900 H         7 CUB7        0.0000 
     88 DU        -25.9500   22.5200   -0.9200 H         7 CUB7        0.0000 
     89 DU        -25.8900   24.1200   -2.3200 H         7 CUB7        0.0000 
     90 DU        -25.2500   22.7600   -2.2300 H         7 CUB7        0.0000 
     91 DU        -28.2100   23.5200    4.9400 H         7 CUB7        0.0000 
     92 DU        -27.5100   23.7600    3.6300 H         7 CUB7        0.0000 
     93 DU        -27.4600   25.3500    2.2300 H         7 CUB7        0.0000 
     94 DU        -26.8200   24.0000    2.3300 H         7 CUB7        0.0000 
     95 DU        -26.1800   22.6500    2.4200 H         7 CUB7        0.0000 
     96 DU        -26.7600   25.5900    0.9300 H         7 CUB7        0.0000 
     97 DU        -26.1200   24.2400    1.0200 H         7 CUB7        0.0000 
     98 DU        -25.4800   22.8900    1.1200 H         7 CUB7        0.0000 
     99 DU        -25.4200   24.4800   -0.2900 H         7 CUB7        0.0000 
    100 DU        -24.7800   23.1300   -0.1900 H         7 CUB7        0.0000 
    101 DU        -24.0900   23.3700   -1.5000 H         7 CUB7        0.0000 
    102 DU        -26.3500   24.3600    4.3600 H         7 CUB7        0.0000 
    103 DU        -25.7100   23.0100    4.4600 H         7 CUB7        0.0000 
    104 DU        -23.6200   23.7300    0.5400 H         7 CUB7        0.0000 
@<TRIPOS>BOND
@<TRIPOS>SUBSTRUCTURE
     1 SER1        1 GROUP   
     2 ALA2        6 GROUP   
     3 ASP3       23 GROUP   
     4 LYS4       41 GROUP   
     5 PHE5       48 GROUP   
     6 GLY6       64 GROUP   
     7 CUB7       82 GROUP   
@<TRIPOS>SET

