#    Name: 5zw8_1_FAD
#    Modification time : Fri May 22 19:26:54 2020

@<TRIPOS>MOLECULE
5zw8_1_FAD
   53    58     1     0     1
SMALL
NO_CHARGES


@<TRIPOS>ATOM
      1 PA          2.4470   19.1160   14.5930 P.3       1 FAD501      0.0000 
      2 O1A         1.2110   19.7540   15.1870 O.co2     1 FAD501      0.0000 
      3 O2A         3.5270   19.8990   14.0220 O.co2     1 FAD501      0.0000 
      4 O5B         2.0070   18.0190   13.4020 O.3       1 FAD501      0.0000 
      5 C5B         0.6440   17.5760   13.3520 C.3       1 FAD501      0.0000 
      6 C4B         0.5040   16.9800   11.8760 C.3       1 FAD501      0.0000 
      7 O4B         0.6460   17.9890   10.9830 O.3       1 FAD501      0.0000 
      8 C3B         1.5660   15.9320   11.6040 C.3       1 FAD501      0.0000 
      9 O3B         1.0440   14.9020   10.7180 O.3       1 FAD501      0.0000 
     10 C2B         2.5700   16.8190   10.8090 C.3       1 FAD501      0.0000 
     11 O2B         3.4290   15.9700    9.9660 O.3       1 FAD501      0.0000 
     12 C1B         1.7010   17.5670   10.0140 C.3       1 FAD501      0.0000 
     13 N9A         2.2880   18.8020    9.4890 N.pl3     1 FAD501      0.0000 
     14 C8A         2.7340   19.9390   10.1870 C.2       1 FAD501      0.0000 
     15 N7A         3.3150   20.7610    9.3300 N.2       1 FAD501      0.0000 
     16 C5A         3.1940   20.1730    8.0910 C.ar      1 FAD501      0.0000 
     17 C6A         3.6140   20.6110    6.8800 C.ar      1 FAD501      0.0000 
     18 N6A         4.2810   21.8210    6.5140 N.pl3     1 FAD501      0.0000 
     19 N1A         3.4220   19.8390    5.7820 N.ar      1 FAD501      0.0000 
     20 C2A         2.8060   18.6320    5.9210 C.ar      1 FAD501      0.0000 
     21 N3A         2.3860   18.2150    7.1140 N.ar      1 FAD501      0.0000 
     22 C4A         2.5730   18.9900    8.1890 C.ar      1 FAD501      0.0000 
     23 N1         10.7930   18.1990   21.3950 N.2       1 FAD501      0.0000 
     24 C2         11.9010   18.8760   22.0630 C.2       1 FAD501      0.0000 
     25 O2         12.0250   20.0550   21.9460 O.2       1 FAD501      0.0000 
     26 N3         12.8300   18.0550   22.8970 N.am      1 FAD501      0.0000 
     27 C4         12.6750   16.6620   23.1110 C.2       1 FAD501      0.0000 
     28 O4         13.3660   16.0050   23.8580 O.2       1 FAD501      0.0000 
     29 C4X        11.5450   16.0320   22.3460 C.2       1 FAD501      0.0000 
     30 N5         11.3840   14.6770   22.5230 N.2       1 FAD501      0.0000 
     31 C5X        10.2790   13.9780   21.8670 C.ar      1 FAD501      0.0000 
     32 C6         10.1390   12.5950   22.0530 C.ar      1 FAD501      0.0000 
     33 C7          9.0430   12.0030   21.4010 C.ar      1 FAD501      0.0000 
     34 C7M         8.9190   10.4810   21.6010 C.3       1 FAD501      0.0000 
     35 C8          8.2150   12.7780   20.5750 C.ar      1 FAD501      0.0000 
     36 C8M         7.0000   12.0580   19.7990 C.3       1 FAD501      0.0000 
     37 C9          8.3580   14.1120   20.3890 C.ar      1 FAD501      0.0000 
     38 C9A         9.4290   14.7410   21.0370 C.ar      1 FAD501      0.0000 
     39 N10         9.5880   16.1860   20.8440 N.pl3     1 FAD501      0.0000 
     40 C10        10.6560   16.8170   21.5090 C.2       1 FAD501      0.0000 
     41 C1'         8.5840   16.9310   20.0620 C.3       1 FAD501      0.0000 
     42 C2'         8.7350   16.8000   18.5510 C.3       1 FAD501      0.0000 
     43 O2'         9.7150   17.7180   18.2090 O.3       1 FAD501      0.0000 
     44 C3'         7.3850   17.2310   17.9440 C.3       1 FAD501      0.0000 
     45 O3'         6.3860   16.3360   18.4180 O.3       1 FAD501      0.0000 
     46 C4'         7.4970   17.1160   16.4530 C.3       1 FAD501      0.0000 
     47 O4'         8.3440   18.1200   15.9340 O.3       1 FAD501      0.0000 
     48 C5'         6.1080   17.3080   15.8430 C.3       1 FAD501      0.0000 
     49 O5'         5.4360   18.5560   16.3400 O.3       1 FAD501      0.0000 
     50 P           4.0080   18.5020   16.9620 P.3       1 FAD501      0.0000 
     51 O1P         3.8490   17.3320   17.8670 O.co2     1 FAD501      0.0000 
     52 O2P         3.5940   19.8270   17.4830 O.co2     1 FAD501      0.0000 
     53 O3P         3.0760   18.0200   15.6170 O.3       1 FAD501      0.0000 
@<TRIPOS>BOND
     1    1    2 ar   
     2    1    3 ar   
     3    1    4 1    
     4    1   53 1    
     5    4    5 1    
     6    5    6 1    
     7    6    7 1    
     8    6    8 1    
     9    7   12 1    
    10    8    9 1    
    11    8   10 1    
    12   10   11 1    
    13   10   12 1    
    14   12   13 1    
    15   13   14 1    
    16   13   22 1    
    17   14   15 2    
    18   15   16 1    
    19   16   17 ar   
    20   16   22 ar   
    21   17   18 1    
    22   17   19 ar   
    23   19   20 ar   
    24   20   21 ar   
    25   21   22 ar   
    26   23   24 1    
    27   23   40 2    
    28   24   25 2    
    29   24   26 am   
    30   26   27 am   
    31   27   28 2    
    32   27   29 1    
    33   29   30 2    
    34   29   40 1    
    35   30   31 1    
    36   31   32 ar   
    37   31   38 ar   
    38   32   33 ar   
    39   33   34 1    
    40   33   35 ar   
    41   35   36 1    
    42   35   37 ar   
    43   37   38 ar   
    44   38   39 1    
    45   39   40 1    
    46   39   41 1    
    47   41   42 1    
    48   42   43 1    
    49   42   44 1    
    50   44   45 1    
    51   44   46 1    
    52   46   47 1    
    53   46   48 1    
    54   48   49 1    
    55   49   50 1    
    56   50   51 ar   
    57   50   52 ar   
    58   50   53 1    
@<TRIPOS>SUBSTRUCTURE
     1 FAD501      1 GROUP   
@<TRIPOS>SET
ATOM$ORANGE STATIC     ATOMS   COLORGROUP SYSTEM 
54 5 5 6 6 8 8 10 10 12 12 14 14 16 16 17 17 20 \
20 22 22 24 24 27 27 29 29 31 31 32 32 33 33 34 34 35 \
35 36 36 37 37 38 38 40 40 41 41 42 42 44 44 46 46 48 \
48 

