#    Name: 5zxh_4_GTP
#    Modification time : Fri May 22 19:31:33 2020

@<TRIPOS>MOLECULE
5zxh_4_GTP
   32    34     1     0     1
SMALL
NO_CHARGES


@<TRIPOS>ATOM
      1 PG        -26.5950   12.0850  -44.8250 P.3       1 GTP501      0.0000 
      2 O1G       -25.2580   12.2110  -45.5580 O.co2     1 GTP501      0.0000 
      3 O2G       -27.4530   11.0110  -45.4960 O.co2     1 GTP501      0.0000 
      4 O3G       -27.3210   13.3320  -44.3240 O.co2     1 GTP501      0.0000 
      5 O3B       -26.2760   11.5620  -43.3270 O.3       1 GTP501      0.0000 
      6 PB        -25.0270   10.6450  -42.9060 P.3       1 GTP501      0.0000 
      7 O1B       -24.7290    9.5580  -43.9210 O.co2     1 GTP501      0.0000 
      8 O2B       -25.2650   10.3080  -41.4410 O.co2     1 GTP501      0.0000 
      9 O3A       -23.8600   11.7460  -42.9410 O.3       1 GTP501      0.0000 
     10 PA        -22.3430   11.4570  -42.5190 P.3       1 GTP501      0.0000 
     11 O1A       -21.4840   12.0180  -43.6150 O.co2     1 GTP501      0.0000 
     12 O2A       -22.1420   10.0020  -42.1420 O.co2     1 GTP501      0.0000 
     13 O5'       -22.3630   12.3900  -41.2120 O.3       1 GTP501      0.0000 
     14 C5'       -21.6270   13.6020  -41.0220 C.3       1 GTP501      0.0000 
     15 C4'       -20.4270   13.3650  -40.1120 C.3       1 GTP501      0.0000 
     16 O4'       -19.7100   12.2210  -40.5730 O.3       1 GTP501      0.0000 
     17 C3'       -19.4040   14.4910  -40.1220 C.3       1 GTP501      0.0000 
     18 O3'       -19.0540   14.8230  -38.7740 O.3       1 GTP501      0.0000 
     19 C2'       -18.2070   13.9480  -40.8890 C.3       1 GTP501      0.0000 
     20 O2'       -16.9510   14.5580  -40.5320 O.3       1 GTP501      0.0000 
     21 C1'       -18.3140   12.4870  -40.5200 C.3       1 GTP501      0.0000 
     22 N9        -17.6860   11.5240  -41.4290 N.pl3     1 GTP501      0.0000 
     23 C8        -18.0840   11.2290  -42.6830 C.2       1 GTP501      0.0000 
     24 N7        -17.2860   10.2610  -43.2070 N.2       1 GTP501      0.0000 
     25 C5        -16.3840    9.9280  -42.2690 C.2       1 GTP501      0.0000 
     26 C6        -15.2550    8.9840  -42.1740 C.2       1 GTP501      0.0000 
     27 O6        -14.9660    8.2450  -43.1370 O.2       1 GTP501      0.0000 
     28 N1        -14.5640    8.9470  -41.0220 N.am      1 GTP501      0.0000 
     29 C2        -14.8620    9.7470  -39.9670 C.2       1 GTP501      0.0000 
     30 N2        -14.0960    9.6270  -38.8580 N.pl3     1 GTP501      0.0000 
     31 N3        -15.8850   10.6500  -39.9710 N.2       1 GTP501      0.0000 
     32 C4        -16.6540   10.7640  -41.0840 C.2       1 GTP501      0.0000 
@<TRIPOS>BOND
     1    1    2 ar   
     2    1    3 ar   
     3    1    4 ar   
     4    1    5 1    
     5    5    6 1    
     6    6    7 ar   
     7    6    8 ar   
     8    6    9 1    
     9    9   10 1    
    10   10   11 ar   
    11   10   12 ar   
    12   10   13 1    
    13   13   14 1    
    14   14   15 1    
    15   15   16 1    
    16   15   17 1    
    17   16   21 1    
    18   17   18 1    
    19   17   19 1    
    20   19   20 1    
    21   19   21 1    
    22   21   22 1    
    23   22   23 1    
    24   22   32 1    
    25   23   24 2    
    26   24   25 1    
    27   25   26 1    
    28   25   32 2    
    29   26   27 2    
    30   26   28 am   
    31   28   29 1    
    32   29   30 1    
    33   29   31 2    
    34   31   32 1    
@<TRIPOS>SUBSTRUCTURE
     1 GTP501      1 GROUP   
@<TRIPOS>SET
ATOM$ORANGE STATIC     ATOMS   COLORGROUP SYSTEM 
20 14 14 15 15 17 17 19 19 21 21 23 23 25 25 26 26 29 \
29 32 32 

