#    Name: 5zxh_4_GTP_CAVITY_N1_4
#    Modification time : Fri May 22 19:31:35 2020

@<TRIPOS>MOLECULE
5zxh_4_GTP_CAVITY_N1_4
   85     0     7     0     0
SMALL
NO_CHARGES


@<TRIPOS>ATOM
      1 OG        -23.0600   10.6100  -41.5100 O.3       1 SER1        0.0000 
      2 OG        -22.6000   11.8400  -42.2200 O.3       1 SER1        0.0000 
      3 OG        -21.1800   11.3700  -42.1200 O.3       1 SER1        0.0000 
      4 OG        -18.8300   13.3700  -43.4400 O.3       1 SER1        0.0000 
      5 OG        -21.0400   12.0800  -40.8000 O.3       1 SER1        0.0000 
      6 OG        -18.7000   14.0800  -42.1200 O.3       1 SER1        0.0000 
      7 OG        -19.6600   15.7900  -42.9400 O.3       1 SER1        0.0000 
      8 OG        -20.9100   12.7900  -39.4900 O.3       1 SER1        0.0000 
      9 OG        -17.1400   14.3200  -40.7000 O.3       1 SER1        0.0000 
     10 O         -14.0200    8.1300  -46.2400 O.2       2 ALA2        0.0000 
     11 N         -17.1900    8.5400  -44.4300 N.am      2 ALA2        0.0000 
     12 N         -15.7700    8.0700  -44.3200 N.am      2 ALA2        0.0000 
     13 O         -16.7300    9.7800  -45.1400 O.2       2 ALA2        0.0000 
     14 N         -15.3100    9.3100  -45.0400 N.am      2 ALA2        0.0000 
     15 N         -24.7900   13.8400  -46.4900 N.am      2 ALA2        0.0000 
     16 N         -21.9500   12.9000  -46.2800 N.am      2 ALA2        0.0000 
     17 O         -16.2600   11.0200  -45.8500 O.2       2 ALA2        0.0000 
     18 O         -24.6200   10.3700  -42.9300 O.2       2 ALA2        0.0000 
     19 O         -23.2000    9.9000  -42.8200 O.2       2 ALA2        0.0000 
     20 O         -25.5800   12.0700  -43.7500 O.2       2 ALA2        0.0000 
     21 O         -19.8900   10.1900  -43.3300 O.2       2 ALA2        0.0000 
     22 O         -15.6300    8.7800  -43.0100 O.2       2 ALA2        0.0000 
     23 N         -25.1100   13.3100  -44.4600 N.am      2 ALA2        0.0000 
     24 N         -23.6900   12.8400  -44.3600 N.am      2 ALA2        0.0000 
     25 O         -20.8500   11.9000  -44.1400 O.2       2 ALA2        0.0000 
     26 O         -16.5900   10.4900  -43.8300 O.2       2 ALA2        0.0000 
     27 N         -23.2300   14.0800  -45.0700 N.am      2 ALA2        0.0000 
     28 O         -20.3900   13.1400  -44.8600 O.2       2 ALA2        0.0000 
     29 N         -15.9600    8.2500  -40.9800 N.am      2 ALA2        0.0000 
     30 N         -16.9200    9.9600  -41.8000 N.am      2 ALA2        0.0000 
     31 N         -23.5600   13.5500  -43.0400 N.am      2 ALA2        0.0000 
     32 O         -19.3000   12.1400  -42.7200 O.2       2 ALA2        0.0000 
     33 N         -21.6700   14.3100  -43.6500 N.am      2 ALA2        0.0000 
     34 N         -15.8200    8.9600  -39.6600 N.am      2 ALA2        0.0000 
     35 N         -14.4000    8.4900  -39.5600 N.am      2 ALA2        0.0000 
     36 O         -22.4600   12.5500  -40.9100 O.2       2 ALA2        0.0000 
     37 N         -16.7800   10.6700  -40.4800 N.am      2 ALA2        0.0000 
     38 N         -13.9400    9.7300  -40.2700 N.am      2 ALA2        0.0000 
     39 O         -18.0700   11.8500  -39.2700 O.2       2 ALA2        0.0000 
     40 O         -19.0200   13.5500  -40.0900 O.2       2 ALA2        0.0000 
     41 O         -17.6000   13.0800  -39.9900 O.2       2 ALA2        0.0000 
     42 O         -19.3500   13.0200  -38.0600 O.2       2 ALA2        0.0000 
     43 O         -18.8900   14.2600  -38.7800 O.2       2 ALA2        0.0000 
     44 OD1       -24.9200   13.1300  -47.8100 O.co2     3 ASP3        0.0000 
     45 OD1       -23.5000   12.6600  -47.7000 O.co2     3 ASP3        0.0000 
     46 OD1       -26.6700   13.0700  -45.8800 O.co2     3 ASP3        0.0000 
     47 OD1       -25.2500   12.6000  -45.7800 O.co2     3 ASP3        0.0000 
     48 OD1       -23.3700   13.3700  -46.3900 O.co2     3 ASP3        0.0000 
     49 OD1       -24.1600   11.6000  -43.6400 O.co2     3 ASP3        0.0000 
     50 NZ        -21.5400   15.0200  -42.3300 N.4       4 LYS4        0.0000 
     51 NZ        -20.1200   14.5500  -42.2300 N.4       4 LYS4        0.0000 
     52 NZ        -20.4400   14.0200  -40.2000 N.4       4 LYS4        0.0000 
     53 NZ        -19.9800   15.2600  -40.9100 N.4       4 LYS4        0.0000 
     54 CZ        -15.1700   10.0200  -43.7200 C.ar      5 PHE5        0.0000 
     55 CZ        -15.5000    9.4900  -41.6900 C.ar      5 PHE5        0.0000 
     56 CZ        -17.8800   11.6700  -42.6200 C.ar      5 PHE5        0.0000 
     57 CZ        -16.4500   11.2000  -42.5100 C.ar      5 PHE5        0.0000 
     58 CZ        -15.3600   10.2000  -40.3800 C.ar      5 PHE5        0.0000 
     59 CZ        -17.7400   12.3700  -41.3000 C.ar      5 PHE5        0.0000 
     60 CZ        -16.3200   11.9000  -41.2000 C.ar      5 PHE5        0.0000 
     61 CA        -22.4100   11.6600  -45.5700 C.3       6 GLY6        0.0000 
     62 CA        -22.7400   11.1300  -43.5400 C.3       6 GLY6        0.0000 
     63 CA        -21.3100   10.6600  -43.4300 C.3       6 GLY6        0.0000 
     64 CA        -18.4700    9.7200  -43.2200 C.3       6 GLY6        0.0000 
     65 CA        -17.0500    9.2500  -43.1100 C.3       6 GLY6        0.0000 
     66 CA        -22.2700   12.3700  -44.2500 C.3       6 GLY6        0.0000 
     67 CA        -24.4800   11.0800  -41.6200 C.3       6 GLY6        0.0000 
     68 CA        -24.0200   12.3100  -42.3300 C.3       6 GLY6        0.0000 
     69 CA        -19.7600   10.9000  -42.0100 C.3       6 GLY6        0.0000 
     70 CA        -18.3400   10.4300  -41.9000 C.3       6 GLY6        0.0000 
     71 CA        -14.8700    7.2600  -38.8400 C.3       6 GLY6        0.0000 
     72 CA        -19.6200   11.6100  -40.6900 C.3       6 GLY6        0.0000 
     73 CA        -18.2000   11.1400  -40.5900 C.3       6 GLY6        0.0000 
     74 CA        -22.0000   13.7900  -41.6200 C.3       6 GLY6        0.0000 
     75 CA        -19.4900   12.3200  -39.3800 C.3       6 GLY6        0.0000 
     76 CA        -18.5600   14.7900  -40.8100 C.3       6 GLY6        0.0000 
     77 CA        -20.7700   13.4900  -38.1700 C.3       6 GLY6        0.0000 
     78 CA        -18.4300   15.5000  -39.4900 C.3       6 GLY6        0.0000 
     79 DU        -21.8100   13.6100  -44.9600 H         7 CUB7        0.0000 
     80 DU        -22.1400   13.0800  -42.9400 H         7 CUB7        0.0000 
     81 DU        -20.7200   12.6100  -42.8300 H         7 CUB7        0.0000 
     82 DU        -20.2500   13.8400  -43.5400 H         7 CUB7        0.0000 
     83 DU        -21.2100   15.5500  -44.3600 H         7 CUB7        0.0000 
     84 DU        -20.5800   13.3200  -41.5100 H         7 CUB7        0.0000 
     85 DU        -19.1600   12.8400  -41.4100 H         7 CUB7        0.0000 
@<TRIPOS>BOND
@<TRIPOS>SUBSTRUCTURE
     1 SER1        1 GROUP   
     2 ALA2       10 GROUP   
     3 ASP3       44 GROUP   
     4 LYS4       50 GROUP   
     5 PHE5       54 GROUP   
     6 GLY6       61 GROUP   
     7 CUB7       79 GROUP   
@<TRIPOS>SET

