#    Name: 5zxh_5_ACP
#    Modification time : Fri May 22 19:31:39 2020

@<TRIPOS>MOLECULE
5zxh_5_ACP
   31    33     1     0     1
SMALL
NO_CHARGES


@<TRIPOS>ATOM
      1 PG         -8.1600  -49.9680   94.0530 P.3       1 ACP401      0.0000 
      2 O1G        -9.1720  -48.9520   93.3140 O.co2     1 ACP401      0.0000 
      3 O2G        -8.2540  -51.3100   93.4230 O.co2     1 ACP401      0.0000 
      4 O3G        -6.6400  -49.4400   93.9260 O.co2     1 ACP401      0.0000 
      5 PB        -10.1990  -49.3850   96.2290 P.3       1 ACP401      0.0000 
      6 O1B       -11.1520  -49.5830   95.1090 O.co2     1 ACP401      0.0000 
      7 O2B       -10.0140  -47.8060   96.4750 O.co2     1 ACP401      0.0000 
      8 C3B        -8.5640  -50.0820   95.8200 C.3       1 ACP401      0.0000 
      9 PA        -10.1240  -50.7350   98.7960 P.3       1 ACP401      0.0000 
     10 O1A        -8.6350  -50.8850   98.5410 O.co2     1 ACP401      0.0000 
     11 O2A       -10.9480  -51.9540   99.1470 O.co2     1 ACP401      0.0000 
     12 O3A       -10.8740  -50.0230   97.5520 O.3       1 ACP401      0.0000 
     13 O5'       -10.2990  -49.6960  100.0290 O.3       1 ACP401      0.0000 
     14 C5'        -9.6810  -48.4010  100.0540 C.3       1 ACP401      0.0000 
     15 C4'        -8.8240  -48.1340  101.3020 C.3       1 ACP401      0.0000 
     16 O4'        -9.4360  -48.6890  102.4650 O.3       1 ACP401      0.0000 
     17 C3'        -7.4070  -48.7070  101.2140 C.3       1 ACP401      0.0000 
     18 O3'        -6.4380  -47.6550  101.1800 O.3       1 ACP401      0.0000 
     19 C2'        -7.2250  -49.5840  102.4360 C.3       1 ACP401      0.0000 
     20 O2'        -6.0430  -49.2540  103.1720 O.3       1 ACP401      0.0000 
     21 C1'        -8.4750  -49.3650  103.2730 C.3       1 ACP401      0.0000 
     22 N9         -9.0370  -50.6560  103.7180 N.pl3     1 ACP401      0.0000 
     23 C8         -9.9710  -51.3790  103.0820 C.2       1 ACP401      0.0000 
     24 N7        -10.2530  -52.5110  103.7710 N.2       1 ACP401      0.0000 
     25 C5         -9.4890  -52.5180  104.8750 C.ar      1 ACP401      0.0000 
     26 C6         -9.2870  -53.4150  106.0390 C.ar      1 ACP401      0.0000 
     27 N6         -9.9890  -54.5650  106.1480 N.pl3     1 ACP401      0.0000 
     28 N1         -8.3800  -53.0390  106.9770 N.ar      1 ACP401      0.0000 
     29 C2         -7.6700  -51.8890  106.8720 C.ar      1 ACP401      0.0000 
     30 N3         -7.8090  -51.0350  105.8390 N.ar      1 ACP401      0.0000 
     31 C4         -8.6860  -51.2870  104.8320 C.ar      1 ACP401      0.0000 
@<TRIPOS>BOND
     1    1    2 ar   
     2    1    3 ar   
     3    1    4 ar   
     4    1    8 1    
     5    5    6 ar   
     6    5    7 ar   
     7    5    8 1    
     8    5   12 1    
     9    9   10 ar   
    10    9   11 ar   
    11    9   12 1    
    12    9   13 1    
    13   13   14 1    
    14   14   15 1    
    15   15   16 1    
    16   15   17 1    
    17   16   21 1    
    18   17   18 1    
    19   17   19 1    
    20   19   20 1    
    21   19   21 1    
    22   21   22 1    
    23   22   23 1    
    24   22   31 1    
    25   23   24 2    
    26   24   25 1    
    27   25   26 ar   
    28   25   31 ar   
    29   26   27 1    
    30   26   28 ar   
    31   28   29 ar   
    32   29   30 ar   
    33   30   31 ar   
@<TRIPOS>SUBSTRUCTURE
     1 ACP401      1 GROUP   
@<TRIPOS>SET
ATOM$ORANGE STATIC     ATOMS   COLORGROUP SYSTEM 
22 8 8 14 14 15 15 17 17 19 19 21 21 23 23 25 25 26 \
26 29 29 31 31 

