#    Name: 6c9w_1_9PG
#    Modification time : Fri May 22 19:27:52 2020

@<TRIPOS>MOLECULE
6c9w_1_9PG
   36    37     1     0     0
SMALL
NO_CHARGES


@<TRIPOS>ATOM
      1 C6        -19.7330  -61.7900  -15.1210           1 9PG501      0.0000 
      2 C5        -18.4250  -61.1370  -14.6720           1 9PG501      0.0000 
      3 C4        -17.4350  -62.1760  -14.1310           1 9PG501      0.0000 
      4 C3        -16.2430  -61.5010  -13.4770           1 9PG501      0.0000 
      5 C2        -16.7720  -60.5920  -12.3880           1 9PG501      0.0000 
      6 C1        -17.6730  -59.5300  -12.9910           1 9PG501      0.0000 
      7 O8        -16.6940  -52.8140  -15.8780           1 9PG501      0.0000 
      8 N         -17.3090  -53.2870  -14.9360           1 9PG501      0.0000 
      9 O7        -18.0120  -52.5750  -14.2370           1 9PG501      0.0000 
     10 C9        -17.2080  -54.6510  -14.6540           1 9PG501      0.0000 
     11 C14       -17.8320  -55.1710  -13.5290           1 9PG501      0.0000 
     12 C13       -17.7340  -56.5250  -13.2410           1 9PG501      0.0000 
     13 C12       -17.0210  -57.3690  -14.0930           1 9PG501      0.0000 
     14 C11       -16.3890  -56.8400  -15.2160           1 9PG501      0.0000 
     15 C10       -16.4850  -55.4860  -15.4970           1 9PG501      0.0000 
     16 O1        -16.8720  -58.7150  -13.8490           1 9PG501      0.0000 
     17 O2        -15.6830  -59.9660  -11.7020           1 9PG501      0.0000 
     18 O3        -15.3590  -62.4650  -12.8980           1 9PG501      0.0000 
     19 O4        -18.0460  -63.0420  -13.1550           1 9PG501      0.0000 
     20 O5        -18.7530  -60.1200  -13.7220           1 9PG501      0.0000 
     21 O6        -20.5900  -62.1000  -14.0130           1 9PG501      0.0000 
     22 H1        -20.2020  -61.1870  -15.7180           1 9PG501      0.0000 
     23 H2        -19.5290  -62.6120  -15.5910           1 9PG501      0.0000 
     24 H3        -18.0180  -60.7080  -15.4410           1 9PG501      0.0000 
     25 H4        -17.1160  -62.7130  -14.8730           1 9PG501      0.0000 
     26 H5        -15.7670  -60.9720  -14.1360           1 9PG501      0.0000 
     27 H6        -17.2860  -61.1210  -11.7580           1 9PG501      0.0000 
     28 H7        -18.0390  -58.9910  -12.2730           1 9PG501      0.0000 
     29 H8        -18.3140  -54.6100  -12.9660           1 9PG501      0.0000 
     30 H9        -18.1530  -56.8710  -12.4870           1 9PG501      0.0000 
     31 H10       -15.9040  -57.3970  -15.7810           1 9PG501      0.0000 
     32 H11       -16.0690  -55.1370  -16.2520           1 9PG501      0.0000 
     33 H12       -15.8080  -60.0170  -10.8630           1 9PG501      0.0000 
     34 H13       -14.7820  -62.7030  -13.4750           1 9PG501      0.0000 
     35 H14       -17.8480  -63.8500  -13.3280           1 9PG501      0.0000 
     36 H15       -21.1200  -62.7270  -14.2320           1 9PG501      0.0000 
@<TRIPOS>BOND
     1    1    2 du   
     2    1   21 du   
     3    1   22 1    
     4    1   23 1    
     5   21   36 1    
     6    2    3 du   
     7    2   20 du   
     8    2   24 1    
     9    3    4 du   
    10    3   19 du   
    11    3   25 1    
    12    4    5 du   
    13    4   18 du   
    14    4   26 1    
    15   18   34 1    
    16    5    6 du   
    17    5   17 du   
    18    5   27 1    
    19   17   33 1    
    20    6   16 du   
    21    6   20 du   
    22    6   28 1    
    23    7    8 du   
    24    8    9 du   
    25    8   10 du   
    26   10   11 du   
    27   10   15 du   
    28   11   12 du   
    29   12   13 du   
    30   11   29 1    
    31   13   14 du   
    32   12   30 1    
    33   13   16 du   
    34   14   15 du   
    35   14   31 1    
    36   15   32 1    
    37   19   35 1    
@<TRIPOS>SUBSTRUCTURE
     1 9PG501      1 GROUP   
@<TRIPOS>SET

