#    Name: 6c9w_1_9PG_CAVITY_N1_4
#    Modification time : Fri May 22 19:27:53 2020

@<TRIPOS>MOLECULE
6c9w_1_9PG_CAVITY_N1_4
  134     0     7     0     0
SMALL
NO_CHARGES


@<TRIPOS>ATOM
      1 OG        -15.7000  -62.1100  -12.8400 O.3       1 SER1        0.0000 
      2 OG        -18.1300  -53.7000   -9.8500 O.3       1 SER1        0.0000 
      3 OG        -14.9300  -60.2900  -12.0700 O.3       1 SER1        0.0000 
      4 OG        -14.4300  -59.9200  -13.4300 O.3       1 SER1        0.0000 
      5 OG        -13.3900  -60.9500  -14.9700 O.3       1 SER1        0.0000 
      6 OG        -12.8500  -62.3400  -15.1400 O.3       1 SER1        0.0000 
      7 OG        -13.1200  -59.4900  -12.8400 O.3       1 SER1        0.0000 
      8 O         -17.5100  -62.9000  -12.0700 O.2       2 ALA2        0.0000 
      9 N         -18.4600  -51.6500  -14.3800 N.am      2 ALA2        0.0000 
     10 N         -18.1600  -51.9500  -11.0500 N.am      2 ALA2        0.0000 
     11 N         -18.1900  -50.1900  -12.2500 N.am      2 ALA2        0.0000 
     12 N         -17.6600  -51.5800  -12.4200 N.am      2 ALA2        0.0000 
     13 N         -17.1500  -51.2200  -13.7800 N.am      2 ALA2        0.0000 
     14 O         -16.8900  -49.7600  -11.6500 O.2       2 ALA2        0.0000 
     15 N         -15.8500  -50.7900  -13.1800 N.am      2 ALA2        0.0000 
     16 O         -14.3000  -51.4600  -16.0800 O.2       2 ALA2        0.0000 
     17 OD1       -20.1600  -62.0200  -14.4600 O.co2     3 ASP3        0.0000 
     18 OD1       -19.3600  -61.9400  -12.5000 O.co2     3 ASP3        0.0000 
     19 OD1       -18.8500  -61.5800  -13.8600 O.co2     3 ASP3        0.0000 
     20 OD1       -18.5900  -60.1200  -11.7300 O.co2     3 ASP3        0.0000 
     21 OD1       -19.1600  -56.9800  -12.7500 O.co2     3 ASP3        0.0000 
     22 OD1       -18.6200  -58.3700  -12.9200 O.co2     3 ASP3        0.0000 
     23 OD1       -18.0800  -59.7600  -13.0900 O.co2     3 ASP3        0.0000 
     24 OD1       -18.1200  -58.0100  -14.2900 O.co2     3 ASP3        0.0000 
     25 OD1       -16.3200  -52.9000  -10.6200 O.co2     3 ASP3        0.0000 
     26 OD1       -15.7800  -54.2900  -10.7900 O.co2     3 ASP3        0.0000 
     27 OD1       -16.3500  -51.1500  -11.8200 O.co2     3 ASP3        0.0000 
     28 OD1       -15.8100  -52.5400  -11.9900 O.co2     3 ASP3        0.0000 
     29 OD1       -15.2700  -53.9300  -12.1600 O.co2     3 ASP3        0.0000 
     30 OD1       -15.3100  -52.1800  -13.3500 O.co2     3 ASP3        0.0000 
     31 OD1       -14.7700  -53.5700  -13.5200 O.co2     3 ASP3        0.0000 
     32 OD1       -13.5000  -51.3800  -14.1200 O.co2     3 ASP3        0.0000 
     33 NZ        -18.3100  -62.9700  -14.0300 N.4       4 LYS4        0.0000 
     34 NZ        -19.6600  -57.3400  -11.3900 N.4       4 LYS4        0.0000 
     35 NZ        -20.2400  -54.2000  -12.4200 N.4       4 LYS4        0.0000 
     36 NZ        -19.7000  -55.5900  -12.5800 N.4       4 LYS4        0.0000 
     37 NZ        -17.0100  -62.5400  -13.4300 N.4       4 LYS4        0.0000 
     38 NZ        -16.5000  -62.1800  -14.8000 N.4       4 LYS4        0.0000 
     39 NZ        -19.4300  -54.1300  -10.4500 N.4       4 LYS4        0.0000 
     40 NZ        -18.9000  -55.5200  -10.6200 N.4       4 LYS4        0.0000 
     41 NZ        -15.2000  -61.7500  -14.2000 N.4       4 LYS4        0.0000 
     42 NZ        -14.1500  -62.7700  -15.7400 N.4       4 LYS4        0.0000 
     43 NZ        -15.1800  -59.1900   -8.5700 N.4       4 LYS4        0.0000 
     44 NZ        -14.6700  -58.8300   -9.9400 N.4       4 LYS4        0.0000 
     45 NZ        -15.2400  -55.6800  -10.9600 N.4       4 LYS4        0.0000 
     46 NZ        -14.7400  -55.3200  -12.3300 N.4       4 LYS4        0.0000 
     47 NZ        -13.3600  -58.3900   -9.3400 N.4       4 LYS4        0.0000 
     48 NZ        -12.8600  -58.0300  -10.7000 N.4       4 LYS4        0.0000 
     49 CZ        -20.5000  -55.6600  -14.5500 C.ar      5 PHE5        0.0000 
     50 CZ        -19.4200  -58.4400  -14.8900 C.ar      5 PHE5        0.0000 
     51 CZ        -18.8900  -59.8300  -15.0600 C.ar      5 PHE5        0.0000 
     52 CZ        -18.3500  -61.2200  -15.2300 C.ar      5 PHE5        0.0000 
     53 CZ        -18.6500  -56.6200  -14.1200 C.ar      5 PHE5        0.0000 
     54 CZ        -17.5800  -59.4000  -14.4600 C.ar      5 PHE5        0.0000 
     55 CZ        -17.0400  -60.7900  -14.6300 C.ar      5 PHE5        0.0000 
     56 CZ        -17.6100  -57.6500  -15.6600 C.ar      5 PHE5        0.0000 
     57 CZ        -16.3100  -57.2100  -15.0600 C.ar      5 PHE5        0.0000 
     58 CZ        -15.7700  -58.6000  -15.2300 C.ar      5 PHE5        0.0000 
     59 CZ        -15.2300  -59.9900  -15.4000 C.ar      5 PHE5        0.0000 
     60 CZ        -14.6900  -61.3800  -15.5700 C.ar      5 PHE5        0.0000 
     61 CZ        -15.8000  -56.8500  -16.4200 C.ar      5 PHE5        0.0000 
     62 CZ        -15.2600  -58.2400  -16.5900 C.ar      5 PHE5        0.0000 
     63 CZ        -15.5400  -55.3900  -14.2900 C.ar      5 PHE5        0.0000 
     64 CZ        -15.0000  -56.7800  -14.4600 C.ar      5 PHE5        0.0000 
     65 CZ        -14.4600  -58.1700  -14.6300 C.ar      5 PHE5        0.0000 
     66 CZ        -15.5700  -53.6400  -15.4900 C.ar      5 PHE5        0.0000 
     67 CZ        -15.0300  -55.0300  -15.6600 C.ar      5 PHE5        0.0000 
     68 CZ        -13.4200  -59.2000  -16.1600 C.ar      5 PHE5        0.0000 
     69 CZ        -13.6300  -59.8500  -11.4700 C.ar      5 PHE5        0.0000 
     70 CZ        -14.2300  -54.9600  -13.6900 C.ar      5 PHE5        0.0000 
     71 CZ        -13.6900  -56.3500  -13.8600 C.ar      5 PHE5        0.0000 
     72 CZ        -13.1600  -57.7400  -14.0300 C.ar      5 PHE5        0.0000 
     73 CZ        -14.2600  -53.2100  -14.8900 C.ar      5 PHE5        0.0000 
     74 CZ        -13.7300  -54.6000  -15.0600 C.ar      5 PHE5        0.0000 
     75 CZ        -12.6500  -57.3800  -15.4000 C.ar      5 PHE5        0.0000 
     76 CZ        -13.7600  -52.8500  -16.2500 C.ar      5 PHE5        0.0000 
     77 CZ        -12.3200  -59.4200  -10.8700 C.ar      5 PHE5        0.0000 
     78 CA        -18.0500  -61.5100  -11.9000 C.3       6 GLY6        0.0000 
     79 CA        -19.7300  -53.8400  -13.7800 C.3       6 GLY6        0.0000 
     80 CA        -19.1900  -55.2300  -13.9500 C.3       6 GLY6        0.0000 
     81 CA        -19.2300  -53.4800  -15.1500 C.3       6 GLY6        0.0000 
     82 CA        -18.6900  -54.8700  -15.3200 C.3       6 GLY6        0.0000 
     83 CA        -18.1500  -56.2600  -15.4900 C.3       6 GLY6        0.0000 
     84 CA        -17.7900  -60.0500   -9.7700 C.3       6 GLY6        0.0000 
     85 CA        -18.3600  -56.9100  -10.7900 C.3       6 GLY6        0.0000 
     86 CA        -17.8200  -58.3000  -10.9600 C.3       6 GLY6        0.0000 
     87 CA        -17.2800  -59.6900  -11.1300 C.3       6 GLY6        0.0000 
     88 CA        -16.7500  -61.0800  -11.3000 C.3       6 GLY6        0.0000 
     89 CA        -19.4700  -52.3800  -11.6500 C.3       6 GLY6        0.0000 
     90 CA        -18.9600  -52.0200  -13.0100 C.3       6 GLY6        0.0000 
     91 CA        -18.4200  -53.4100  -13.1800 C.3       6 GLY6        0.0000 
     92 CA        -17.9200  -53.0400  -14.5500 C.3       6 GLY6        0.0000 
     93 CA        -17.3800  -54.4300  -14.7200 C.3       6 GLY6        0.0000 
     94 CA        -16.8400  -55.8200  -14.8900 C.3       6 GLY6        0.0000 
     95 CA        -17.4100  -52.6800  -15.9100 C.3       6 GLY6        0.0000 
     96 CA        -16.3400  -55.4600  -16.2500 C.3       6 GLY6        0.0000 
     97 CA        -17.0200  -58.2300   -9.0000 C.3       6 GLY6        0.0000 
     98 CA        -16.4800  -59.6200   -9.1700 C.3       6 GLY6        0.0000 
     99 CA        -17.0500  -56.4800  -10.1900 C.3       6 GLY6        0.0000 
    100 CA        -16.5100  -57.8700  -10.3600 C.3       6 GLY6        0.0000 
    101 CA        -15.9800  -59.2600  -10.5300 C.3       6 GLY6        0.0000 
    102 CA        -15.4400  -60.6500  -10.7000 C.3       6 GLY6        0.0000 
    103 CA        -16.6500  -50.8600  -15.1500 C.3       6 GLY6        0.0000 
    104 CA        -16.1100  -52.2500  -15.3200 C.3       6 GLY6        0.0000 
    105 CA        -15.7100  -57.8000   -8.4000 C.3       6 GLY6        0.0000 
    106 CA        -15.3400  -50.4300  -14.5500 C.3       6 GLY6        0.0000 
    107 DU        -17.5500  -61.1500  -13.2600 H         7 CUB7        0.0000 
    108 DU        -18.9300  -53.7700  -11.8200 H         7 CUB7        0.0000 
    109 DU        -18.3900  -55.1600  -11.9900 H         7 CUB7        0.0000 
    110 DU        -17.8500  -56.5500  -12.1600 H         7 CUB7        0.0000 
    111 DU        -17.3200  -57.9400  -12.3300 H         7 CUB7        0.0000 
    112 DU        -16.7800  -59.3300  -12.5000 H         7 CUB7        0.0000 
    113 DU        -16.2400  -60.7200  -12.6700 H         7 CUB7        0.0000 
    114 DU        -17.8900  -54.8000  -13.3500 H         7 CUB7        0.0000 
    115 DU        -17.3500  -56.1900  -13.5200 H         7 CUB7        0.0000 
    116 DU        -16.8100  -57.5800  -13.6900 H         7 CUB7        0.0000 
    117 DU        -16.2700  -58.9700  -13.8600 H         7 CUB7        0.0000 
    118 DU        -15.7400  -60.3600  -14.0300 H         7 CUB7        0.0000 
    119 DU        -17.5900  -55.0900  -10.0200 H         7 CUB7        0.0000 
    120 DU        -17.6200  -53.3400  -11.2200 H         7 CUB7        0.0000 
    121 DU        -17.0900  -54.7300  -11.3900 H         7 CUB7        0.0000 
    122 DU        -15.4700  -58.9000  -11.9000 H         7 CUB7        0.0000 
    123 DU        -17.1200  -52.9700  -12.5900 H         7 CUB7        0.0000 
    124 DU        -16.5800  -54.3600  -12.7500 H         7 CUB7        0.0000 
    125 DU        -14.9700  -58.5300  -13.2600 H         7 CUB7        0.0000 
    126 DU        -16.6100  -52.6100  -13.9500 H         7 CUB7        0.0000 
    127 DU        -16.0800  -54.0000  -14.1200 H         7 CUB7        0.0000 
    128 DU        -13.9200  -59.5600  -14.8000 H         7 CUB7        0.0000 
    129 DU        -15.2100  -57.4400   -9.7700 H         7 CUB7        0.0000 
    130 DU        -14.7000  -57.0700  -11.1300 H         7 CUB7        0.0000 
    131 DU        -14.1700  -58.4600  -11.3000 H         7 CUB7        0.0000 
    132 DU        -14.2000  -56.7100  -12.5000 H         7 CUB7        0.0000 
    133 DU        -13.6600  -58.1000  -12.6700 H         7 CUB7        0.0000 
    134 DU        -14.8000  -51.8200  -14.7200 H         7 CUB7        0.0000 
@<TRIPOS>BOND
@<TRIPOS>SUBSTRUCTURE
     1 SER1        1 GROUP   
     2 ALA2        8 GROUP   
     3 ASP3       17 GROUP   
     4 LYS4       33 GROUP   
     5 PHE5       49 GROUP   
     6 GLY6       78 GROUP   
     7 CUB7      107 GROUP   
@<TRIPOS>SET

