#    Name: 5ycs_4_TCL_CAVITY_N1_12
#    Modification time : Fri May 22 19:17:54 2020

@<TRIPOS>MOLECULE
5ycs_4_TCL_CAVITY_N1_12
   74     0     6     0     0
SMALL
NO_CHARGES


@<TRIPOS>ATOM
      1 OG        -58.6200   57.9800   19.9000 O.3       1 SER1        0.0000 
      2 OG        -56.4400   58.8200   17.4900 O.3       1 SER1        0.0000 
      3 OG        -58.4700   63.9600   16.5100 O.3       1 SER1        0.0000 
      4 OG        -54.2500   58.9300   20.4500 O.3       1 SER1        0.0000 
      5 OG        -58.8600   56.4600   28.5100 O.3       1 SER1        0.0000 
      6 OG        -58.3800   57.3100   27.3600 O.3       1 SER1        0.0000 
      7 OG        -56.6700   57.3000   26.1000 O.3       1 SER1        0.0000 
      8 N         -57.9100   58.8800   20.8600 N.am      2 ALA2        0.0000 
      9 N         -57.1900   59.7800   21.8200 N.am      2 ALA2        0.0000 
     10 N         -55.9600   58.9300   21.7100 N.am      2 ALA2        0.0000 
     11 N         -59.6100   58.1600   27.4800 N.am      2 ALA2        0.0000 
     12 N         -54.9700   57.3000   24.8400 N.am      2 ALA2        0.0000 
     13 N         -55.7200   58.9900   23.8200 N.am      2 ALA2        0.0000 
     14 N         -56.4800   60.6900   22.7900 N.am      2 ALA2        0.0000 
     15 O         -58.4200   59.9000   27.3000 O.2       2 ALA2        0.0000 
     16 N         -57.1900   59.0500   27.1800 N.am      2 ALA2        0.0000 
     17 N         -56.7200   59.9000   26.0400 N.am      2 ALA2        0.0000 
     18 N         -55.4900   59.0500   25.9200 N.am      2 ALA2        0.0000 
     19 O         -54.2500   58.2000   25.8100 O.2       2 ALA2        0.0000 
     20 N         -55.2500   59.1100   28.0300 N.am      2 ALA2        0.0000 
     21 N         -54.7700   59.9500   26.8900 N.am      2 ALA2        0.0000 
     22 OD1       -58.9000   59.0600   28.4400 O.co2     3 ASP3        0.0000 
     23 OD1       -58.6600   59.1200   30.5500 O.co2     3 ASP3        0.0000 
     24 OD1       -56.9600   59.1100   29.2900 O.co2     3 ASP3        0.0000 
     25 OD1       -57.7100   60.8100   28.2600 O.co2     3 ASP3        0.0000 
     26 OD1       -56.7200   59.1700   31.4000 O.co2     3 ASP3        0.0000 
     27 OD1       -56.2400   60.0200   30.2500 O.co2     3 ASP3        0.0000 
     28 CZ        -59.3700   59.6700   18.8700 C.ar      4 PHE5        0.0000 
     29 CZ        -58.9000   60.5200   17.7200 C.ar      4 PHE5        0.0000 
     30 CZ        -58.4200   61.3600   16.5800 C.ar      4 PHE5        0.0000 
     31 CZ        -57.1900   60.5100   16.4600 C.ar      4 PHE5        0.0000 
     32 CZ        -56.2000   58.8800   19.6000 C.ar      4 PHE5        0.0000 
     33 CZ        -59.4200   62.2700   18.8000 C.ar      4 PHE5        0.0000 
     34 CZ        -56.9600   60.5700   18.5700 C.ar      4 PHE5        0.0000 
     35 CZ        -55.7200   59.7200   18.4600 C.ar      4 PHE5        0.0000 
     36 CZ        -58.9400   63.1100   17.6600 C.ar      4 PHE5        0.0000 
     37 CZ        -57.7100   62.2600   17.5400 C.ar      4 PHE5        0.0000 
     38 CZ        -56.4800   61.4200   17.4300 C.ar      4 PHE5        0.0000 
     39 CZ        -55.4900   59.7800   20.5600 C.ar      4 PHE5        0.0000 
     40 CZ        -56.5200   64.0100   17.3600 C.ar      4 PHE5        0.0000 
     41 CZ        -54.7700   60.6800   21.5300 C.ar      4 PHE5        0.0000 
     42 CZ        -56.9100   56.5200   29.3600 C.ar      4 PHE5        0.0000 
     43 CZ        -56.4400   57.3600   28.2100 C.ar      4 PHE5        0.0000 
     44 CZ        -55.9600   58.2100   27.0700 C.ar      4 PHE5        0.0000 
     45 CZ        -54.7300   57.3600   26.9500 C.ar      4 PHE5        0.0000 
     46 CZ        -57.4300   58.2700   30.4300 C.ar      4 PHE5        0.0000 
     47 CA        -57.1500   57.1900   21.8900 C.3       5 GLY6        0.0000 
     48 CA        -58.6600   60.5700   19.8300 C.3       5 GLY6        0.0000 
     49 CA        -57.4300   59.7300   19.7200 C.3       5 GLY6        0.0000 
     50 CA        -58.1900   61.4200   18.6900 C.3       5 GLY6        0.0000 
     51 CA        -56.4400   58.0900   22.8500 C.3       5 GLY6        0.0000 
     52 CA        -55.2100   57.2400   22.7400 C.3       5 GLY6        0.0000 
     53 CA        -54.7300   58.0900   21.5900 C.3       5 GLY6        0.0000 
     54 CA        -56.7200   60.6300   20.6800 C.3       5 GLY6        0.0000 
     55 CA        -57.0000   63.1700   18.5100 C.3       5 GLY6        0.0000 
     56 CA        -57.7500   64.8600   17.4800 C.3       5 GLY6        0.0000 
     57 CA        -57.9100   58.1500   26.2200 C.3       5 GLY6        0.0000 
     58 CA        -56.2000   58.1500   24.9600 C.3       5 GLY6        0.0000 
     59 CA        -54.4900   58.1400   23.7000 C.3       5 GLY6        0.0000 
     60 CA        -55.2500   59.8400   22.6700 C.3       5 GLY6        0.0000 
     61 CA        -56.2400   60.7400   24.8900 C.3       5 GLY6        0.0000 
     62 CA        -55.0100   59.9000   24.7800 C.3       5 GLY6        0.0000 
     63 CA        -53.7800   59.0500   24.6600 C.3       5 GLY6        0.0000 
     64 CA        -55.7700   61.5900   23.7500 C.3       5 GLY6        0.0000 
     65 CA        -54.5400   60.7400   23.6300 C.3       5 GLY6        0.0000 
     66 CA        -55.2900   62.4300   22.6000 C.3       5 GLY6        0.0000 
     67 CA        -54.0600   61.5900   22.4900 C.3       5 GLY6        0.0000 
     68 CA        -56.4800   59.9600   28.1500 C.3       5 GLY6        0.0000 
     69 CA        -56.0000   60.8000   27.0000 C.3       5 GLY6        0.0000 
     70 CA        -55.7700   60.8600   29.1100 C.3       5 GLY6        0.0000 
     71 DU        -58.1400   58.8200   18.7500 H         6 CUB7        0.0000 
     72 DU        -57.6700   59.6700   17.6100 H         6 CUB7        0.0000 
     73 DU        -56.6700   58.0300   20.7500 H         6 CUB7        0.0000 
     74 DU        -57.6700   58.2100   28.3300 H         6 CUB7        0.0000 
@<TRIPOS>BOND
@<TRIPOS>SUBSTRUCTURE
     1 SER1        1 GROUP   
     2 ALA2        8 GROUP   
     3 ASP3       22 GROUP   
     4 PHE5       28 GROUP   
     5 GLY6       47 GROUP   
     6 CUB7       71 GROUP   
@<TRIPOS>SET

