#    Name: 5ycs_4_TCL
#    Modification time : Fri May 22 19:17:53 2020

@<TRIPOS>MOLECULE
5ycs_4_TCL
   17    18     1     0     0
SMALL
NO_CHARGES


@<TRIPOS>ATOM
      1 C1        -56.6800   59.5920   17.8580 C.ar      1 TCL302      0.0000 
      2 C2        -57.9590   60.0910   17.9570 C.ar      1 TCL302      0.0000 
      3 C6        -56.2050   58.7260   18.8290 C.ar      1 TCL302      0.0000 
      4 C5        -57.0490   58.3530   19.8830 C.ar      1 TCL302      0.0000 
      5 C4        -58.3390   58.8600   19.9600 C.ar      1 TCL302      0.0000 
      6 C3        -58.7890   59.7440   18.9960 C.ar      1 TCL302      0.0000 
      7 C11       -55.0220   58.9130   24.3800 C.ar      1 TCL302      0.0000 
      8 C10       -55.0560   57.5560   24.1570 C.ar      1 TCL302      0.0000 
      9 C9        -55.5620   57.1010   22.9590 C.ar      1 TCL302      0.0000 
     10 C8        -55.9920   57.9870   21.9740 C.ar      1 TCL302      0.0000 
     11 C12       -55.4010   59.8180   23.4080 C.ar      1 TCL302      0.0000 
     12 C13       -55.8830   59.3510   22.1960 C.ar      1 TCL302      0.0000 
     13 O7        -56.5790   57.4670   20.8310 O.3       1 TCL302      0.0000 
     14 CL14      -58.5440   61.1910   16.7440 Cl        1 TCL302      0.0000 
     15 CL15      -54.6230   59.4890   25.9710 Cl        1 TCL302      0.0000 
     16 CL16      -55.8300   55.4000   22.7620 Cl        1 TCL302      0.0000 
     17 O17       -54.9340   58.2520   18.7930 O.3       1 TCL302      0.0000 
@<TRIPOS>BOND
     1    1    2 ar   
     2    1    3 ar   
     3    2    6 ar   
     4    2   14 1    
     5    3    4 ar   
     6    3   17 1    
     7    4    5 ar   
     8    4   13 1    
     9    5    6 ar   
    10    7    8 ar   
    11    7   11 ar   
    12    7   15 1    
    13    8    9 ar   
    14    9   10 ar   
    15    9   16 1    
    16   10   12 ar   
    17   10   13 1    
    18   11   12 ar   
@<TRIPOS>SUBSTRUCTURE
     1 TCL302      1 GROUP   
@<TRIPOS>SET

