#    Name: 6owm_4_PFB
#    Modification time : Fri May 22 19:33:44 2020

@<TRIPOS>MOLECULE
6owm_4_PFB
   13    13     1     0     0
SMALL
NO_CHARGES


@<TRIPOS>ATOM
      1 C1         22.7580  -12.2740  -39.9280 C.ar      1 PFB404      0.0000 
      2 C2         22.6110  -12.7390  -38.6300 C.ar      1 PFB404      0.0000 
      3 C3         23.0100  -13.9910  -38.2610 C.ar      1 PFB404      0.0000 
      4 C4         23.4930  -14.8650  -39.2280 C.ar      1 PFB404      0.0000 
      5 C5         23.6550  -14.4340  -40.5270 C.ar      1 PFB404      0.0000 
      6 C6         23.2710  -13.1660  -40.8700 C.ar      1 PFB404      0.0000 
      7 C7         22.3170  -10.8830  -40.3540 C.3       1 PFB404      0.0000 
      8 F2         22.1280  -11.9740  -37.6690 F         1 PFB404      0.0000 
      9 F3         22.8790  -14.4230  -37.0140 F         1 PFB404      0.0000 
     10 F4         23.8650  -16.1010  -38.8660 F         1 PFB404      0.0000 
     11 F5         24.1370  -15.2610  -41.4360 F         1 PFB404      0.0000 
     12 F6         23.4110  -12.7660  -42.1380 F         1 PFB404      0.0000 
     13 O1         23.3850   -9.9590  -40.6220 O.3       1 PFB404      0.0000 
@<TRIPOS>BOND
     1    1    2 ar   
     2    1    6 ar   
     3    1    7 1    
     4    2    3 ar   
     5    2    8 1    
     6    3    4 ar   
     7    3    9 1    
     8    4    5 ar   
     9    4   10 1    
    10    5    6 ar   
    11    5   11 1    
    12    6   12 1    
    13    7   13 1    
@<TRIPOS>SUBSTRUCTURE
     1 PFB404      1 GROUP   
@<TRIPOS>SET

