#    Name: 6owm_3_NAJ
#    Modification time : Fri May 22 19:33:35 2020

@<TRIPOS>MOLECULE
6owm_3_NAJ
   44    48     1     0     0
SMALL
NO_CHARGES


@<TRIPOS>ATOM
      1 PA         30.6590   -3.3740  -38.5320 P.3       1 NAJ403      0.0000 
      2 O1A        31.9110   -4.2170  -38.6980 O.co2     1 NAJ403      0.0000 
      3 O2A        30.3360   -2.3640  -39.5590 O.co2     1 NAJ403      0.0000 
      4 O5B        30.6570   -2.6270  -37.1410 O.3       1 NAJ403      0.0000 
      5 C5B        31.2570   -3.1880  -35.9670 C.3       1 NAJ403      0.0000 
      6 C4B        31.8710   -2.0650  -35.1450 C.3       1 NAJ403      0.0000 
      7 O4B        32.3850   -2.6540  -33.9470 O.3       1 NAJ403      0.0000 
      8 C3B        33.0540   -1.3610  -35.8330 C.3       1 NAJ403      0.0000 
      9 O3B        32.8300    0.0430  -35.9630 O.3       1 NAJ403      0.0000 
     10 C2B        34.2570   -1.7130  -34.9250 C.3       1 NAJ403      0.0000 
     11 O2B        35.2660   -0.7200  -34.8710 O.3       1 NAJ403      0.0000 
     12 C1B        33.5890   -1.9640  -33.5790 C.3       1 NAJ403      0.0000 
     13 N9A        34.3530   -2.7600  -32.6510 N.pl3     1 NAJ403      0.0000 
     14 C8A        35.1440   -3.8240  -32.9340 C.2       1 NAJ403      0.0000 
     15 N7A        35.6560   -4.2820  -31.7720 N.2       1 NAJ403      0.0000 
     16 C5A        35.2030   -3.4800  -30.7530 C.ar      1 NAJ403      0.0000 
     17 C6A        35.4090   -3.3910  -29.3140 C.ar      1 NAJ403      0.0000 
     18 N6A        36.1500   -4.2810  -28.6810 N.pl3     1 NAJ403      0.0000 
     19 N1A        34.7200   -2.4420  -28.6890 N.ar      1 NAJ403      0.0000 
     20 C2A        33.9170   -1.5700  -29.2960 C.ar      1 NAJ403      0.0000 
     21 N3A        33.8020   -1.5580  -30.6180 N.ar      1 NAJ403      0.0000 
     22 C4A        34.4100   -2.5300  -31.3330 C.ar      1 NAJ403      0.0000 
     23 O3         29.4740   -4.4340  -38.4290 O.3       1 NAJ403      0.0000 
     24 PN         27.8940   -4.3040  -38.6700 P.3       1 NAJ403      0.0000 
     25 O1N        27.5560   -4.6310  -40.1120 O.co2     1 NAJ403      0.0000 
     26 O2N        27.3970   -3.0830  -38.0270 O.co2     1 NAJ403      0.0000 
     27 O5D        27.4510   -5.5810  -37.8350 O.3       1 NAJ403      0.0000 
     28 C5D        27.6930   -5.6110  -36.4400 C.3       1 NAJ403      0.0000 
     29 C4D        27.4120   -6.9880  -35.8770 C.3       1 NAJ403      0.0000 
     30 O4D        26.0010   -7.2610  -35.9280 O.3       1 NAJ403      0.0000 
     31 C3D        28.1110   -8.1290  -36.6070 C.3       1 NAJ403      0.0000 
     32 O3D        28.5180   -9.1670  -35.7180 O.3       1 NAJ403      0.0000 
     33 C2D        26.9950   -8.6990  -37.4820 C.3       1 NAJ403      0.0000 
     34 O2D        27.2260  -10.0160  -37.8900 O.3       1 NAJ403      0.0000 
     35 C1D        25.8010   -8.5350  -36.5750 C.3       1 NAJ403      0.0000 
     36 N1N        24.5100   -8.4900  -37.1980 N.pl3     1 NAJ403      0.0000 
     37 C2N        23.4430   -9.1250  -36.5530 C.ar      1 NAJ403      0.0000 
     38 C3N        22.1800   -9.0370  -37.0140 C.ar      1 NAJ403      0.0000 
     39 C7N        21.0590   -9.6600  -36.2840 C.2       1 NAJ403      0.0000 
     40 O7N        19.9850   -9.8860  -36.8890 O.2       1 NAJ403      0.0000 
     41 N7N        21.2070   -9.9290  -35.0060 N.am      1 NAJ403      0.0000 
     42 C4N        21.9440   -8.3250  -38.1780 C.ar      1 NAJ403      0.0000 
     43 C5N        23.0030   -7.6540  -38.8190 C.ar      1 NAJ403      0.0000 
     44 C6N        24.2650   -7.7320  -38.2710 C.ar      1 NAJ403      0.0000 
@<TRIPOS>BOND
     1    1    2 ar   
     2    1    3 ar   
     3    1    4 1    
     4    1   23 1    
     5    4    5 1    
     6    5    6 1    
     7    6    7 1    
     8    6    8 1    
     9    7   12 1    
    10    8    9 1    
    11    8   10 1    
    12   10   11 1    
    13   10   12 1    
    14   12   13 1    
    15   13   14 1    
    16   13   22 1    
    17   14   15 2    
    18   15   16 1    
    19   16   17 ar   
    20   16   22 ar   
    21   17   18 1    
    22   17   19 ar   
    23   19   20 ar   
    24   20   21 ar   
    25   21   22 ar   
    26   23   24 1    
    27   24   25 ar   
    28   24   26 ar   
    29   24   27 1    
    30   27   28 1    
    31   28   29 1    
    32   29   30 1    
    33   29   31 1    
    34   30   35 1    
    35   31   32 1    
    36   31   33 1    
    37   33   34 1    
    38   33   35 1    
    39   35   36 1    
    40   36   37 ar   
    41   36   44 ar   
    42   37   38 ar   
    43   38   39 1    
    44   38   42 ar   
    45   39   40 2    
    46   39   41 am   
    47   42   43 ar   
    48   43   44 ar   
@<TRIPOS>SUBSTRUCTURE
     1 NAJ403      1 GROUP   
@<TRIPOS>SET

