#    Name: 6owm_1_NAJ
#    Modification time : Fri May 22 19:33:26 2020

@<TRIPOS>MOLECULE
6owm_1_NAJ
   44    48     1     0     0
SMALL
NO_CHARGES


@<TRIPOS>ATOM
      1 PA         14.7120  -25.9840   -1.4590 P.3       1 NAJ403      0.0000 
      2 O1A        16.0450  -26.5520   -1.1150 O.co2     1 NAJ403      0.0000 
      3 O2A        13.5720  -26.3180   -0.5890 O.co2     1 NAJ403      0.0000 
      4 O5B        14.2770  -26.4490   -2.9030 O.3       1 NAJ403      0.0000 
      5 C5B        15.2200  -26.7200   -3.9570 C.3       1 NAJ403      0.0000 
      6 C4B        14.7210  -27.9510   -4.7140 C.3       1 NAJ403      0.0000 
      7 O4B        15.6500  -28.1730   -5.7780 O.3       1 NAJ403      0.0000 
      8 C3B        14.6470  -29.2330   -3.8940 C.3       1 NAJ403      0.0000 
      9 O3B        13.3320  -29.7770   -3.8810 O.3       1 NAJ403      0.0000 
     10 C2B        15.6640  -30.1520   -4.6070 C.3       1 NAJ403      0.0000 
     11 O2B        15.3710  -31.5340   -4.5820 O.3       1 NAJ403      0.0000 
     12 C1B        15.7110  -29.5560   -5.9980 C.3       1 NAJ403      0.0000 
     13 N9A        16.9200  -29.8530   -6.7320 N.pl3     1 NAJ403      0.0000 
     14 C8A        18.2030  -29.9010   -6.2580 C.2       1 NAJ403      0.0000 
     15 N7A        19.0220  -30.1720   -7.2750 N.2       1 NAJ403      0.0000 
     16 C5A        18.2700  -30.3220   -8.4120 C.ar      1 NAJ403      0.0000 
     17 C6A        18.5460  -30.6640   -9.8090 C.ar      1 NAJ403      0.0000 
     18 N6A        19.7890  -30.8530  -10.2300 N.pl3     1 NAJ403      0.0000 
     19 N1A        17.4810  -30.6360  -10.6340 N.ar      1 NAJ403      0.0000 
     20 C2A        16.2360  -30.4040  -10.1970 C.ar      1 NAJ403      0.0000 
     21 N3A        15.9280  -30.1800   -8.9230 N.ar      1 NAJ403      0.0000 
     22 C4A        16.9480  -30.1400   -8.0680 C.ar      1 NAJ403      0.0000 
     23 O3         14.9560  -24.4450   -1.5880 O.3       1 NAJ403      0.0000 
     24 PN         13.9620  -23.1230   -1.5980 P.3       1 NAJ403      0.0000 
     25 O1N        13.8470  -22.5720   -0.2190 O.co2     1 NAJ403      0.0000 
     26 O2N        12.7700  -23.4130   -2.3950 O.co2     1 NAJ403      0.0000 
     27 O5D        14.9380  -22.1410   -2.3930 O.3       1 NAJ403      0.0000 
     28 C5D        15.2750  -22.4330   -3.7420 C.3       1 NAJ403      0.0000 
     29 C4D        16.3920  -21.5180   -4.2080 C.3       1 NAJ403      0.0000 
     30 O4D        15.8810  -20.1710   -4.3350 O.3       1 NAJ403      0.0000 
     31 C3D        17.6050  -21.4320   -3.2900 C.3       1 NAJ403      0.0000 
     32 O3D        18.8180  -21.3180   -4.0060 O.3       1 NAJ403      0.0000 
     33 C2D        17.3650  -20.1310   -2.5330 C.3       1 NAJ403      0.0000 
     34 O2D        18.5500  -19.6030   -1.9960 O.3       1 NAJ403      0.0000 
     35 C1D        16.7620  -19.2810   -3.6290 C.3       1 NAJ403      0.0000 
     36 N1N        15.9850  -18.1450   -3.1820 N.pl3     1 NAJ403      0.0000 
     37 C2N        16.0440  -17.0290   -3.9440 C.ar      1 NAJ403      0.0000 
     38 C3N        15.2630  -15.9210   -3.6580 C.ar      1 NAJ403      0.0000 
     39 C7N        15.2720  -14.7080   -4.5000 C.2       1 NAJ403      0.0000 
     40 O7N        14.7950  -13.6540   -4.0370 O.2       1 NAJ403      0.0000 
     41 N7N        15.7660  -14.8010   -5.7450 N.am      1 NAJ403      0.0000 
     42 C4N        14.3450  -16.0080   -2.5690 C.ar      1 NAJ403      0.0000 
     43 C5N        14.2280  -17.2070   -1.8890 C.ar      1 NAJ403      0.0000 
     44 C6N        14.9970  -18.2960   -2.2150 C.ar      1 NAJ403      0.0000 
@<TRIPOS>BOND
     1    1    2 ar   
     2    1    3 ar   
     3    1    4 1    
     4    1   23 1    
     5    4    5 1    
     6    5    6 1    
     7    6    7 1    
     8    6    8 1    
     9    7   12 1    
    10    8    9 1    
    11    8   10 1    
    12   10   11 1    
    13   10   12 1    
    14   12   13 1    
    15   13   14 1    
    16   13   22 1    
    17   14   15 2    
    18   15   16 1    
    19   16   17 ar   
    20   16   22 ar   
    21   17   18 1    
    22   17   19 ar   
    23   19   20 ar   
    24   20   21 ar   
    25   21   22 ar   
    26   23   24 1    
    27   24   25 ar   
    28   24   26 ar   
    29   24   27 1    
    30   27   28 1    
    31   28   29 1    
    32   29   30 1    
    33   29   31 1    
    34   30   35 1    
    35   31   32 1    
    36   31   33 1    
    37   33   34 1    
    38   33   35 1    
    39   35   36 1    
    40   36   37 ar   
    41   36   44 ar   
    42   37   38 ar   
    43   38   39 1    
    44   38   42 ar   
    45   39   40 2    
    46   39   41 am   
    47   42   43 ar   
    48   43   44 ar   
@<TRIPOS>SUBSTRUCTURE
     1 NAJ403      1 GROUP   
@<TRIPOS>SET

