#    Name: 5xoq_1_GLY_PHE_SER_GLY_GLY_ASP_GLY_ILE_CAVITY_N1_6
#    Modification time : Fri May 22 19:12:20 2020

@<TRIPOS>MOLECULE
5xoq_1_GLY_PHE_SER_GLY_GLY_ASP_GLY_ILE_CAVITY_N1_6
   79     0     5     0     0
SMALL
NO_CHARGES


@<TRIPOS>ATOM
      1 OG         55.1700  105.4700   18.3800 O.3       1 SER1        0.0000 
      2 OG         55.6600  104.0700   18.6200 O.3       1 SER1        0.0000 
      3 OG         54.4800  103.8100   19.5100 O.3       1 SER1        0.0000 
      4 OG         55.4800  107.3400   19.3200 O.3       1 SER1        0.0000 
      5 OG         55.9700  105.9400   19.5600 O.3       1 SER1        0.0000 
      6 OG         59.9800  105.3100   17.1100 O.3       1 SER1        0.0000 
      7 OG         56.4500  104.5400   19.8000 O.3       1 SER1        0.0000 
      8 OG         56.2800  107.8200   20.5000 O.3       1 SER1        0.0000 
      9 OG         56.7600  106.4200   20.7400 O.3       1 SER1        0.0000 
     10 OG         57.2500  105.0200   20.9800 O.3       1 SER1        0.0000 
     11 N          55.4500  106.4300   13.9900 N.am      2 ALA2        0.0000 
     12 N          57.3500  109.2500   17.3000 N.am      2 ALA2        0.0000 
     13 N          60.4700  103.9100   17.3500 N.am      2 ALA2        0.0000 
     14 N          57.1800  112.5300   18.0000 N.am      2 ALA2        0.0000 
     15 O          54.8200  112.0200   19.7900 O.2       2 ALA2        0.0000 
     16 N          57.6600  111.1300   18.2400 N.am      2 ALA2        0.0000 
     17 N          61.2600  104.3800   18.5300 N.am      2 ALA2        0.0000 
     18 N          56.8000  112.7500   20.0800 N.am      2 ALA2        0.0000 
     19 O          57.7600  109.9500   20.5500 O.2       2 ALA2        0.0000 
     20 O          58.2500  108.5500   20.7900 O.2       2 ALA2        0.0000 
     21 N          57.5600  106.8900   21.9200 N.am      2 ALA2        0.0000 
     22 N          62.0500  104.8600   19.7100 N.am      2 ALA2        0.0000 
     23 N          62.5400  103.4600   19.9500 N.am      2 ALA2        0.0000 
     24 O          60.5000  104.8200   22.6800 O.2       2 ALA2        0.0000 
     25 CZ         53.3100  108.9700   14.4100 C.ar      3 PHE5        0.0000 
     26 CZ         53.7900  107.5700   14.6500 C.ar      3 PHE5        0.0000 
     27 CZ         54.1000  109.4500   15.5900 C.ar      3 PHE5        0.0000 
     28 CZ         52.9200  109.1900   16.4900 C.ar      3 PHE5        0.0000 
     29 CZ         54.9000  109.9200   16.7700 C.ar      3 PHE5        0.0000 
     30 CZ         53.7200  109.6700   17.6700 C.ar      3 PHE5        0.0000 
     31 CZ         56.3800  112.0500   16.8200 C.ar      3 PHE5        0.0000 
     32 CZ         55.6900  110.4000   17.9500 C.ar      3 PHE5        0.0000 
     33 CZ         56.0000  112.2700   18.9000 C.ar      3 PHE5        0.0000 
     34 CZ         60.7800  105.7800   18.2900 C.ar      3 PHE5        0.0000 
     35 CA         52.1300  108.7100   15.3100 C.3       4 GLY6        0.0000 
     36 CA         54.2800  106.1700   14.8900 C.3       4 GLY6        0.0000 
     37 CA         54.7600  104.7700   15.1300 C.3       4 GLY6        0.0000 
     38 CA         54.5900  108.0500   15.8300 C.3       4 GLY6        0.0000 
     39 CA         53.4100  107.7900   16.7300 C.3       4 GLY6        0.0000 
     40 CA         55.0700  106.6500   16.0700 C.3       4 GLY6        0.0000 
     41 CA         55.5500  105.2500   16.3100 C.3       4 GLY6        0.0000 
     42 CA         54.3800  104.9900   17.2000 C.3       4 GLY6        0.0000 
     43 CA         54.8600  103.5900   17.4400 C.3       4 GLY6        0.0000 
     44 CA         56.0700  110.1800   15.8800 C.3       4 GLY6        0.0000 
     45 CA         54.2000  108.2700   17.9100 C.3       4 GLY6        0.0000 
     46 CA         54.6900  106.8700   18.1400 C.3       4 GLY6        0.0000 
     47 CA         54.0000  105.2100   19.2800 C.3       4 GLY6        0.0000 
     48 CA         56.8700  110.6500   17.0600 C.3       4 GLY6        0.0000 
     49 CA         57.2800  111.3500   20.3100 C.3       4 GLY6        0.0000 
     50 CA         56.1000  111.0900   21.2100 C.3       4 GLY6        0.0000 
     51 CA         56.5900  109.6900   21.4500 C.3       4 GLY6        0.0000 
     52 CA         57.0700  108.2900   21.6800 C.3       4 GLY6        0.0000 
     53 CA         58.7300  107.1500   21.0300 C.3       4 GLY6        0.0000 
     54 CA         61.5700  106.2600   19.4800 C.3       4 GLY6        0.0000 
     55 CA         60.3900  106.0000   20.3700 C.3       4 GLY6        0.0000 
     56 CA         59.2200  105.7500   21.2600 C.3       4 GLY6        0.0000 
     57 CA         61.6700  105.0800   21.7900 C.3       4 GLY6        0.0000 
     58 DU         55.3800  108.5200   17.0100 H         5 CUB7        0.0000 
     59 DU         55.8600  107.1200   17.2500 H         5 CUB7        0.0000 
     60 DU         56.3500  105.7200   17.4900 H         5 CUB7        0.0000 
     61 DU         56.1700  109.0000   18.1900 H         5 CUB7        0.0000 
     62 DU         56.6600  107.6000   18.4300 H         5 CUB7        0.0000 
     63 DU         58.3200  106.4500   17.7700 H         5 CUB7        0.0000 
     64 DU         57.1400  106.2000   18.6700 H         5 CUB7        0.0000 
     65 DU         58.8000  105.0500   18.0100 H         5 CUB7        0.0000 
     66 DU         57.6300  104.8000   18.9000 H         5 CUB7        0.0000 
     67 DU         59.2900  103.6500   18.2500 H         5 CUB7        0.0000 
     68 DU         56.9400  103.1400   20.0400 H         5 CUB7        0.0000 
     69 DU         56.4900  110.8700   19.1300 H         5 CUB7        0.0000 
     70 DU         56.9700  109.4700   19.3700 H         5 CUB7        0.0000 
     71 DU         57.4500  108.0700   19.6100 H         5 CUB7        0.0000 
     72 DU         57.9400  106.6700   19.8500 H         5 CUB7        0.0000 
     73 DU         59.6000  105.5300   19.1900 H         5 CUB7        0.0000 
     74 DU         58.4200  105.2700   20.0800 H         5 CUB7        0.0000 
     75 DU         60.0800  104.1300   19.4300 H         5 CUB7        0.0000 
     76 DU         60.8800  104.6000   20.6100 H         5 CUB7        0.0000 
     77 DU         59.7000  104.3500   21.5000 H         5 CUB7        0.0000 
     78 DU         61.3600  103.2000   20.8500 H         5 CUB7        0.0000 
     79 DU         60.9800  103.4200   22.9200 H         5 CUB7        0.0000 
@<TRIPOS>BOND
@<TRIPOS>SUBSTRUCTURE
     1 SER1        1 GROUP   
     2 ALA2       11 GROUP   
     3 PHE5       25 GROUP   
     4 GLY6       35 GROUP   
     5 CUB7       58 GROUP   
@<TRIPOS>SET

