#    Name: 5xoq_1_GLY_PHE_SER_GLY_GLY_ASP_GLY_ILE
#    Modification time : Fri May 22 19:12:18 2020

@<TRIPOS>MOLECULE
5xoq_1_GLY_PHE_SER_GLY_GLY_ASP_GLY_ILE
   50    50     8     0     0
SMALL
NO_CHARGES


@<TRIPOS>ATOM
      1 N          62.2090   99.5370   18.2340 N.4       1 GLY260      0.0000 
      2 CA         62.2820  100.9560   17.9220 C.3       1 GLY260      0.0000 
      3 C          60.9360  101.6300   17.6730 C.2       1 GLY260      0.0000 
      4 O          59.8820  101.0240   17.8670 O.2       1 GLY260      0.0000 
      5 N          60.9750  102.8860   17.2260 N.am      2 PHE261      0.0000 
      6 CA         59.7870  103.7110   17.0470 C.3       2 PHE261      0.0000 
      7 C          59.5150  103.9580   15.5700 C.2       2 PHE261      0.0000 
      8 O          60.4450  104.2080   14.7910 O.2       2 PHE261      0.0000 
      9 CB         59.9540  105.0610   17.7510 C.3       2 PHE261      0.0000 
     10 CG         60.3290  104.9460   19.1950 C.ar      2 PHE261      0.0000 
     11 CD1        59.3690  104.6190   20.1470 C.ar      2 PHE261      0.0000 
     12 CD2        61.6370  105.1740   19.6060 C.ar      2 PHE261      0.0000 
     13 CE1        59.7060  104.5140   21.4870 C.ar      2 PHE261      0.0000 
     14 CE2        61.9860  105.0710   20.9490 C.ar      2 PHE261      0.0000 
     15 CZ         61.0160  104.7400   21.8880 C.ar      2 PHE261      0.0000 
     16 N          58.2350  103.8980   15.2000 N.am      3 SER262      0.0000 
     17 CA         57.7630  104.3550   13.8980 C.3       3 SER262      0.0000 
     18 C          56.2720  104.6630   14.0040 C.2       3 SER262      0.0000 
     19 O          55.6170  104.3330   14.9990 O.2       3 SER262      0.0000 
     20 CB         58.0410  103.3200   12.8010 C.3       3 SER262      0.0000 
     21 OG         57.2540  102.1590   12.9960 O.3       3 SER262      0.0000 
     22 N          55.7420  105.3130   12.9680 N.am      4 GLY263      0.0000 
     23 CA         54.3190  105.6190   12.9150 C.3       4 GLY263      0.0000 
     24 C          53.8370  106.6820   13.8810 C.2       4 GLY263      0.0000 
     25 O          52.6250  106.8170   14.0790 O.2       4 GLY263      0.0000 
     26 N          54.7450  107.4490   14.4860 N.am      5 GLY264      0.0000 
     27 CA         54.3990  108.4130   15.5110 C.3       5 GLY264      0.0000 
     28 C          54.6330  107.9260   16.9250 C.2       5 GLY264      0.0000 
     29 O          54.4380  108.6970   17.8710 O.2       5 GLY264      0.0000 
     30 N          55.0150  106.6660   17.0850 N.am      6 ASP265      0.0000 
     31 CA         55.3820  106.1160   18.3820 C.3       6 ASP265      0.0000 
     32 C          56.5100  106.9300   19.0150 C.2       6 ASP265      0.0000 
     33 O          57.4530  107.3460   18.3340 O.2       6 ASP265      0.0000 
     34 CB         55.8170  104.6640   18.1850 C.3       6 ASP265      0.0000 
     35 CG         55.5610  103.7930   19.3910 C.2       6 ASP265      0.0000 
     36 OD1        54.9120  104.2420   20.3590 O.co2     6 ASP265      0.0000 
     37 OD2        56.0040  102.6280   19.3490 O.co2     6 ASP265      0.0000 
     38 N          56.4030  107.1620   20.3210 N.am      7 GLY266      0.0000 
     39 CA         57.4690  107.7680   21.0930 C.3       7 GLY266      0.0000 
     40 C          57.4350  109.2740   21.1880 C.2       7 GLY266      0.0000 
     41 O          58.3990  109.8680   21.6970 O.2       7 GLY266      0.0000 
     42 N          56.3680  109.9070   20.7110 N.am      8 ILE267      0.0000 
     43 CA         56.2640  111.3550   20.6320 C.3       8 ILE267      0.0000 
     44 C          55.0870  111.8380   21.4950 C.2       8 ILE267      0.0000 
     45 O          53.9150  111.5060   21.2530 O.2       8 ILE267      0.0000 
     46 CB         56.1180  111.8050   19.1520 C.3       8 ILE267      0.0000 
     47 CG1        57.3470  111.3690   18.3380 C.3       8 ILE267      0.0000 
     48 CG2        55.8930  113.3180   19.0470 C.3       8 ILE267      0.0000 
     49 CD1        57.2100  111.6250   16.8410 C.3       8 ILE267      0.0000 
     50 OXT        55.2790  112.5710   22.4790 O.3       8 ILE267      0.0000 
@<TRIPOS>BOND
     1    1    2 1    
     2    2    3 1    
     3    3    4 2    
     4    3    5 am   
     5    5    6 1    
     6    6    7 1    
     7    6    9 1    
     8    7    8 2    
     9    7   16 am   
    10    9   10 1    
    11   10   11 ar   
    12   10   12 ar   
    13   11   13 ar   
    14   12   14 ar   
    15   13   15 ar   
    16   14   15 ar   
    17   16   17 1    
    18   17   18 1    
    19   17   20 1    
    20   18   19 2    
    21   18   22 am   
    22   20   21 1    
    23   22   23 1    
    24   23   24 1    
    25   24   25 2    
    26   24   26 am   
    27   26   27 1    
    28   27   28 1    
    29   28   29 2    
    30   28   30 am   
    31   30   31 1    
    32   31   32 1    
    33   31   34 1    
    34   32   33 2    
    35   32   38 am   
    36   34   35 1    
    37   35   36 ar   
    38   35   37 ar   
    39   38   39 1    
    40   39   40 1    
    41   40   41 2    
    42   40   42 am   
    43   42   43 1    
    44   43   44 1    
    45   43   46 1    
    46   44   45 2    
    47   44   50 1    
    48   46   47 1    
    49   46   48 1    
    50   47   49 1    
@<TRIPOS>SUBSTRUCTURE
     1 GLY260      1 RESIDUE 
     2 PHE261      5 RESIDUE 
     3 SER262     16 RESIDUE 
     4 GLY263     22 RESIDUE 
     5 GLY264     26 RESIDUE 
     6 ASP265     30 RESIDUE 
     7 GLY266     38 RESIDUE 
     8 ILE267     42 RESIDUE 
@<TRIPOS>SET

