#    Name: 6ocz_10_DMF_CAVITY_N1_4
#    Modification time : Fri May 22 19:35:30 2020

@<TRIPOS>MOLECULE
6ocz_10_DMF_CAVITY_N1_4
   37     0     6     0     0
SMALL
NO_CHARGES


@<TRIPOS>ATOM
      1 O          74.0400    1.2100  209.5900 O.2       1 ALA2        0.0000 
      2 N          72.9300    3.3100  210.6500 N.am      1 ALA2        0.0000 
      3 OD1        69.0500    1.4200  208.1700 O.co2     2 ASP3        0.0000 
      4 OD1        71.5500    1.3100  208.8800 O.co2     2 ASP3        0.0000 
      5 OD1        70.3800    1.2900  209.8200 O.co2     2 ASP3        0.0000 
      6 OD1        72.2400    2.3100  209.7600 O.co2     2 ASP3        0.0000 
      7 NZ         68.4200    2.5400  207.4000 N.4       3 LYS4        0.0000 
      8 NZ         69.7400    2.4100  209.0500 N.4       3 LYS4        0.0000 
      9 NZ         71.6000    3.4300  208.9900 N.4       3 LYS4        0.0000 
     10 NZ         71.0700    2.2900  210.7000 N.4       3 LYS4        0.0000 
     11 CZ         70.9500   -1.9400  210.4800 C.ar      4 PHE5        0.0000 
     12 CZ         69.7800   -1.9600  211.4200 C.ar      4 PHE5        0.0000 
     13 CZ         72.1800    0.1900  209.6500 C.ar      4 PHE5        0.0000 
     14 CZ         71.0100    0.1700  210.5900 C.ar      4 PHE5        0.0000 
     15 CZ         69.8400    0.1500  211.5300 C.ar      4 PHE5        0.0000 
     16 CZ         70.4800   -0.9700  212.3000 C.ar      4 PHE5        0.0000 
     17 CZ         72.8700    1.1900  210.5300 C.ar      4 PHE5        0.0000 
     18 CZ         71.7000    1.1700  211.4700 C.ar      4 PHE5        0.0000 
     19 CZ         70.5300    1.1500  212.4100 C.ar      4 PHE5        0.0000 
     20 CZ         73.5600    2.1900  211.4100 C.ar      4 PHE5        0.0000 
     21 CZ         72.3900    2.1700  212.3500 C.ar      4 PHE5        0.0000 
     22 CZ         71.2200    2.1500  213.2900 C.ar      4 PHE5        0.0000 
     23 CA         68.3600    0.4200  207.2900 C.3       5 GLY6        0.0000 
     24 CA         68.9900   -0.7000  208.0600 C.3       5 GLY6        0.0000 
     25 CA         69.6300   -1.8200  208.8300 C.3       5 GLY6        0.0000 
     26 CA         69.6900    0.3000  208.9400 C.3       5 GLY6        0.0000 
     27 CA         70.3200   -0.8200  209.7100 C.3       5 GLY6        0.0000 
     28 CA         73.4100    2.3300  208.8300 C.3       5 GLY6        0.0000 
     29 CA         71.7600    3.2900  211.5800 C.3       5 GLY6        0.0000 
     30 CA         71.2800    4.2700  213.4000 C.3       5 GLY6        0.0000 
     31 CA         73.0800    3.1700  213.2300 C.3       5 GLY6        0.0000 
     32 CA         71.9100    3.1500  214.1700 C.3       5 GLY6        0.0000 
     33 CA         72.6100    4.1400  215.0500 C.3       5 GLY6        0.0000 
     34 DU         67.8200   -0.7200  208.9900 H         6 CUB7        0.0000 
     35 DU         67.8800    1.4000  209.1100 H         6 CUB7        0.0000 
     36 DU         68.5200    0.2800  209.8800 H         6 CUB7        0.0000 
     37 DU         69.1500   -0.8400  210.6500 H         6 CUB7        0.0000 
@<TRIPOS>BOND
@<TRIPOS>SUBSTRUCTURE
     1 ALA2        1 GROUP   
     2 ASP3        3 GROUP   
     3 LYS4        7 GROUP   
     4 PHE5       11 GROUP   
     5 GLY6       23 GROUP   
     6 CUB7       34 GROUP   
@<TRIPOS>SET

