#    Name: 6ocz_16_DMF
#    Modification time : Fri May 22 19:35:35 2020

@<TRIPOS>MOLECULE
6ocz_16_DMF
   12    11     1     0     0
SMALL
NO_CHARGES


@<TRIPOS>ATOM
      1 C1         77.1150  -62.0420  227.7830 C.3       1 DMF302      0.0000 
      2 C2         79.4440  -63.0670  227.5720 C.3       1 DMF302      0.0000 
      3 C          77.7700  -63.3170  225.8280 C.2       1 DMF302      0.0000 
      4 O          78.1950  -64.4240  225.4990 O.2       1 DMF302      0.0000 
      5 N          78.0990  -62.8270  227.0210 N.am      1 DMF302      0.0000 
      6 H11        76.1880  -61.9700  227.2150 H         1 DMF302      0.0000 
      7 H12        77.5090  -61.0410  227.9620 H         1 DMF302      0.0000 
      8 H13        76.9200  -62.5320  228.7370 H         1 DMF302      0.0000 
      9 H21        80.0250  -63.6610  226.8660 H         1 DMF302      0.0000 
     10 H22        79.3590  -63.6060  228.5160 H         1 DMF302      0.0000 
     11 H23        79.9430  -62.1130  227.7410 H         1 DMF302      0.0000 
     12 HC         77.1330  -62.7250  225.1720 H         1 DMF302      0.0000 
@<TRIPOS>BOND
     1    1    5 1    
     2    1    6 1    
     3    1    7 1    
     4    1    8 1    
     5    2    5 1    
     6    2    9 1    
     7    2   10 1    
     8    2   11 1    
     9    3    4 2    
    10    3    5 am   
    11    3   12 1    
@<TRIPOS>SUBSTRUCTURE
     1 DMF302      1 GROUP   
@<TRIPOS>SET

