#    Name: 6ocz_16_DMF_CAVITY_N1_4
#    Modification time : Fri May 22 19:35:36 2020

@<TRIPOS>MOLECULE
6ocz_16_DMF_CAVITY_N1_4
   47     0     5     0     0
SMALL
NO_CHARGES


@<TRIPOS>ATOM
      1 N          77.1600  -61.2800  224.2400 N.am      1 ALA2        0.0000 
      2 N          75.9900  -61.3000  225.1800 N.am      1 ALA2        0.0000 
      3 N          76.6300  -62.4200  225.9500 N.am      1 ALA2        0.0000 
      4 N          75.4600  -62.4300  226.8900 N.am      1 ALA2        0.0000 
      5 N          74.2900  -62.4500  227.8300 N.am      1 ALA2        0.0000 
      6 N          76.1500  -61.4400  227.7700 N.am      1 ALA2        0.0000 
      7 N          74.9800  -61.4600  228.7100 N.am      1 ALA2        0.0000 
      8 OD1        76.5700  -64.5300  225.8400 O.co2     2 ASP3        0.0000 
      9 OD1        80.7800  -63.4800  223.9100 O.co2     2 ASP3        0.0000 
     10 OD1        79.6000  -63.5000  224.8500 O.co2     2 ASP3        0.0000 
     11 OD1        78.4300  -63.5200  225.7800 O.co2     2 ASP3        0.0000 
     12 OD1        77.2600  -63.5400  226.7200 O.co2     2 ASP3        0.0000 
     13 OD1        76.0900  -63.5500  227.6600 O.co2     2 ASP3        0.0000 
     14 OD1        74.9200  -63.5700  228.6000 O.co2     2 ASP3        0.0000 
     15 OD1        80.3000  -62.5000  225.7300 O.co2     2 ASP3        0.0000 
     16 OD1        77.9600  -62.5400  227.6000 O.co2     2 ASP3        0.0000 
     17 OD1        76.7900  -62.5600  228.5400 O.co2     2 ASP3        0.0000 
     18 OD1        75.6100  -62.5800  229.4800 O.co2     2 ASP3        0.0000 
     19 OD1        79.7600  -63.6400  227.4300 O.co2     2 ASP3        0.0000 
     20 NZ         74.4400  -62.5900  230.4200 N.4       3 LYS4        0.0000 
     21 NZ         76.9400  -62.7000  231.1300 N.4       3 LYS4        0.0000 
     22 CA         79.3900  -65.4800  222.1400 C.3       4 GLY6        0.0000 
     23 CA         78.2200  -65.4900  223.0800 C.3       4 GLY6        0.0000 
     24 CA         74.7700  -63.4300  226.0100 C.3       4 GLY6        0.0000 
     25 CA         80.0800  -64.4800  223.0300 C.3       4 GLY6        0.0000 
     26 CA         78.9100  -64.5000  223.9600 C.3       4 GLY6        0.0000 
     27 CA         77.7400  -64.5100  224.9000 C.3       4 GLY6        0.0000 
     28 CA         75.4000  -64.5500  226.7800 C.3       4 GLY6        0.0000 
     29 CA         74.2300  -64.5700  227.7200 C.3       4 GLY6        0.0000 
     30 CA         80.1400  -62.3600  223.1400 C.3       4 GLY6        0.0000 
     31 CA         79.0300  -60.2600  224.1900 C.3       4 GLY6        0.0000 
     32 CA         77.8600  -60.2800  225.1300 C.3       4 GLY6        0.0000 
     33 CA         79.6600  -61.3800  224.9600 C.3       4 GLY6        0.0000 
     34 CA         78.4900  -61.4000  225.9000 C.3       4 GLY6        0.0000 
     35 CA         77.3200  -61.4200  226.8300 C.3       4 GLY6        0.0000 
     36 CA         73.8100  -61.4700  229.6500 C.3       4 GLY6        0.0000 
     37 CA         81.4700  -62.4800  224.7900 C.3       4 GLY6        0.0000 
     38 CA         79.1300  -62.5200  226.6700 C.3       4 GLY6        0.0000 
     39 CA         76.3100  -61.5800  230.3600 C.3       4 GLY6        0.0000 
     40 DU         76.4700  -62.2700  223.3600 H         5 CUB7        0.0000 
     41 DU         79.4500  -63.3600  222.2600 H         5 CUB7        0.0000 
     42 DU         78.2800  -63.3800  223.1900 H         5 CUB7        0.0000 
     43 DU         77.1100  -63.3900  224.1300 H         5 CUB7        0.0000 
     44 DU         75.9400  -63.4100  225.0700 H         5 CUB7        0.0000 
     45 DU         78.3400  -61.2600  223.3100 H         5 CUB7        0.0000 
     46 DU         78.9700  -62.3800  224.0800 H         5 CUB7        0.0000 
     47 DU         77.8000  -62.4000  225.0100 H         5 CUB7        0.0000 
@<TRIPOS>BOND
@<TRIPOS>SUBSTRUCTURE
     1 ALA2        1 GROUP   
     2 ASP3        8 GROUP   
     3 LYS4       20 GROUP   
     4 GLY6       22 GROUP   
     5 CUB7       40 GROUP   
@<TRIPOS>SET

