#    Name: 6ocz_10_DMF
#    Modification time : Fri May 22 19:35:30 2020

@<TRIPOS>MOLECULE
6ocz_10_DMF
   12    11     1     0     0
SMALL
NO_CHARGES


@<TRIPOS>ATOM
      1 C1         73.3520    2.8700  212.1340 C.3       1 DMF303      0.0000 
      2 C2         73.7820    1.7840  209.8570 C.3       1 DMF303      0.0000 
      3 C          71.5320    2.2000  210.6870 C.2       1 DMF303      0.0000 
      4 O          71.0830    1.3250  209.9430 O.2       1 DMF303      0.0000 
      5 N          72.8460    2.2800  210.8820 N.am      1 DMF303      0.0000 
      6 H11        72.5120    3.1750  212.7580 H         1 DMF303      0.0000 
      7 H12        73.9680    3.7390  211.9030 H         1 DMF303      0.0000 
      8 H13        73.9520    2.1320  212.6670 H         1 DMF303      0.0000 
      9 H21        73.2180    1.3880  209.0120 H         1 DMF303      0.0000 
     10 H22        74.4020    0.9940  210.2820 H         1 DMF303      0.0000 
     11 H23        74.4170    2.6020  209.5180 H         1 DMF303      0.0000 
     12 HC         70.8810    2.9140  211.1910 H         1 DMF303      0.0000 
@<TRIPOS>BOND
     1    1    5 1    
     2    1    6 1    
     3    1    7 1    
     4    1    8 1    
     5    2    5 1    
     6    2    9 1    
     7    2   10 1    
     8    2   11 1    
     9    3    4 2    
    10    3    5 am   
    11    3   12 1    
@<TRIPOS>SUBSTRUCTURE
     1 DMF303      1 GROUP   
@<TRIPOS>SET

