#    Name: 6ocz_10_DMF_CAVITY_N1_ALL
#    Modification time : Fri May 22 19:35:30 2020

@<TRIPOS>MOLECULE
6ocz_10_DMF_CAVITY_N1_ALL
   76     0     7     0     0
SMALL
NO_CHARGES


@<TRIPOS>ATOM
      1 OG         70.4200   -3.0800  212.1800 O.3       1 SER1        0.0000 
      2 N          63.9500   -2.6100  206.5200 N.am      2 ALA2        0.0000 
      3 N          69.5700   -3.9400  208.7100 N.am      2 ALA2        0.0000 
      4 O          74.0400    1.2100  209.5900 O.2       2 ALA2        0.0000 
      5 N          72.9300    3.3100  210.6500 N.am      2 ALA2        0.0000 
      6 OD1        69.0500    1.4200  208.1700 O.co2     3 ASP3        0.0000 
      7 OD1        71.5500    1.3100  208.8800 O.co2     3 ASP3        0.0000 
      8 OD1        70.3800    1.2900  209.8200 O.co2     3 ASP3        0.0000 
      9 OD1        72.2400    2.3100  209.7600 O.co2     3 ASP3        0.0000 
     10 NZ         68.4200    2.5400  207.4000 N.4       4 LYS4        0.0000 
     11 NZ         69.7400    2.4100  209.0500 N.4       4 LYS4        0.0000 
     12 NZ         71.6000    3.4300  208.9900 N.4       4 LYS4        0.0000 
     13 NZ         71.0700    2.2900  210.7000 N.4       4 LYS4        0.0000 
     14 CZ         65.2700   -2.7300  208.1700 C.ar      5 PHE5        0.0000 
     15 CZ         64.1000   -2.7500  209.1100 C.ar      5 PHE5        0.0000 
     16 CZ         67.0800   -3.8300  208.0000 C.ar      5 PHE5        0.0000 
     17 CZ         67.7700   -2.8400  208.8800 C.ar      5 PHE5        0.0000 
     18 CZ         66.6000   -2.8600  209.8200 C.ar      5 PHE5        0.0000 
     19 CZ         65.4300   -2.8700  210.7600 C.ar      5 PHE5        0.0000 
     20 CZ         68.4000   -3.9600  209.6500 C.ar      5 PHE5        0.0000 
     21 CZ         68.4600   -1.8400  209.7600 C.ar      5 PHE5        0.0000 
     22 CZ         67.2900   -1.8600  210.7000 C.ar      5 PHE5        0.0000 
     23 CZ         69.0900   -2.9600  210.5300 C.ar      5 PHE5        0.0000 
     24 CZ         70.9500   -1.9400  210.4800 C.ar      5 PHE5        0.0000 
     25 CZ         69.7800   -1.9600  211.4200 C.ar      5 PHE5        0.0000 
     26 CZ         72.1800    0.1900  209.6500 C.ar      5 PHE5        0.0000 
     27 CZ         71.0100    0.1700  210.5900 C.ar      5 PHE5        0.0000 
     28 CZ         69.8400    0.1500  211.5300 C.ar      5 PHE5        0.0000 
     29 CZ         70.4800   -0.9700  212.3000 C.ar      5 PHE5        0.0000 
     30 CZ         71.1100   -2.0900  213.0700 C.ar      5 PHE5        0.0000 
     31 CZ         72.8700    1.1900  210.5300 C.ar      5 PHE5        0.0000 
     32 CZ         71.7000    1.1700  211.4700 C.ar      5 PHE5        0.0000 
     33 CZ         70.5300    1.1500  212.4100 C.ar      5 PHE5        0.0000 
     34 CZ         73.5600    2.1900  211.4100 C.ar      5 PHE5        0.0000 
     35 CZ         72.3900    2.1700  212.3500 C.ar      5 PHE5        0.0000 
     36 CZ         71.2200    2.1500  213.2900 C.ar      5 PHE5        0.0000 
     37 CZ         70.6900    1.0100  215.0000 C.ar      5 PHE5        0.0000 
     38 CA         65.7500   -3.7100  206.3500 C.3       6 GLY6        0.0000 
     39 CA         65.1700   -0.4700  205.6900 C.3       6 GLY6        0.0000 
     40 CA         66.9800   -1.5800  205.5200 C.3       6 GLY6        0.0000 
     41 CA         65.8100   -1.5900  206.4600 C.3       6 GLY6        0.0000 
     42 CA         66.4400   -2.7100  207.2300 C.3       6 GLY6        0.0000 
     43 CA         64.0600    1.6200  206.7400 C.3       6 GLY6        0.0000 
     44 CA         67.0300    0.5400  205.6400 C.3       6 GLY6        0.0000 
     45 CA         65.8600    0.5200  206.5700 C.3       6 GLY6        0.0000 
     46 CA         67.6700   -0.5800  206.4000 C.3       6 GLY6        0.0000 
     47 CA         67.1300   -1.7200  208.1100 C.3       6 GLY6        0.0000 
     48 CA         68.9400   -2.8200  207.9400 C.3       6 GLY6        0.0000 
     49 CA         64.7500    2.6200  207.6200 C.3       6 GLY6        0.0000 
     50 CA         67.7200    1.5400  206.5200 C.3       6 GLY6        0.0000 
     51 CA         66.5500    1.5200  207.4600 C.3       6 GLY6        0.0000 
     52 CA         65.3800    1.5000  208.3900 C.3       6 GLY6        0.0000 
     53 CA         68.3600    0.4200  207.2900 C.3       6 GLY6        0.0000 
     54 CA         68.9900   -0.7000  208.0600 C.3       6 GLY6        0.0000 
     55 CA         69.6300   -1.8200  208.8300 C.3       6 GLY6        0.0000 
     56 CA         70.2600   -2.9400  209.6000 C.3       6 GLY6        0.0000 
     57 CA         67.2500    2.5200  208.3400 C.3       6 GLY6        0.0000 
     58 CA         69.6900    0.3000  208.9400 C.3       6 GLY6        0.0000 
     59 CA         70.3200   -0.8200  209.7100 C.3       6 GLY6        0.0000 
     60 CA         73.4100    2.3300  208.8300 C.3       6 GLY6        0.0000 
     61 CA         71.7600    3.2900  211.5800 C.3       6 GLY6        0.0000 
     62 CA         71.2800    4.2700  213.4000 C.3       6 GLY6        0.0000 
     63 CA         73.0800    3.1700  213.2300 C.3       6 GLY6        0.0000 
     64 CA         71.9100    3.1500  214.1700 C.3       6 GLY6        0.0000 
     65 CA         72.6100    4.1400  215.0500 C.3       6 GLY6        0.0000 
     66 DU         64.0000   -0.4900  206.6300 H         7 CUB7        0.0000 
     67 DU         64.6400   -1.6100  207.4000 H         7 CUB7        0.0000 
     68 DU         64.6900    0.5000  207.5100 H         7 CUB7        0.0000 
     69 DU         66.5000   -0.6000  207.3400 H         7 CUB7        0.0000 
     70 DU         65.9600   -1.7400  209.0500 H         7 CUB7        0.0000 
     71 DU         67.1900    0.4000  208.2200 H         7 CUB7        0.0000 
     72 DU         67.8200   -0.7200  208.9900 H         7 CUB7        0.0000 
     73 DU         66.6500   -0.7400  209.9300 H         7 CUB7        0.0000 
     74 DU         67.8800    1.4000  209.1100 H         7 CUB7        0.0000 
     75 DU         68.5200    0.2800  209.8800 H         7 CUB7        0.0000 
     76 DU         69.1500   -0.8400  210.6500 H         7 CUB7        0.0000 
@<TRIPOS>BOND
@<TRIPOS>SUBSTRUCTURE
     1 SER1        1 GROUP   
     2 ALA2        2 GROUP   
     3 ASP3        6 GROUP   
     4 LYS4       10 GROUP   
     5 PHE5       14 GROUP   
     6 GLY6       38 GROUP   
     7 CUB7       66 GROUP   
@<TRIPOS>SET

