#    Name: 5xxx_18_GTP
#    Modification time : Fri May 22 19:20:28 2020

@<TRIPOS>MOLECULE
5xxx_18_GTP
   32    34     1     0     1
SMALL
NO_CHARGES


@<TRIPOS>ATOM
      1 PG        609.2630  520.2430  612.0270 P.3       1 GTP501      0.0000 
      2 O1G       607.9990  519.7640  611.3410 O.co2     1 GTP501      0.0000 
      3 O2G       609.6030  521.6990  611.6840 O.co2     1 GTP501      0.0000 
      4 O3G       610.4950  519.4650  611.5820 O.co2     1 GTP501      0.0000 
      5 O3B       608.9410  519.9990  613.6350 O.3       1 GTP501      0.0000 
      6 PB        608.5300  518.5680  614.3400 P.3       1 GTP501      0.0000 
      7 O1B       607.1050  518.5370  614.6450 O.co2     1 GTP501      0.0000 
      8 O2B       609.5200  518.3800  615.4780 O.co2     1 GTP501      0.0000 
      9 O3A       608.9510  517.5030  613.3280 O.3       1 GTP501      0.0000 
     10 PA        608.6820  516.0150  613.1310 P.3       1 GTP501      0.0000 
     11 O1A       609.3810  515.5920  611.8840 O.co2     1 GTP501      0.0000 
     12 O2A       607.2420  515.7000  613.1980 O.co2     1 GTP501      0.0000 
     13 O5'       609.4950  515.3160  614.3810 O.3       1 GTP501      0.0000 
     14 C5'       609.3760  513.9050  614.3960 C.3       1 GTP501      0.0000 
     15 C4'       610.0930  513.1950  615.4990 C.3       1 GTP501      0.0000 
     16 O4'       609.2510  513.0960  616.6750 O.3       1 GTP501      0.0000 
     17 C3'       610.3560  511.7730  615.0570 C.3       1 GTP501      0.0000 
     18 O3'       611.4760  511.2610  615.7430 O.3       1 GTP501      0.0000 
     19 C2'       609.0540  511.0810  615.4240 C.3       1 GTP501      0.0000 
     20 O2'       609.2980  509.6920  615.6480 O.3       1 GTP501      0.0000 
     21 C1'       608.6050  511.8100  616.6980 C.3       1 GTP501      0.0000 
     22 N9        607.1540  512.0330  616.8280 N.pl3     1 GTP501      0.0000 
     23 C8        606.3380  512.7050  615.9510 C.2       1 GTP501      0.0000 
     24 N7        605.0890  512.7440  616.3260 N.2       1 GTP501      0.0000 
     25 C5        605.0680  512.0500  617.5110 C.2       1 GTP501      0.0000 
     26 C6        604.0070  511.7510  618.3650 C.2       1 GTP501      0.0000 
     27 O6        602.8330  512.0850  618.2190 O.2       1 GTP501      0.0000 
     28 N1        604.3960  511.0090  619.5030 N.am      1 GTP501      0.0000 
     29 C2        605.6810  510.5930  619.7650 C.2       1 GTP501      0.0000 
     30 N2        605.8620  509.9060  620.8560 N.pl3     1 GTP501      0.0000 
     31 N3        606.7050  510.8600  618.9550 N.2       1 GTP501      0.0000 
     32 C4        606.3440  511.5930  617.8520 C.2       1 GTP501      0.0000 
@<TRIPOS>BOND
     1    1    2 ar   
     2    1    3 ar   
     3    1    4 ar   
     4    1    5 1    
     5    5    6 1    
     6    6    7 ar   
     7    6    8 ar   
     8    6    9 1    
     9    9   10 1    
    10   10   11 ar   
    11   10   12 ar   
    12   10   13 1    
    13   13   14 1    
    14   14   15 1    
    15   15   16 1    
    16   15   17 1    
    17   16   21 1    
    18   17   18 1    
    19   17   19 1    
    20   19   20 1    
    21   19   21 1    
    22   21   22 1    
    23   22   23 1    
    24   22   32 1    
    25   23   24 2    
    26   24   25 1    
    27   25   26 1    
    28   25   32 2    
    29   26   27 2    
    30   26   28 am   
    31   28   29 1    
    32   29   30 1    
    33   29   31 2    
    34   31   32 1    
@<TRIPOS>SUBSTRUCTURE
     1 GTP501      1 GROUP   
@<TRIPOS>SET
ATOM$ORANGE STATIC     ATOMS   COLORGROUP SYSTEM 
20 14 14 15 15 17 17 19 19 21 21 23 23 25 25 26 26 29 \
29 32 32 

