#    Name: 5xxx_1_G2P
#    Modification time : Fri May 22 19:17:12 2020

@<TRIPOS>MOLECULE
5xxx_1_G2P
   32    34     1     0     0
SMALL
NO_CHARGES


@<TRIPOS>ATOM
      1 PG        584.6600  569.4620  479.0750 P.3       1 G2P501      0.0000 
      2 O1G       583.6800  570.7390  478.8060 O.co2     1 G2P501      0.0000 
      3 O2G       584.1800  568.2750  478.4800 O.co2     1 G2P501      0.0000 
      4 O3G       586.0500  569.9060  478.6240 O.co2     1 G2P501      0.0000 
      5 O3B       584.6550  569.2620  480.7270 O.3       1 G2P501      0.0000 
      6 PB        584.3790  567.9670  481.6280 P.3       1 G2P501      0.0000 
      7 O1B       584.5680  568.5590  483.1100 O.co2     1 G2P501      0.0000 
      8 O2B       583.0720  567.1790  481.0630 O.co2     1 G2P501      0.0000 
      9 C3A       585.4860  566.8720  481.2700 C.3       1 G2P501      0.0000 
     10 PA        585.3630  565.2360  481.8760 P.3       1 G2P501      0.0000 
     11 O1A       585.0010  565.5240  483.4280 O.co2     1 G2P501      0.0000 
     12 O2A       584.4040  564.2810  481.4820 O.co2     1 G2P501      0.0000 
     13 O5'       587.0030  564.9560  482.0360 O.3       1 G2P501      0.0000 
     14 C5'       587.9900  564.2330  481.6830 C.3       1 G2P501      0.0000 
     15 C4'       588.7120  563.9540  482.9270 C.3       1 G2P501      0.0000 
     16 O4'       587.9460  563.1920  483.9780 O.3       1 G2P501      0.0000 
     17 C3'       589.6590  562.6750  482.7050 C.3       1 G2P501      0.0000 
     18 O3'       590.8700  562.4670  483.7530 O.3       1 G2P501      0.0000 
     19 C2'       588.7160  561.5750  482.4740 C.3       1 G2P501      0.0000 
     20 O2'       589.5850  560.6510  482.2940 O.3       1 G2P501      0.0000 
     21 C1'       587.9890  561.7610  483.9330 C.3       1 G2P501      0.0000 
     22 N9        586.7050  561.2250  483.9680 N.pl3     1 G2P501      0.0000 
     23 C8        585.7560  561.4340  483.1350 C.2       1 G2P501      0.0000 
     24 N7        584.6890  560.8450  483.3960 N.2       1 G2P501      0.0000 
     25 C5        585.0150  560.1440  484.5390 C.2       1 G2P501      0.0000 
     26 C6        584.2400  559.1890  485.4390 C.2       1 G2P501      0.0000 
     27 O6        583.1180  558.9340  485.1870 O.2       1 G2P501      0.0000 
     28 N1        584.9520  558.6280  486.5130 N.am      1 G2P501      0.0000 
     29 C2        586.3590  558.8560  486.8960 C.2       1 G2P501      0.0000 
     30 N2        586.8650  558.1070  488.0990 N.pl3     1 G2P501      0.0000 
     31 N3        587.0290  559.8280  486.0210 N.2       1 G2P501      0.0000 
     32 C4        586.3860  560.4320  484.8810 C.2       1 G2P501      0.0000 
@<TRIPOS>BOND
     1    1    2 ar   
     2    1    3 ar   
     3    1    4 ar   
     4    1    5 1    
     5    5    6 1    
     6    6    7 ar   
     7    6    8 ar   
     8    6    9 1    
     9    9   10 1    
    10   10   11 ar   
    11   10   12 ar   
    12   10   13 1    
    13   13   14 1    
    14   14   15 1    
    15   15   16 1    
    16   15   17 1    
    17   16   21 1    
    18   17   18 1    
    19   17   19 1    
    20   19   20 1    
    21   19   21 1    
    22   21   22 1    
    23   22   23 1    
    24   22   32 1    
    25   23   24 2    
    26   24   25 1    
    27   25   26 1    
    28   25   32 2    
    29   26   27 2    
    30   26   28 am   
    31   28   29 1    
    32   29   30 1    
    33   29   31 2    
    34   31   32 1    
@<TRIPOS>SUBSTRUCTURE
     1 G2P501      1 GROUP   
@<TRIPOS>SET

