#    Name: 5xxx_4_G2P
#    Modification time : Fri May 22 19:17:49 2020

@<TRIPOS>MOLECULE
5xxx_4_G2P
   32    34     1     0     0
SMALL
NO_CHARGES


@<TRIPOS>ATOM
      1 PG        541.6220  601.9050  387.5960 P.3       1 G2P501      0.0000 
      2 O1G       540.1750  602.6150  387.3290 O.co2     1 G2P501      0.0000 
      3 O2G       541.7150  600.6240  387.0090 O.co2     1 G2P501      0.0000 
      4 O3G       542.6710  602.9140  387.1350 O.co2     1 G2P501      0.0000 
      5 O3B       541.7110  601.7330  389.2490 O.3       1 G2P501      0.0000 
      6 PB        542.0400  600.4550  390.1570 P.3       1 G2P501      0.0000 
      7 O1B       541.9510  601.0770  391.6360 O.co2     1 G2P501      0.0000 
      8 O2B       541.2140  599.1660  389.6020 O.co2     1 G2P501      0.0000 
      9 C3A       543.5160  599.9610  389.7970 C.3       1 G2P501      0.0000 
     10 PA        544.1310  598.4420  390.4100 P.3       1 G2P501      0.0000 
     11 O1A       543.6850  598.5490  391.9650 O.co2     1 G2P501      0.0000 
     12 O2A       543.6920  597.1610  390.0260 O.co2     1 G2P501      0.0000 
     13 O5'       545.7270  598.9200  390.5630 O.3       1 G2P501      0.0000 
     14 C5'       546.9300  598.7060  390.2070 C.3       1 G2P501      0.0000 
     15 C4'       547.7050  598.7820  391.4480 C.3       1 G2P501      0.0000 
     16 O4'       547.3600  597.7660  392.5070 O.3       1 G2P501      0.0000 
     17 C3'       549.1210  598.0520  391.2250 C.3       1 G2P501      0.0000 
     18 O3'       550.3010  598.4100  392.2670 O.3       1 G2P501      0.0000 
     19 C2'       548.7600  596.6480  391.0040 C.3       1 G2P501      0.0000 
     20 O2'       549.9490  596.2020  390.8220 O.3       1 G2P501      0.0000 
     21 C1'       548.0320  596.5010  392.4650 C.3       1 G2P501      0.0000 
     22 N9        547.1180  595.4530  392.5100 N.pl3     1 G2P501      0.0000 
     23 C8        546.1700  595.2140  391.6820 C.2       1 G2P501      0.0000 
     24 N7        545.4760  594.2150  391.9510 N.2       1 G2P501      0.0000 
     25 C5        546.0840  593.7400  393.0950 C.2       1 G2P501      0.0000 
     26 C6        545.8150  592.5440  394.0030 C.2       1 G2P501      0.0000 
     27 O6        544.9180  591.8170  393.7570 O.2       1 G2P501      0.0000 
     28 N1        546.7040  592.3630  395.0750 N.am      1 G2P501      0.0000 
     29 C2        547.8670  593.1920  395.4490 C.2       1 G2P501      0.0000 
     30 N2        548.6550  592.7510  396.6520 N.pl3     1 G2P501      0.0000 
     31 N3        548.0350  594.3560  394.5670 N.2       1 G2P501      0.0000 
     32 C4        547.1860  594.6060  393.4280 C.2       1 G2P501      0.0000 
@<TRIPOS>BOND
     1    1    2 ar   
     2    1    3 ar   
     3    1    4 ar   
     4    1    5 1    
     5    5    6 1    
     6    6    7 ar   
     7    6    8 ar   
     8    6    9 1    
     9    9   10 1    
    10   10   11 ar   
    11   10   12 ar   
    12   10   13 1    
    13   13   14 1    
    14   14   15 1    
    15   15   16 1    
    16   15   17 1    
    17   16   21 1    
    18   17   18 1    
    19   17   19 1    
    20   19   20 1    
    21   19   21 1    
    22   21   22 1    
    23   22   23 1    
    24   22   32 1    
    25   23   24 2    
    26   24   25 1    
    27   25   26 1    
    28   25   32 2    
    29   26   27 2    
    30   26   28 am   
    31   28   29 1    
    32   29   30 1    
    33   29   31 2    
    34   31   32 1    
@<TRIPOS>SUBSTRUCTURE
     1 G2P501      1 GROUP   
@<TRIPOS>SET

