#    Name: 5xxx_12_GTP
#    Modification time : Fri May 22 19:19:19 2020

@<TRIPOS>MOLECULE
5xxx_12_GTP
   32    34     1     0     1
SMALL
NO_CHARGES


@<TRIPOS>ATOM
      1 PG        609.0350  520.9180  529.4850 P.3       1 GTP501      0.0000 
      2 O1G       607.7730  520.4360  528.8000 O.co2     1 GTP501      0.0000 
      3 O2G       609.3690  522.3750  529.1410 O.co2     1 GTP501      0.0000 
      4 O3G       610.2700  520.1450  529.0390 O.co2     1 GTP501      0.0000 
      5 O3B       608.7140  520.6740  531.0940 O.3       1 GTP501      0.0000 
      6 PB        608.3060  519.2420  531.7990 P.3       1 GTP501      0.0000 
      7 O1B       606.8820  519.2080  532.1050 O.co2     1 GTP501      0.0000 
      8 O2B       609.2980  519.0580  532.9380 O.co2     1 GTP501      0.0000 
      9 O3A       608.7310  518.1780  530.7880 O.3       1 GTP501      0.0000 
     10 PA        608.4670  516.6890  530.5920 P.3       1 GTP501      0.0000 
     11 O1A       609.1690  516.2680  529.3440 O.co2     1 GTP501      0.0000 
     12 O2A       607.0290  516.3710  530.6600 O.co2     1 GTP501      0.0000 
     13 O5'       609.2820  515.9940  531.8440 O.3       1 GTP501      0.0000 
     14 C5'       609.1680  514.5830  531.8590 C.3       1 GTP501      0.0000 
     15 C4'       609.8880  513.8770  532.9620 C.3       1 GTP501      0.0000 
     16 O4'       609.0460  513.7750  534.1390 O.3       1 GTP501      0.0000 
     17 C3'       610.1570  512.4560  532.5230 C.3       1 GTP501      0.0000 
     18 O3'       611.2770  511.9470  533.2090 O.3       1 GTP501      0.0000 
     19 C2'       608.8540  511.7600  532.8900 C.3       1 GTP501      0.0000 
     20 O2'       609.1050  510.3710  533.1150 O.3       1 GTP501      0.0000 
     21 C1'       608.4030  512.4880  534.1640 C.3       1 GTP501      0.0000 
     22 N9        606.9520  512.7060  534.2920 N.pl3     1 GTP501      0.0000 
     23 C8        606.1350  513.3750  533.4150 C.2       1 GTP501      0.0000 
     24 N7        604.8850  513.4090  533.7900 N.2       1 GTP501      0.0000 
     25 C5        604.8650  512.7160  534.9750 C.2       1 GTP501      0.0000 
     26 C6        603.8060  512.4140  535.8300 C.2       1 GTP501      0.0000 
     27 O6        602.6310  512.7450  535.6820 O.2       1 GTP501      0.0000 
     28 N1        604.1960  511.6750  536.9690 N.am      1 GTP501      0.0000 
     29 C2        605.4840  511.2640  537.2300 C.2       1 GTP501      0.0000 
     30 N2        605.6670  510.5780  538.3220 N.pl3     1 GTP501      0.0000 
     31 N3        606.5080  511.5340  536.4200 N.2       1 GTP501      0.0000 
     32 C4        606.1440  512.2640  535.3160 C.2       1 GTP501      0.0000 
@<TRIPOS>BOND
     1    1    2 ar   
     2    1    3 ar   
     3    1    4 ar   
     4    1    5 1    
     5    5    6 1    
     6    6    7 ar   
     7    6    8 ar   
     8    6    9 1    
     9    9   10 1    
    10   10   11 ar   
    11   10   12 ar   
    12   10   13 1    
    13   13   14 1    
    14   14   15 1    
    15   15   16 1    
    16   15   17 1    
    17   16   21 1    
    18   17   18 1    
    19   17   19 1    
    20   19   20 1    
    21   19   21 1    
    22   21   22 1    
    23   22   23 1    
    24   22   32 1    
    25   23   24 2    
    26   24   25 1    
    27   25   26 1    
    28   25   32 2    
    29   26   27 2    
    30   26   28 am   
    31   28   29 1    
    32   29   30 1    
    33   29   31 2    
    34   31   32 1    
@<TRIPOS>SUBSTRUCTURE
     1 GTP501      1 GROUP   
@<TRIPOS>SET
ATOM$ORANGE STATIC     ATOMS   COLORGROUP SYSTEM 
20 14 14 15 15 17 17 19 19 21 21 23 23 25 25 26 26 29 \
29 32 32 

