#    Name: 5xxx_4_G2P_CAVITY_N1_4
#    Modification time : Fri May 22 19:17:51 2020

@<TRIPOS>MOLECULE
5xxx_4_G2P_CAVITY_N1_4
  112     0     7     0     0
SMALL
NO_CHARGES


@<TRIPOS>ATOM
      1 OG        548.3700  593.7400  390.4000 O.3       1 SER1        0.0000 
      2 OG        551.6700  594.0000  389.8400 O.3       1 SER1        0.0000 
      3 OG        547.3200  599.2400  390.7900 O.3       1 SER1        0.0000 
      4 OG        548.5900  594.0900  391.8400 O.3       1 SER1        0.0000 
      5 OG        550.4900  594.9000  391.3600 O.3       1 SER1        0.0000 
      6 OG        551.8800  594.3500  391.2800 O.3       1 SER1        0.0000 
      7 OG        548.9300  599.0400  392.1600 O.3       1 SER1        0.0000 
      8 OG        548.4200  597.6900  392.5600 O.3       1 SER1        0.0000 
      9 O         541.5900  601.7300  386.3800 O.2       2 ALA2        0.0000 
     10 O         542.9800  601.1800  386.3000 O.2       2 ALA2        0.0000 
     11 N         543.2000  601.5300  387.7400 N.am      2 ALA2        0.0000 
     12 N         544.0900  599.6300  388.0600 N.am      2 ALA2        0.0000 
     13 O         545.9900  600.4400  387.5800 O.2       2 ALA2        0.0000 
     14 N         545.4900  599.0900  387.9800 N.am      2 ALA2        0.0000 
     15 O         547.3900  599.9000  387.5000 O.2       2 ALA2        0.0000 
     16 N         544.8600  593.1300  389.5200 N.am      2 ALA2        0.0000 
     17 O         544.3500  591.7800  389.9200 O.2       2 ALA2        0.0000 
     18 N         542.9100  600.5300  389.5900 N.am      2 ALA2        0.0000 
     19 O         542.4100  599.1700  389.9900 O.2       2 ALA2        0.0000 
     20 N         544.3100  599.9800  389.5100 N.am      2 ALA2        0.0000 
     21 O         543.8000  598.6300  389.9100 O.2       2 ALA2        0.0000 
     22 N         546.2100  600.7900  389.0200 N.am      2 ALA2        0.0000 
     23 N         545.7000  599.4400  389.4300 N.am      2 ALA2        0.0000 
     24 O         544.6900  596.7300  390.2300 O.2       2 ALA2        0.0000 
     25 O         544.1800  595.3800  390.6400 O.2       2 ALA2        0.0000 
     26 O         547.6000  600.2400  388.9500 O.2       2 ALA2        0.0000 
     27 O         545.5800  594.8300  390.5600 O.2       2 ALA2        0.0000 
     28 N         544.5700  592.1200  391.3600 N.am      2 ALA2        0.0000 
     29 O         543.1300  600.8700  391.0300 O.2       2 ALA2        0.0000 
     30 O         542.6200  599.5200  391.4300 O.2       2 ALA2        0.0000 
     31 N         544.0200  598.9800  391.3500 N.am      2 ALA2        0.0000 
     32 N         545.4100  598.4300  391.2700 N.am      2 ALA2        0.0000 
     33 O         544.9100  597.0800  391.6800 O.2       2 ALA2        0.0000 
     34 N         547.8200  600.5900  390.3900 N.am      2 ALA2        0.0000 
     35 N         544.7800  592.4700  392.8000 N.am      2 ALA2        0.0000 
     36 N         552.3900  595.7000  390.8800 N.am      2 ALA2        0.0000 
     37 O         549.3100  595.7900  392.8800 O.2       2 ALA2        0.0000 
     38 O         548.8000  594.4400  393.2800 O.2       2 ALA2        0.0000 
     39 O         551.2100  596.6000  392.4000 O.2       2 ALA2        0.0000 
     40 N         552.6100  596.0500  392.3200 N.am      2 ALA2        0.0000 
     41 O         546.6100  592.6200  395.6100 O.2       2 ALA2        0.0000 
     42 O         548.5200  593.4300  395.1300 O.2       2 ALA2        0.0000 
     43 OD1       540.8700  600.0300  385.3400 O.co2     3 ASP3        0.0000 
     44 OD1       542.2600  599.4800  385.2600 O.co2     3 ASP3        0.0000 
     45 OD1       542.4800  599.8300  386.7000 O.co2     3 ASP3        0.0000 
     46 OD1       543.8700  599.2900  386.6200 O.co2     3 ASP3        0.0000 
     47 OD1       543.3700  597.9300  387.0200 O.co2     3 ASP3        0.0000 
     48 OD1       542.7000  600.1800  388.1400 O.co2     3 ASP3        0.0000 
     49 OD1       543.5800  598.2800  388.4700 O.co2     3 ASP3        0.0000 
     50 NZ        546.8800  598.5400  387.9100 N.4       4 LYS4        0.0000 
     51 NZ        546.3700  597.1900  388.3100 N.4       4 LYS4        0.0000 
     52 NZ        547.2600  595.2900  388.6300 N.4       4 LYS4        0.0000 
     53 NZ        549.0000  599.7000  388.8700 N.4       4 LYS4        0.0000 
     54 NZ        548.4900  598.3500  389.2700 N.4       4 LYS4        0.0000 
     55 NZ        547.9900  596.9900  389.6700 N.4       4 LYS4        0.0000 
     56 NZ        547.4800  595.6400  390.0800 N.4       4 LYS4        0.0000 
     57 NZ        548.8800  595.0900  390.0000 N.4       4 LYS4        0.0000 
     58 NZ        550.2700  594.5500  389.9200 N.4       4 LYS4        0.0000 
     59 NZ        548.7100  598.6900  390.7100 N.4       4 LYS4        0.0000 
     60 NZ        548.2000  597.3400  391.1200 N.4       4 LYS4        0.0000 
     61 NZ        550.1100  598.1500  390.6300 N.4       4 LYS4        0.0000 
     62 NZ        549.6000  596.7900  391.0400 N.4       4 LYS4        0.0000 
     63 NZ        549.0900  595.4400  391.4400 N.4       4 LYS4        0.0000 
     64 NZ        550.9900  596.2500  390.9600 N.4       4 LYS4        0.0000 
     65 NZ        551.7200  597.9500  392.0000 N.4       4 LYS4        0.0000 
     66 NZ        551.9400  598.3000  393.4400 N.4       4 LYS4        0.0000 
     67 CZ        545.7400  591.2300  389.8400 C.ar      5 PHE5        0.0000 
     68 CZ        546.4700  592.9300  390.8800 C.ar      5 PHE5        0.0000 
     69 CZ        545.9600  591.5800  391.2800 C.ar      5 PHE5        0.0000 
     70 CZ        546.6900  593.2800  392.3200 C.ar      5 PHE5        0.0000 
     71 CZ        546.1800  591.9300  392.7300 C.ar      5 PHE5        0.0000 
     72 CZ        546.4000  592.2700  394.1700 C.ar      5 PHE5        0.0000 
     73 CZ        548.3000  593.0800  393.6900 C.ar      5 PHE5        0.0000 
     74 CA        544.3800  600.6400  386.2200 C.3       6 GLY6        0.0000 
     75 CA        546.6600  598.2000  386.4600 C.3       6 GLY6        0.0000 
     76 CA        544.4700  596.3800  388.7900 C.3       6 GLY6        0.0000 
     77 CA        543.9700  595.0300  389.1900 C.3       6 GLY6        0.0000 
     78 CA        548.7800  599.3500  387.4200 C.3       6 GLY6        0.0000 
     79 CA        543.3000  597.2700  390.3100 C.3       6 GLY6        0.0000 
     80 CA        543.6800  594.0200  391.0400 C.3       6 GLY6        0.0000 
     81 CA        544.5300  600.3300  390.9500 C.3       6 GLY6        0.0000 
     82 CA        545.9200  599.7800  390.8700 C.3       6 GLY6        0.0000 
     83 CA        546.3000  596.5300  391.6000 C.3       6 GLY6        0.0000 
     84 CA        545.8000  595.1800  392.0000 C.3       6 GLY6        0.0000 
     85 CA        545.2900  593.8300  392.4000 C.3       6 GLY6        0.0000 
     86 CA        547.0300  598.2300  392.6400 C.3       6 GLY6        0.0000 
     87 CA        545.5100  594.1700  393.8400 C.3       6 GLY6        0.0000 
     88 CA        545.0000  592.8200  394.2500 C.3       6 GLY6        0.0000 
     89 CA        547.9200  596.3300  392.9600 C.3       6 GLY6        0.0000 
     90 CA        547.4100  594.9800  393.3600 C.3       6 GLY6        0.0000 
     91 CA        546.9000  593.6300  393.7700 C.3       6 GLY6        0.0000 
     92 CA        549.8200  597.1400  392.4800 C.3       6 GLY6        0.0000 
     93 CA        545.7300  594.5200  395.2900 C.3       6 GLY6        0.0000 
     94 CA        547.6300  595.3300  394.8100 C.3       6 GLY6        0.0000 
     95 CA        547.1200  593.9800  395.2100 C.3       6 GLY6        0.0000 
     96 CA        551.4300  596.9500  393.8400 C.3       6 GLY6        0.0000 
     97 DU        543.6600  598.9400  385.1800 H         7 CUB7        0.0000 
     98 DU        545.2700  598.7400  386.5400 H         7 CUB7        0.0000 
     99 DU        544.7600  597.3900  386.9400 H         7 CUB7        0.0000 
    100 DU        544.9800  597.7400  388.3900 H         7 CUB7        0.0000 
    101 DU        545.8700  595.8400  388.7100 H         7 CUB7        0.0000 
    102 DU        545.3600  594.4800  389.1100 H         7 CUB7        0.0000 
    103 DU        546.7600  593.9400  389.0300 H         7 CUB7        0.0000 
    104 DU        545.2000  598.0800  389.8300 H         7 CUB7        0.0000 
    105 DU        547.1000  598.8900  389.3500 H         7 CUB7        0.0000 
    106 DU        546.5900  597.5400  389.7500 H         7 CUB7        0.0000 
    107 DU        546.0900  596.1800  390.1500 H         7 CUB7        0.0000 
    108 DU        545.0700  593.4800  390.9600 H         7 CUB7        0.0000 
    109 DU        546.9700  594.2900  390.4800 H         7 CUB7        0.0000 
    110 DU        546.8100  597.8900  391.1900 H         7 CUB7        0.0000 
    111 DU        547.7000  595.9900  391.5200 H         7 CUB7        0.0000 
    112 DU        547.1900  594.6300  391.9200 H         7 CUB7        0.0000 
@<TRIPOS>BOND
@<TRIPOS>SUBSTRUCTURE
     1 SER1        1 GROUP   
     2 ALA2        9 GROUP   
     3 ASP3       43 GROUP   
     4 LYS4       50 GROUP   
     5 PHE5       67 GROUP   
     6 GLY6       74 GROUP   
     7 CUB7       97 GROUP   
@<TRIPOS>SET

