#    Name: 5xxx_14_GTP
#    Modification time : Fri May 22 19:19:41 2020

@<TRIPOS>MOLECULE
5xxx_14_GTP
   32    34     1     0     1
SMALL
NO_CHARGES


@<TRIPOS>ATOM
      1 PG        584.9910  569.1980  438.0610 P.3       1 GTP501      0.0000 
      2 O1G       584.0770  568.2060  437.3680 O.co2     1 GTP501      0.0000 
      3 O2G       584.6440  570.6530  437.7210 O.co2     1 GTP501      0.0000 
      4 O3G       586.4440  569.0550  437.6210 O.co2     1 GTP501      0.0000 
      5 O3B       584.8040  568.8320  439.6670 O.3       1 GTP501      0.0000 
      6 PB        585.0740  567.3650  440.3700 P.3       1 GTP501      0.0000 
      7 O1B       583.8110  566.7000  440.6670 O.co2     1 GTP501      0.0000 
      8 O2B       586.0380  567.6370  441.5130 O.co2     1 GTP501      0.0000 
      9 O3A       585.9300  566.6040  439.3590 O.3       1 GTP501      0.0000 
     10 PA        586.3560  565.1530  439.1610 P.3       1 GTP501      0.0000 
     11 O1A       587.1760  565.0910  437.9160 O.co2     1 GTP501      0.0000 
     12 O2A       585.2080  564.2290  439.2200 O.co2     1 GTP501      0.0000 
     13 O5'       587.3890  564.8880  440.4140 O.3       1 GTP501      0.0000 
     14 C5'       587.9130  563.5720  440.4280 C.3       1 GTP501      0.0000 
     15 C4'       588.8680  563.2560  441.5340 C.3       1 GTP501      0.0000 
     16 O4'       588.1530  562.7860  442.7050 O.3       1 GTP501      0.0000 
     17 C3'       589.7430  562.1030  441.0950 C.3       1 GTP501      0.0000 
     18 O3'       590.9700  562.1430  441.7850 O.3       1 GTP501      0.0000 
     19 C2'       588.8830  560.9010  441.4550 C.3       1 GTP501      0.0000 
     20 O2'       589.7230  559.7670  441.6790 O.3       1 GTP501      0.0000 
     21 C1'       588.1490  561.3480  442.7250 C.3       1 GTP501      0.0000 
     22 N9        586.7530  560.8990  442.8480 N.pl3     1 GTP501      0.0000 
     23 C8        585.7260  561.1380  441.9660 C.2       1 GTP501      0.0000 
     24 N7        584.5890  560.6130  442.3360 N.2       1 GTP501      0.0000 
     25 C5        584.8750  559.9790  443.5200 C.2       1 GTP501      0.0000 
     26 C6        584.0560  559.2360  444.3700 C.2       1 GTP501      0.0000 
     27 O6        582.8580  559.0110  444.2160 O.2       1 GTP501      0.0000 
     28 N1        584.7310  558.7430  445.5090 N.am      1 GTP501      0.0000 
     29 C2        586.0660  558.9440  445.7760 C.2       1 GTP501      0.0000 
     30 N2        586.5300  558.4090  446.8690 N.pl3     1 GTP501      0.0000 
     31 N3        586.8660  559.6450  444.9730 N.2       1 GTP501      0.0000 
     32 C4        586.2200  560.1410  443.8680 C.2       1 GTP501      0.0000 
@<TRIPOS>BOND
     1    1    2 ar   
     2    1    3 ar   
     3    1    4 ar   
     4    1    5 1    
     5    5    6 1    
     6    6    7 ar   
     7    6    8 ar   
     8    6    9 1    
     9    9   10 1    
    10   10   11 ar   
    11   10   12 ar   
    12   10   13 1    
    13   13   14 1    
    14   14   15 1    
    15   15   16 1    
    16   15   17 1    
    17   16   21 1    
    18   17   18 1    
    19   17   19 1    
    20   19   20 1    
    21   19   21 1    
    22   21   22 1    
    23   22   23 1    
    24   22   32 1    
    25   23   24 2    
    26   24   25 1    
    27   25   26 1    
    28   25   32 2    
    29   26   27 2    
    30   26   28 am   
    31   28   29 1    
    32   29   30 1    
    33   29   31 2    
    34   31   32 1    
@<TRIPOS>SUBSTRUCTURE
     1 GTP501      1 GROUP   
@<TRIPOS>SET
ATOM$ORANGE STATIC     ATOMS   COLORGROUP SYSTEM 
20 14 14 15 15 17 17 19 19 21 21 23 23 25 25 26 26 29 \
29 32 32 

