#    Name: 5xxx_10_GTP
#    Modification time : Fri May 22 19:18:57 2020

@<TRIPOS>MOLECULE
5xxx_10_GTP
   32    34     1     0     1
SMALL
NO_CHARGES


@<TRIPOS>ATOM
      1 PG        585.3800  568.6030  520.6200 P.3       1 GTP501      0.0000 
      2 O1G       584.4560  567.6200  519.9320 O.co2     1 GTP501      0.0000 
      3 O2G       585.0440  570.0620  520.2790 O.co2     1 GTP501      0.0000 
      4 O3G       586.8290  568.4470  520.1720 O.co2     1 GTP501      0.0000 
      5 O3B       585.1990  568.2410  522.2270 O.3       1 GTP501      0.0000 
      6 PB        585.4590  566.7730  522.9290 P.3       1 GTP501      0.0000 
      7 O1B       584.1920  566.1200  523.2340 O.co2     1 GTP501      0.0000 
      8 O2B       586.4310  567.0380  524.0690 O.co2     1 GTP501      0.0000 
      9 O3A       586.3030  566.0030  521.9160 O.3       1 GTP501      0.0000 
     10 PA        586.7170  564.5480  521.7170 P.3       1 GTP501      0.0000 
     11 O1A       587.5300  564.4790  520.4690 O.co2     1 GTP501      0.0000 
     12 O2A       585.5610  563.6340  521.7820 O.co2     1 GTP501      0.0000 
     13 O5'       587.7540  564.2770  522.9660 O.3       1 GTP501      0.0000 
     14 C5'       588.2660  562.9570  522.9790 C.3       1 GTP501      0.0000 
     15 C4'       589.2240  562.6340  524.0820 C.3       1 GTP501      0.0000 
     16 O4'       588.5110  562.1720  525.2560 O.3       1 GTP501      0.0000 
     17 C3'       590.0850  561.4730  523.6390 C.3       1 GTP501      0.0000 
     18 O3'       591.3170  561.5030  524.3250 O.3       1 GTP501      0.0000 
     19 C2'       589.2180  560.2780  524.0050 C.3       1 GTP501      0.0000 
     20 O2'       590.0500  559.1380  524.2270 O.3       1 GTP501      0.0000 
     21 C1'       588.4950  560.7340  525.2800 C.3       1 GTP501      0.0000 
     22 N9        587.0930  560.2960  525.4080 N.pl3     1 GTP501      0.0000 
     23 C8        586.0660  560.5420  524.5320 C.2       1 GTP501      0.0000 
     24 N7        584.9270  560.0270  524.9070 N.2       1 GTP501      0.0000 
     25 C5        585.2120  559.3930  526.0900 C.2       1 GTP501      0.0000 
     26 C6        584.3920  558.6570  526.9440 C.2       1 GTP501      0.0000 
     27 O6        583.1910  558.4430  526.7970 O.2       1 GTP501      0.0000 
     28 N1        585.0680  558.1590  528.0810 N.am      1 GTP501      0.0000 
     29 C2        586.4060  558.3510  528.3420 C.2       1 GTP501      0.0000 
     30 N2        586.8690  557.8120  529.4330 N.pl3     1 GTP501      0.0000 
     31 N3        587.2080  559.0430  527.5340 N.2       1 GTP501      0.0000 
     32 C4        586.5600  559.5440  526.4300 C.2       1 GTP501      0.0000 
@<TRIPOS>BOND
     1    1    2 ar   
     2    1    3 ar   
     3    1    4 ar   
     4    1    5 1    
     5    5    6 1    
     6    6    7 ar   
     7    6    8 ar   
     8    6    9 1    
     9    9   10 1    
    10   10   11 ar   
    11   10   12 ar   
    12   10   13 1    
    13   13   14 1    
    14   14   15 1    
    15   15   16 1    
    16   15   17 1    
    17   16   21 1    
    18   17   18 1    
    19   17   19 1    
    20   19   20 1    
    21   19   21 1    
    22   21   22 1    
    23   22   23 1    
    24   22   32 1    
    25   23   24 2    
    26   24   25 1    
    27   25   26 1    
    28   25   32 2    
    29   26   27 2    
    30   26   28 am   
    31   28   29 1    
    32   29   30 1    
    33   29   31 2    
    34   31   32 1    
@<TRIPOS>SUBSTRUCTURE
     1 GTP501      1 GROUP   
@<TRIPOS>SET
ATOM$ORANGE STATIC     ATOMS   COLORGROUP SYSTEM 
20 14 14 15 15 17 17 19 19 21 21 23 23 25 25 26 26 29 \
29 32 32 

