#    Name: 5xxx_16_GTP
#    Modification time : Fri May 22 19:20:05 2020

@<TRIPOS>MOLECULE
5xxx_16_GTP
   32    34     1     0     1
SMALL
NO_CHARGES


@<TRIPOS>ATOM
      1 PG        544.0540  600.9680  594.3020 P.3       1 GTP501      0.0000 
      2 O1G       543.6460  599.6800  593.6160 O.co2     1 GTP501      0.0000 
      3 O2G       543.1230  602.1360  593.9620 O.co2     1 GTP501      0.0000 
      4 O3G       545.4280  601.4510  593.8550 O.co2     1 GTP501      0.0000 
      5 O3B       544.0470  600.5630  595.9100 O.3       1 GTP501      0.0000 
      6 PB        544.9160  599.3510  596.6120 P.3       1 GTP501      0.0000 
      7 O1B       544.0540  598.2130  596.9160 O.co2     1 GTP501      0.0000 
      8 O2B       545.6780  600.0070  597.7520 O.co2     1 GTP501      0.0000 
      9 O3A       546.0100  599.0200  595.5990 O.3       1 GTP501      0.0000 
     10 PA        547.0120  597.8870  595.4000 P.3       1 GTP501      0.0000 
     11 O1A       547.7750  598.1750  594.1510 O.co2     1 GTP501      0.0000 
     12 O2A       546.3630  596.5630  595.4650 O.co2     1 GTP501      0.0000 
     13 O5'       548.0650  598.0890  596.6490 O.3       1 GTP501      0.0000 
     14 C5'       549.0960  597.1210  596.6620 C.3       1 GTP501      0.0000 
     15 C4'       550.0990  597.2420  597.7640 C.3       1 GTP501      0.0000 
     16 O4'       549.6560  596.5180  598.9400 O.3       1 GTP501      0.0000 
     17 C3'       551.3770  596.5690  597.3210 C.3       1 GTP501      0.0000 
     18 O3'       552.4750  597.1270  598.0070 O.3       1 GTP501      0.0000 
     19 C2'       551.1120  595.1160  597.6870 C.3       1 GTP501      0.0000 
     20 O2'       552.3550  594.4460  597.9090 O.3       1 GTP501      0.0000 
     21 C1'       550.2630  595.2140  598.9620 C.3       1 GTP501      0.0000 
     22 N9        549.1880  594.2140  599.0910 N.pl3     1 GTP501      0.0000 
     23 C8        548.1550  593.9940  598.2150 C.2       1 GTP501      0.0000 
     24 N7        547.3500  593.0360  598.5890 N.2       1 GTP501      0.0000 
     25 C5        547.8820  592.5880  599.7730 C.2       1 GTP501      0.0000 
     26 C6        547.4590  591.5700  600.6270 C.2       1 GTP501      0.0000 
     27 O6        546.4680  590.8570  600.4790 O.2       1 GTP501      0.0000 
     28 N1        548.2840  591.4120  601.7640 N.am      1 GTP501      0.0000 
     29 C2        549.4060  592.1630  602.0260 C.2       1 GTP501      0.0000 
     30 N2        550.0580  591.8770  603.1160 N.pl3     1 GTP501      0.0000 
     31 N3        549.8320  593.1330  601.2170 N.2       1 GTP501      0.0000 
     32 C4        549.0330  593.3050  600.1140 C.2       1 GTP501      0.0000 
@<TRIPOS>BOND
     1    1    2 ar   
     2    1    3 ar   
     3    1    4 ar   
     4    1    5 1    
     5    5    6 1    
     6    6    7 ar   
     7    6    8 ar   
     8    6    9 1    
     9    9   10 1    
    10   10   11 ar   
    11   10   12 ar   
    12   10   13 1    
    13   13   14 1    
    14   14   15 1    
    15   15   16 1    
    16   15   17 1    
    17   16   21 1    
    18   17   18 1    
    19   17   19 1    
    20   19   20 1    
    21   19   21 1    
    22   21   22 1    
    23   22   23 1    
    24   22   32 1    
    25   23   24 2    
    26   24   25 1    
    27   25   26 1    
    28   25   32 2    
    29   26   27 2    
    30   26   28 am   
    31   28   29 1    
    32   29   30 1    
    33   29   31 2    
    34   31   32 1    
@<TRIPOS>SUBSTRUCTURE
     1 GTP501      1 GROUP   
@<TRIPOS>SET
ATOM$ORANGE STATIC     ATOMS   COLORGROUP SYSTEM 
20 14 14 15 15 17 17 19 19 21 21 23 23 25 25 26 26 29 \
29 32 32 

