#    Name: 5xxx_7_G2P
#    Modification time : Fri May 22 19:18:18 2020

@<TRIPOS>MOLECULE
5xxx_7_G2P
   32    34     1     0     0
SMALL
NO_CHARGES


@<TRIPOS>ATOM
      1 PG        543.0130  601.3210  552.8220 P.3       1 G2P501      0.0000 
      2 O1G       541.5750  602.0520  552.5530 O.co2     1 G2P501      0.0000 
      3 O2G       543.0880  600.0420  552.2280 O.co2     1 G2P501      0.0000 
      4 O3G       544.0740  602.3180  552.3690 O.co2     1 G2P501      0.0000 
      5 O3B       543.0940  601.1400  554.4740 O.3       1 G2P501      0.0000 
      6 PB        543.4060  599.8520  555.3750 P.3       1 G2P501      0.0000 
      7 O1B       543.3200  600.4690  556.8560 O.co2     1 G2P501      0.0000 
      8 O2B       542.5620  598.5790  554.8120 O.co2     1 G2P501      0.0000 
      9 C3A       544.8740  599.3410  555.0160 C.3       1 G2P501      0.0000 
     10 PA        545.4700  597.8110  555.6210 P.3       1 G2P501      0.0000 
     11 O1A       545.0200  597.9160  557.1750 O.co2     1 G2P501      0.0000 
     12 O2A       545.0130  596.5370  555.2300 O.co2     1 G2P501      0.0000 
     13 O5'       547.0700  598.2650  555.7790 O.3       1 G2P501      0.0000 
     14 C5'       548.2710  598.0370  555.4260 C.3       1 G2P501      0.0000 
     15 C4'       549.0450  598.0950  556.6690 C.3       1 G2P501      0.0000 
     16 O4'       548.6830  597.0800  557.7200 O.3       1 G2P501      0.0000 
     17 C3'       550.4500  597.3500  556.4450 C.3       1 G2P501      0.0000 
     18 O3'       551.6340  597.6850  557.4910 O.3       1 G2P501      0.0000 
     19 C2'       550.0720  595.9510  556.2170 C.3       1 G2P501      0.0000 
     20 O2'       551.2540  595.4900  556.0330 O.3       1 G2P501      0.0000 
     21 C1'       549.3370  595.8080  557.6760 C.3       1 G2P501      0.0000 
     22 N9        548.4100  594.7700  557.7130 N.pl3     1 G2P501      0.0000 
     23 C8        547.4610  594.5500  556.8810 C.2       1 G2P501      0.0000 
     24 N7        546.7520  593.5580  557.1430 N.2       1 G2P501      0.0000 
     25 C5        547.3500  593.0670  558.2870 C.2       1 G2P501      0.0000 
     26 C6        547.0640  591.8710  559.1860 C.2       1 G2P501      0.0000 
     27 O6        546.1590  591.1590  558.9350 O.2       1 G2P501      0.0000 
     28 N1        547.9480  591.6720  560.2600 N.am      1 G2P501      0.0000 
     29 C2        549.1220  592.4850  560.6410 C.2       1 G2P501      0.0000 
     30 N2        549.9000  592.0270  561.8440 N.pl3     1 G2P501      0.0000 
     31 N3        549.3060  593.6510  559.7660 N.2       1 G2P501      0.0000 
     32 C4        548.4640  593.9190  558.6270 C.2       1 G2P501      0.0000 
@<TRIPOS>BOND
     1    1    2 ar   
     2    1    3 ar   
     3    1    4 ar   
     4    1    5 1    
     5    5    6 1    
     6    6    7 ar   
     7    6    8 ar   
     8    6    9 1    
     9    9   10 1    
    10   10   11 ar   
    11   10   12 ar   
    12   10   13 1    
    13   13   14 1    
    14   14   15 1    
    15   15   16 1    
    16   15   17 1    
    17   16   21 1    
    18   17   18 1    
    19   17   19 1    
    20   19   20 1    
    21   19   21 1    
    22   21   22 1    
    23   22   23 1    
    24   22   32 1    
    25   23   24 2    
    26   24   25 1    
    27   25   26 1    
    28   25   32 2    
    29   26   27 2    
    30   26   28 am   
    31   28   29 1    
    32   29   30 1    
    33   29   31 2    
    34   31   32 1    
@<TRIPOS>SUBSTRUCTURE
     1 G2P501      1 GROUP   
@<TRIPOS>SET

