#    Name: 5xxx_5_G2P
#    Modification time : Fri May 22 19:17:57 2020

@<TRIPOS>MOLECULE
5xxx_5_G2P
   32    34     1     0     0
SMALL
NO_CHARGES


@<TRIPOS>ATOM
      1 PG        584.1180  569.9570  396.4720 P.3       1 G2P501      0.0000 
      2 O1G       583.1260  571.2240  396.1970 O.co2     1 G2P501      0.0000 
      3 O2G       583.6440  568.7600  395.8870 O.co2     1 G2P501      0.0000 
      4 O3G       585.5030  570.4070  396.0100 O.co2     1 G2P501      0.0000 
      5 O3B       584.1220  569.7670  398.1240 O.3       1 G2P501      0.0000 
      6 PB        583.8590  568.4760  399.0360 P.3       1 G2P501      0.0000 
      7 O1B       584.0490  569.0810  400.5120 O.co2     1 G2P501      0.0000 
      8 O2B       582.5540  567.6760  398.4820 O.co2     1 G2P501      0.0000 
      9 C3A       584.9720  567.3880  398.6810 C.3       1 G2P501      0.0000 
     10 PA        584.8650  565.7530  399.2970 P.3       1 G2P501      0.0000 
     11 O1A       584.5050  566.0500  400.8500 O.co2     1 G2P501      0.0000 
     12 O2A       583.9090  564.7920  398.9150 O.co2     1 G2P501      0.0000 
     13 O5'       586.5070  565.4870  399.4530 O.3       1 G2P501      0.0000 
     14 C5'       587.4950  564.7700  399.1000 C.3       1 G2P501      0.0000 
     15 C4'       588.2260  564.5030  400.3430 C.3       1 G2P501      0.0000 
     16 O4'       587.4720  563.7440  401.4020 O.3       1 G2P501      0.0000 
     17 C3'       589.1820  563.2290  400.1250 C.3       1 G2P501      0.0000 
     18 O3'       590.4000  563.0380  401.1680 O.3       1 G2P501      0.0000 
     19 C2'       588.2460  562.1220  399.9060 C.3       1 G2P501      0.0000 
     20 O2'       589.1210  561.2020  399.7270 O.3       1 G2P501      0.0000 
     21 C1'       587.5250  562.3140  401.3660 C.3       1 G2P501      0.0000 
     22 N9        586.2450  561.7670  401.4110 N.pl3     1 G2P501      0.0000 
     23 C8        585.2880  561.9630  400.5810 C.2       1 G2P501      0.0000 
     24 N7        584.2270  561.3700  400.8510 N.2       1 G2P501      0.0000 
     25 C5        584.5650  560.6800  401.9970 C.2       1 G2P501      0.0000 
     26 C6        583.8010  559.7240  402.9070 C.2       1 G2P501      0.0000 
     27 O6        582.6790  559.4590  402.6610 O.2       1 G2P501      0.0000 
     28 N1        584.5210  559.1770  403.9810 N.am      1 G2P501      0.0000 
     29 C2        585.9270  559.4150  404.3570 C.2       1 G2P501      0.0000 
     30 N2        586.4430  558.6800  405.5630 N.pl3     1 G2P501      0.0000 
     31 N3        586.5880  560.3880  403.4720 N.2       1 G2P501      0.0000 
     32 C4        585.9350  560.9790  402.3310 C.2       1 G2P501      0.0000 
@<TRIPOS>BOND
     1    1    2 ar   
     2    1    3 ar   
     3    1    4 ar   
     4    1    5 1    
     5    5    6 1    
     6    6    7 ar   
     7    6    8 ar   
     8    6    9 1    
     9    9   10 1    
    10   10   11 ar   
    11   10   12 ar   
    12   10   13 1    
    13   13   14 1    
    14   14   15 1    
    15   15   16 1    
    16   15   17 1    
    17   16   21 1    
    18   17   18 1    
    19   17   19 1    
    20   19   20 1    
    21   19   21 1    
    22   21   22 1    
    23   22   23 1    
    24   22   32 1    
    25   23   24 2    
    26   24   25 1    
    27   25   26 1    
    28   25   32 2    
    29   26   27 2    
    30   26   28 am   
    31   28   29 1    
    32   29   30 1    
    33   29   31 2    
    34   31   32 1    
@<TRIPOS>SUBSTRUCTURE
     1 G2P501      1 GROUP   
@<TRIPOS>SET

