#    Name: 5xxx_17_GTP
#    Modification time : Fri May 22 19:20:16 2020

@<TRIPOS>MOLECULE
5xxx_17_GTP
   32    34     1     0     1
SMALL
NO_CHARGES


@<TRIPOS>ATOM
      1 PG        585.9090  568.0420  603.1680 P.3       1 GTP501      0.0000 
      2 O1G       584.9780  567.0620  602.4810 O.co2     1 GTP501      0.0000 
      3 O2G       585.5810  569.5020  602.8250 O.co2     1 GTP501      0.0000 
      4 O3G       587.3570  567.8770  602.7210 O.co2     1 GTP501      0.0000 
      5 O3B       585.7240  567.6830  604.7760 O.3       1 GTP501      0.0000 
      6 PB        585.9760  566.2160  605.4810 P.3       1 GTP501      0.0000 
      7 O1B       584.7060  565.5680  605.7860 O.co2     1 GTP501      0.0000 
      8 O2B       586.9490  566.4770  606.6200 O.co2     1 GTP501      0.0000 
      9 O3A       586.8180  565.4390  604.4690 O.3       1 GTP501      0.0000 
     10 PA        587.2220  563.9820  604.2720 P.3       1 GTP501      0.0000 
     11 O1A       588.0360  563.9050  603.0250 O.co2     1 GTP501      0.0000 
     12 O2A       586.0620  563.0740  604.3390 O.co2     1 GTP501      0.0000 
     13 O5'       588.2570  563.7070  605.5220 O.3       1 GTP501      0.0000 
     14 C5'       588.7640  562.3840  605.5370 C.3       1 GTP501      0.0000 
     15 C4'       589.7190  562.0580  606.6400 C.3       1 GTP501      0.0000 
     16 O4'       589.0010  561.6010  607.8170 O.3       1 GTP501      0.0000 
     17 C3'       590.5750  560.8910  606.2000 C.3       1 GTP501      0.0000 
     18 O3'       591.8060  560.9160  606.8860 O.3       1 GTP501      0.0000 
     19 C2'       589.7000  559.7030  606.5680 C.3       1 GTP501      0.0000 
     20 O2'       590.5260  558.5570  606.7920 O.3       1 GTP501      0.0000 
     21 C1'       588.9800  560.1650  607.8410 C.3       1 GTP501      0.0000 
     22 N9        587.5760  559.7340  607.9710 N.pl3     1 GTP501      0.0000 
     23 C8        586.5490  559.9840  607.0930 C.2       1 GTP501      0.0000 
     24 N7        585.4090  559.4750  607.4680 N.2       1 GTP501      0.0000 
     25 C5        585.6900  558.8410  608.6530 C.2       1 GTP501      0.0000 
     26 C6        584.8650  558.1130  609.5090 C.2       1 GTP501      0.0000 
     27 O6        583.6630  557.9020  609.3600 O.2       1 GTP501      0.0000 
     28 N1        585.5380  557.6130  610.6460 N.am      1 GTP501      0.0000 
     29 C2        586.8760  557.7960  610.9070 C.2       1 GTP501      0.0000 
     30 N2        587.3380  557.2580  611.9990 N.pl3     1 GTP501      0.0000 
     31 N3        587.6820  558.4840  610.0980 N.2       1 GTP501      0.0000 
     32 C4        587.0400  558.9860  608.9940 C.2       1 GTP501      0.0000 
@<TRIPOS>BOND
     1    1    2 ar   
     2    1    3 ar   
     3    1    4 ar   
     4    1    5 1    
     5    5    6 1    
     6    6    7 ar   
     7    6    8 ar   
     8    6    9 1    
     9    9   10 1    
    10   10   11 ar   
    11   10   12 ar   
    12   10   13 1    
    13   13   14 1    
    14   14   15 1    
    15   15   16 1    
    16   15   17 1    
    17   16   21 1    
    18   17   18 1    
    19   17   19 1    
    20   19   20 1    
    21   19   21 1    
    22   21   22 1    
    23   22   23 1    
    24   22   32 1    
    25   23   24 2    
    26   24   25 1    
    27   25   26 1    
    28   25   32 2    
    29   26   27 2    
    30   26   28 am   
    31   28   29 1    
    32   29   30 1    
    33   29   31 2    
    34   31   32 1    
@<TRIPOS>SUBSTRUCTURE
     1 GTP501      1 GROUP   
@<TRIPOS>SET
ATOM$ORANGE STATIC     ATOMS   COLORGROUP SYSTEM 
20 14 14 15 15 17 17 19 19 21 21 23 23 25 25 26 26 29 \
29 32 32 

