#    Name: 5xxx_9_G2P
#    Modification time : Fri May 22 19:18:45 2020

@<TRIPOS>MOLECULE
5xxx_9_G2P
   32    34     1     0     0
SMALL
NO_CHARGES


@<TRIPOS>ATOM
      1 PG        608.8880  521.3060  570.5260 P.3       1 G2P501      0.0000 
      2 O1G       608.5680  522.8850  570.2550 O.co2     1 G2P501      0.0000 
      3 O2G       607.9320  520.4500  569.9330 O.co2     1 G2P501      0.0000 
      4 O3G       610.3300  521.0920  570.0730 O.co2     1 G2P501      0.0000 
      5 O3B       608.7970  521.1330  572.1780 O.3       1 G2P501      0.0000 
      6 PB        607.9790  520.0920  573.0820 P.3       1 G2P501      0.0000 
      7 O1B       608.4110  520.5450  574.5630 O.co2     1 G2P501      0.0000 
      8 O2B       606.4570  519.9610  572.5200 O.co2     1 G2P501      0.0000 
      9 C3A       608.4910  518.6220  572.7270 C.3       1 G2P501      0.0000 
     10 PA        607.6620  517.2080  573.3370 P.3       1 G2P501      0.0000 
     11 O1A       607.4630  517.6290  574.8890 O.co2     1 G2P501      0.0000 
     12 O2A       606.3790  516.7730  572.9450 O.co2     1 G2P501      0.0000 
     13 O5'       609.0110  516.2350  573.4980 O.3       1 G2P501      0.0000 
     14 C5'       609.5780  515.1520  573.1470 C.3       1 G2P501      0.0000 
     15 C4'       610.1040  514.5850  574.3920 C.3       1 G2P501      0.0000 
     16 O4'       609.0830  514.2400  575.4450 O.3       1 G2P501      0.0000 
     17 C3'       610.3940  513.0190  574.1720 C.3       1 G2P501      0.0000 
     18 O3'       611.3890  512.3020  575.2190 O.3       1 G2P501      0.0000 
     19 C2'       609.0610  512.4460  573.9450 C.3       1 G2P501      0.0000 
     20 O2'       609.4340  511.2340  573.7660 O.3       1 G2P501      0.0000 
     21 C1'       608.4920  512.9370  575.4020 C.3       1 G2P501      0.0000 
     22 N9        607.1030  513.0190  575.4390 N.pl3     1 G2P501      0.0000 
     23 C8        606.3430  513.6240  574.6060 C.2       1 G2P501      0.0000 
     24 N7        605.1240  513.5650  574.8680 N.2       1 G2P501      0.0000 
     25 C5        605.1110  512.7950  576.0130 C.2       1 G2P501      0.0000 
     26 C6        603.9950  512.2790  576.9150 C.2       1 G2P501      0.0000 
     27 O6        602.8750  512.5430  576.6620 O.2       1 G2P501      0.0000 
     28 N1        604.3890  511.4640  577.9900 N.am      1 G2P501      0.0000 
     29 C2        605.7520  511.0520  578.3720 C.2       1 G2P501      0.0000 
     30 N2        605.8780  510.1590  579.5770 N.pl3     1 G2P501      0.0000 
     31 N3        606.7820  511.6270  577.4940 N.2       1 G2P501      0.0000 
     32 C4        606.4690  512.4510  576.3530 C.2       1 G2P501      0.0000 
@<TRIPOS>BOND
     1    1    2 ar   
     2    1    3 ar   
     3    1    4 ar   
     4    1    5 1    
     5    5    6 1    
     6    6    7 ar   
     7    6    8 ar   
     8    6    9 1    
     9    9   10 1    
    10   10   11 ar   
    11   10   12 ar   
    12   10   13 1    
    13   13   14 1    
    14   14   15 1    
    15   15   16 1    
    16   15   17 1    
    17   16   21 1    
    18   17   18 1    
    19   17   19 1    
    20   19   20 1    
    21   19   21 1    
    22   21   22 1    
    23   22   23 1    
    24   22   32 1    
    25   23   24 2    
    26   24   25 1    
    27   25   26 1    
    28   25   32 2    
    29   26   27 2    
    30   26   28 am   
    31   28   29 1    
    32   29   30 1    
    33   29   31 2    
    34   31   32 1    
@<TRIPOS>SUBSTRUCTURE
     1 G2P501      1 GROUP   
@<TRIPOS>SET

