#    Name: 5xxx_11_GTP
#    Modification time : Fri May 22 19:19:08 2020

@<TRIPOS>MOLECULE
5xxx_11_GTP
   32    34     1     0     1
SMALL
NO_CHARGES


@<TRIPOS>ATOM
      1 PG        543.4510  601.2210  511.7560 P.3       1 GTP501      0.0000 
      2 O1G       543.0460  599.9340  511.0680 O.co2     1 GTP501      0.0000 
      3 O2G       542.5180  602.3890  511.4150 O.co2     1 GTP501      0.0000 
      4 O3G       544.8250  601.7080  511.3110 O.co2     1 GTP501      0.0000 
      5 O3B       543.4440  600.8160  513.3640 O.3       1 GTP501      0.0000 
      6 PB        544.3120  599.6050  514.0670 P.3       1 GTP501      0.0000 
      7 O1B       543.4550  598.4680  514.3710 O.co2     1 GTP501      0.0000 
      8 O2B       545.0730  600.2650  515.2070 O.co2     1 GTP501      0.0000 
      9 O3A       545.4100  599.2770  513.0540 O.3       1 GTP501      0.0000 
     10 PA        546.4130  598.1460  512.8580 P.3       1 GTP501      0.0000 
     11 O1A       547.1760  598.4350  511.6090 O.co2     1 GTP501      0.0000 
     12 O2A       545.7660  596.8210  512.9210 O.co2     1 GTP501      0.0000 
     13 O5'       547.4640  598.3500  514.1070 O.3       1 GTP501      0.0000 
     14 C5'       548.4980  597.3830  514.1200 C.3       1 GTP501      0.0000 
     15 C4'       549.5000  597.5060  515.2240 C.3       1 GTP501      0.0000 
     16 O4'       549.0560  596.7810  516.4000 O.3       1 GTP501      0.0000 
     17 C3'       550.7800  596.8340  514.7830 C.3       1 GTP501      0.0000 
     18 O3'       551.8760  597.3940  515.4700 O.3       1 GTP501      0.0000 
     19 C2'       550.5150  595.3820  515.1480 C.3       1 GTP501      0.0000 
     20 O2'       551.7590  594.7130  515.3720 O.3       1 GTP501      0.0000 
     21 C1'       549.6640  595.4790  516.4230 C.3       1 GTP501      0.0000 
     22 N9        548.5920  594.4770  516.5520 N.pl3     1 GTP501      0.0000 
     23 C8        547.5600  594.2530  515.6730 C.2       1 GTP501      0.0000 
     24 N7        546.7550  593.2960  516.0470 N.2       1 GTP501      0.0000 
     25 C5        547.2860  592.8470  517.2310 C.2       1 GTP501      0.0000 
     26 C6        546.8650  591.8290  518.0850 C.2       1 GTP501      0.0000 
     27 O6        545.8770  591.1150  517.9360 O.2       1 GTP501      0.0000 
     28 N1        547.6880  591.6740  519.2240 N.am      1 GTP501      0.0000 
     29 C2        548.8110  592.4250  519.4850 C.2       1 GTP501      0.0000 
     30 N2        549.4620  592.1420  520.5760 N.pl3     1 GTP501      0.0000 
     31 N3        549.2350  593.3970  518.6770 N.2       1 GTP501      0.0000 
     32 C4        548.4360  593.5680  517.5740 C.2       1 GTP501      0.0000 
@<TRIPOS>BOND
     1    1    2 ar   
     2    1    3 ar   
     3    1    4 ar   
     4    1    5 1    
     5    5    6 1    
     6    6    7 ar   
     7    6    8 ar   
     8    6    9 1    
     9    9   10 1    
    10   10   11 ar   
    11   10   12 ar   
    12   10   13 1    
    13   13   14 1    
    14   14   15 1    
    15   15   16 1    
    16   15   17 1    
    17   16   21 1    
    18   17   18 1    
    19   17   19 1    
    20   19   20 1    
    21   19   21 1    
    22   21   22 1    
    23   22   23 1    
    24   22   32 1    
    25   23   24 2    
    26   24   25 1    
    27   25   26 1    
    28   25   32 2    
    29   26   27 2    
    30   26   28 am   
    31   28   29 1    
    32   29   30 1    
    33   29   31 2    
    34   31   32 1    
@<TRIPOS>SUBSTRUCTURE
     1 GTP501      1 GROUP   
@<TRIPOS>SET
ATOM$ORANGE STATIC     ATOMS   COLORGROUP SYSTEM 
20 14 14 15 15 17 17 19 19 21 21 23 23 25 25 26 26 29 \
29 32 32 

