#    Name: 5xxx_15_GTP
#    Modification time : Fri May 22 19:19:53 2020

@<TRIPOS>MOLECULE
5xxx_15_GTP
   32    34     1     0     1
SMALL
NO_CHARGES


@<TRIPOS>ATOM
      1 PG        608.9280  521.6610  446.9360 P.3       1 GTP501      0.0000 
      2 O1G       607.6740  521.1660  446.2430 O.co2     1 GTP501      0.0000 
      3 O2G       609.2500  523.1210  446.5950 O.co2     1 GTP501      0.0000 
      4 O3G       610.1710  520.9000  446.4980 O.co2     1 GTP501      0.0000 
      5 O3B       608.5990  521.4130  448.5420 O.3       1 GTP501      0.0000 
      6 PB        608.2010  519.9760  449.2450 P.3       1 GTP501      0.0000 
      7 O1B       606.7750  519.9280  449.5410 O.co2     1 GTP501      0.0000 
      8 O2B       609.1870  519.8010  450.3900 O.co2     1 GTP501      0.0000 
      9 O3A       608.6410  518.9170  448.2340 O.3       1 GTP501      0.0000 
     10 PA        608.3920  517.4260  448.0370 P.3       1 GTP501      0.0000 
     11 O1A       609.1040  517.0120  446.7920 O.co2     1 GTP501      0.0000 
     12 O2A       606.9560  517.0940  448.0950 O.co2     1 GTP501      0.0000 
     13 O5'       609.2070  516.7380  449.2910 O.3       1 GTP501      0.0000 
     14 C5'       609.1050  515.3240  449.3050 C.3       1 GTP501      0.0000 
     15 C4'       609.8250  514.6250  450.4130 C.3       1 GTP501      0.0000 
     16 O4'       608.9770  514.5140  451.5840 O.3       1 GTP501      0.0000 
     17 C3'       610.1100  513.2080  449.9730 C.3       1 GTP501      0.0000 
     18 O3'       611.2310  512.7080  450.6660 O.3       1 GTP501      0.0000 
     19 C2'       608.8120  512.4980  450.3320 C.3       1 GTP501      0.0000 
     20 O2'       609.0750  511.1120  450.5580 O.3       1 GTP501      0.0000 
     21 C1'       608.3460  513.2220  451.6030 C.3       1 GTP501      0.0000 
     22 N9        606.8920  513.4250  451.7250 N.pl3     1 GTP501      0.0000 
     23 C8        606.0740  514.0880  450.8420 C.2       1 GTP501      0.0000 
     24 N7        604.8210  514.1100  451.2100 N.2       1 GTP501      0.0000 
     25 C5        604.8010  513.4150  452.3950 C.2       1 GTP501      0.0000 
     26 C6        603.7410  513.1030  453.2440 C.2       1 GTP501      0.0000 
     27 O6        602.5640  513.4220  453.0890 O.2       1 GTP501      0.0000 
     28 N1        604.1310  512.3670  454.3830 N.am      1 GTP501      0.0000 
     29 C2        605.4200  511.9670  454.6530 C.2       1 GTP501      0.0000 
     30 N2        605.6040  511.2830  455.7450 N.pl3     1 GTP501      0.0000 
     31 N3        606.4460  512.2480  453.8490 N.2       1 GTP501      0.0000 
     32 C4        606.0830  512.9760  452.7430 C.2       1 GTP501      0.0000 
@<TRIPOS>BOND
     1    1    2 ar   
     2    1    3 ar   
     3    1    4 ar   
     4    1    5 1    
     5    5    6 1    
     6    6    7 ar   
     7    6    8 ar   
     8    6    9 1    
     9    9   10 1    
    10   10   11 ar   
    11   10   12 ar   
    12   10   13 1    
    13   13   14 1    
    14   14   15 1    
    15   15   16 1    
    16   15   17 1    
    17   16   21 1    
    18   17   18 1    
    19   17   19 1    
    20   19   20 1    
    21   19   21 1    
    22   21   22 1    
    23   22   23 1    
    24   22   32 1    
    25   23   24 2    
    26   24   25 1    
    27   25   26 1    
    28   25   32 2    
    29   26   27 2    
    30   26   28 am   
    31   28   29 1    
    32   29   30 1    
    33   29   31 2    
    34   31   32 1    
@<TRIPOS>SUBSTRUCTURE
     1 GTP501      1 GROUP   
@<TRIPOS>SET
ATOM$ORANGE STATIC     ATOMS   COLORGROUP SYSTEM 
20 14 14 15 15 17 17 19 19 21 21 23 23 25 25 26 26 29 \
29 32 32 

