#    Name: 5xxx_3_G2P
#    Modification time : Fri May 22 19:17:42 2020

@<TRIPOS>MOLECULE
5xxx_3_G2P
   32    34     1     0     0
SMALL
NO_CHARGES


@<TRIPOS>ATOM
      1 PG        608.7350  522.0980  487.9280 P.3       1 G2P501      0.0000 
      2 O1G       608.4060  523.6750  487.6580 O.co2     1 G2P501      0.0000 
      3 O2G       607.7860  521.2370  487.3310 O.co2     1 G2P501      0.0000 
      4 O3G       610.1800  521.8940  487.4770 O.co2     1 G2P501      0.0000 
      5 O3B       608.6420  521.9220  489.5800 O.3       1 G2P501      0.0000 
      6 PB        607.8300  520.8730  490.4790 P.3       1 G2P501      0.0000 
      7 O1B       608.2560  521.3270  491.9620 O.co2     1 G2P501      0.0000 
      8 O2B       606.3110  520.7330  489.9130 O.co2     1 G2P501      0.0000 
      9 C3A       608.3530  519.4070  490.1220 C.3       1 G2P501      0.0000 
     10 PA        607.5300  517.9860  490.7270 P.3       1 G2P501      0.0000 
     11 O1A       607.3270  518.4030  492.2800 O.co2     1 G2P501      0.0000 
     12 O2A       606.2530  517.5440  490.3330 O.co2     1 G2P501      0.0000 
     13 O5'       608.8870  517.0230  490.8890 O.3       1 G2P501      0.0000 
     14 C5'       609.4620  515.9430  490.5360 C.3       1 G2P501      0.0000 
     15 C4'       609.9880  515.3760  491.7810 C.3       1 G2P501      0.0000 
     16 O4'       608.9690  515.0240  492.8310 O.3       1 G2P501      0.0000 
     17 C3'       610.2880  513.8140  491.5600 C.3       1 G2P501      0.0000 
     18 O3'       611.2890  513.1010  492.6070 O.3       1 G2P501      0.0000 
     19 C2'       608.9620  513.2330  491.3280 C.3       1 G2P501      0.0000 
     20 O2'       609.3420  512.0220  491.1470 O.3       1 G2P501      0.0000 
     21 C1'       608.3860  513.7160  492.7840 C.3       1 G2P501      0.0000 
     22 N9        606.9960  513.7900  492.8190 N.pl3     1 G2P501      0.0000 
     23 C8        606.2320  514.3910  491.9850 C.2       1 G2P501      0.0000 
     24 N7        605.0160  514.3240  492.2450 N.2       1 G2P501      0.0000 
     25 C5        605.0060  513.5500  493.3880 C.2       1 G2P501      0.0000 
     26 C6        603.8900  513.0250  494.2870 C.2       1 G2P501      0.0000 
     27 O6        602.7690  513.2830  494.0330 O.2       1 G2P501      0.0000 
     28 N1        604.2880  512.2120  495.3620 N.am      1 G2P501      0.0000 
     29 C2        605.6530  511.8050  495.7460 C.2       1 G2P501      0.0000 
     30 N2        605.7830  510.9110  496.9490 N.pl3     1 G2P501      0.0000 
     31 N3        606.6800  512.3910  494.8710 N.2       1 G2P501      0.0000 
     32 C4        606.3650  513.2150  493.7310 C.2       1 G2P501      0.0000 
@<TRIPOS>BOND
     1    1    2 ar   
     2    1    3 ar   
     3    1    4 ar   
     4    1    5 1    
     5    5    6 1    
     6    6    7 ar   
     7    6    8 ar   
     8    6    9 1    
     9    9   10 1    
    10   10   11 ar   
    11   10   12 ar   
    12   10   13 1    
    13   13   14 1    
    14   14   15 1    
    15   15   16 1    
    16   15   17 1    
    17   16   21 1    
    18   17   18 1    
    19   17   19 1    
    20   19   20 1    
    21   19   21 1    
    22   21   22 1    
    23   22   23 1    
    24   22   32 1    
    25   23   24 2    
    26   24   25 1    
    27   25   26 1    
    28   25   32 2    
    29   26   27 2    
    30   26   28 am   
    31   28   29 1    
    32   29   30 1    
    33   29   31 2    
    34   31   32 1    
@<TRIPOS>SUBSTRUCTURE
     1 G2P501      1 GROUP   
@<TRIPOS>SET

