#    Name: 5xxx_6_G2P
#    Modification time : Fri May 22 19:18:04 2020

@<TRIPOS>MOLECULE
5xxx_6_G2P
   32    34     1     0     0
SMALL
NO_CHARGES


@<TRIPOS>ATOM
      1 PG        608.4900  522.7210  405.3450 P.3       1 G2P501      0.0000 
      2 O1G       608.1500  524.2950  405.0710 O.co2     1 G2P501      0.0000 
      3 O2G       607.5430  521.8520  404.7580 O.co2     1 G2P501      0.0000 
      4 O3G       609.9330  522.5220  404.8860 O.co2     1 G2P501      0.0000 
      5 O3B       608.4100  522.5510  406.9980 O.3       1 G2P501      0.0000 
      6 PB        607.6090  521.5020  407.9070 P.3       1 G2P501      0.0000 
      7 O1B       608.0410  521.9640  409.3860 O.co2     1 G2P501      0.0000 
      8 O2B       606.0850  521.3500  407.3520 O.co2     1 G2P501      0.0000 
      9 C3A       608.1370  520.0370  407.5530 C.3       1 G2P501      0.0000 
     10 PA        607.3270  518.6140  408.1700 P.3       1 G2P501      0.0000 
     11 O1A       607.1310  519.0360  409.7220 O.co2     1 G2P501      0.0000 
     12 O2A       606.0490  518.1630  407.7850 O.co2     1 G2P501      0.0000 
     13 O5'       608.6880  517.6570  408.3260 O.3       1 G2P501      0.0000 
     14 C5'       609.2670  516.5800  407.9740 C.3       1 G2P501      0.0000 
     15 C4'       609.8070  516.0230  409.2190 C.3       1 G2P501      0.0000 
     16 O4'       608.7950  515.6680  410.2770 O.3       1 G2P501      0.0000 
     17 C3'       610.1130  514.4600  409.0020 C.3       1 G2P501      0.0000 
     18 O3'       611.1230  513.7580  410.0450 O.3       1 G2P501      0.0000 
     19 C2'       608.7870  513.8700  408.7800 C.3       1 G2P501      0.0000 
     20 O2'       609.1750  512.6620  408.6030 O.3       1 G2P501      0.0000 
     21 C1'       608.2190  514.3570  410.2400 C.3       1 G2P501      0.0000 
     22 N9        606.8290  514.4240  410.2830 N.pl3     1 G2P501      0.0000 
     23 C8        606.0580  515.0170  409.4520 C.2       1 G2P501      0.0000 
     24 N7        604.8420  514.9430  409.7190 N.2       1 G2P501      0.0000 
     25 C5        604.8430  514.1750  410.8660 C.2       1 G2P501      0.0000 
     26 C6        603.7360  513.6490  411.7750 C.2       1 G2P501      0.0000 
     27 O6        602.6130  513.8990  411.5270 O.2       1 G2P501      0.0000 
     28 N1        604.1460  512.8410  412.8480 N.am      1 G2P501      0.0000 
     29 C2        605.5160  512.4450  413.2260 C.2       1 G2P501      0.0000 
     30 N2        605.6570  511.5570  414.4310 N.pl3     1 G2P501      0.0000 
     31 N3        606.5340  513.0320  412.3430 N.2       1 G2P501      0.0000 
     32 C4        606.2070  513.8490  411.2020 C.2       1 G2P501      0.0000 
@<TRIPOS>BOND
     1    1    2 ar   
     2    1    3 ar   
     3    1    4 ar   
     4    1    5 1    
     5    5    6 1    
     6    6    7 ar   
     7    6    8 ar   
     8    6    9 1    
     9    9   10 1    
    10   10   11 ar   
    11   10   12 ar   
    12   10   13 1    
    13   13   14 1    
    14   14   15 1    
    15   15   16 1    
    16   15   17 1    
    17   16   21 1    
    18   17   18 1    
    19   17   19 1    
    20   19   20 1    
    21   19   21 1    
    22   21   22 1    
    23   22   23 1    
    24   22   32 1    
    25   23   24 2    
    26   24   25 1    
    27   25   26 1    
    28   25   32 2    
    29   26   27 2    
    30   26   28 am   
    31   28   29 1    
    32   29   30 1    
    33   29   31 2    
    34   31   32 1    
@<TRIPOS>SUBSTRUCTURE
     1 G2P501      1 GROUP   
@<TRIPOS>SET

