#    Name: 5xxx_2_G2P
#    Modification time : Fri May 22 19:17:27 2020

@<TRIPOS>MOLECULE
5xxx_2_G2P
   32    34     1     0     0
SMALL
NO_CHARGES


@<TRIPOS>ATOM
      1 PG        542.3320  601.6560  470.2010 P.3       1 G2P501      0.0000 
      2 O1G       540.8920  602.3790  469.9330 O.co2     1 G2P501      0.0000 
      3 O2G       542.4170  600.3780  469.6060 O.co2     1 G2P501      0.0000 
      4 O3G       543.3890  602.6620  469.7500 O.co2     1 G2P501      0.0000 
      5 O3B       542.4160  601.4730  471.8530 O.3       1 G2P501      0.0000 
      6 PB        542.7320  600.1860  472.7530 P.3       1 G2P501      0.0000 
      7 O1B       542.6440  600.8010  474.2350 O.co2     1 G2P501      0.0000 
      8 O2B       541.8970  598.9080  472.1880 O.co2     1 G2P501      0.0000 
      9 C3A       544.2050  599.6840  472.3940 C.3       1 G2P501      0.0000 
     10 PA        544.8080  598.1570  472.9980 P.3       1 G2P501      0.0000 
     11 O1A       544.3570  598.2560  474.5510 O.co2     1 G2P501      0.0000 
     12 O2A       544.3600  596.8820  472.6040 O.co2     1 G2P501      0.0000 
     13 O5'       546.4060  598.6200  473.1570 O.3       1 G2P501      0.0000 
     14 C5'       547.6080  598.3990  472.8030 C.3       1 G2P501      0.0000 
     15 C4'       548.3810  598.4600  474.0470 C.3       1 G2P501      0.0000 
     16 O4'       548.0260  597.4420  475.0980 O.3       1 G2P501      0.0000 
     17 C3'       549.7920  597.7230  473.8240 C.3       1 G2P501      0.0000 
     18 O3'       550.9730  598.0640  474.8710 O.3       1 G2P501      0.0000 
     19 C2'       549.4210  596.3220  473.5940 C.3       1 G2P501      0.0000 
     20 O2'       550.6060  595.8690  473.4100 O.3       1 G2P501      0.0000 
     21 C1'       548.6860  596.1730  475.0510 C.3       1 G2P501      0.0000 
     22 N9        547.7660  595.1300  475.0860 N.pl3     1 G2P501      0.0000 
     23 C8        546.8180  594.9050  474.2540 C.2       1 G2P501      0.0000 
     24 N7        546.1160  593.9090  474.5150 N.2       1 G2P501      0.0000 
     25 C5        546.7150  593.4210  475.6580 C.2       1 G2P501      0.0000 
     26 C6        546.4340  592.2210  476.5560 C.2       1 G2P501      0.0000 
     27 O6        545.5340  591.5040  476.3040 O.2       1 G2P501      0.0000 
     28 N1        547.3210  592.0270  477.6290 N.am      1 G2P501      0.0000 
     29 C2        548.4870  592.8450  478.0140 C.2       1 G2P501      0.0000 
     30 N2        549.2690  592.3890  479.2150 N.pl3     1 G2P501      0.0000 
     31 N3        548.6670  594.0140  477.1390 N.2       1 G2P501      0.0000 
     32 C4        547.8240  594.2770  475.9990 C.2       1 G2P501      0.0000 
@<TRIPOS>BOND
     1    1    2 ar   
     2    1    3 ar   
     3    1    4 ar   
     4    1    5 1    
     5    5    6 1    
     6    6    7 ar   
     7    6    8 ar   
     8    6    9 1    
     9    9   10 1    
    10   10   11 ar   
    11   10   12 ar   
    12   10   13 1    
    13   13   14 1    
    14   14   15 1    
    15   15   16 1    
    16   15   17 1    
    17   16   21 1    
    18   17   18 1    
    19   17   19 1    
    20   19   20 1    
    21   19   21 1    
    22   21   22 1    
    23   22   23 1    
    24   22   32 1    
    25   23   24 2    
    26   24   25 1    
    27   25   26 1    
    28   25   32 2    
    29   26   27 2    
    30   26   28 am   
    31   28   29 1    
    32   29   30 1    
    33   29   31 2    
    34   31   32 1    
@<TRIPOS>SUBSTRUCTURE
     1 G2P501      1 GROUP   
@<TRIPOS>SET

