#    Name: 5xxx_8_G2P
#    Modification time : Fri May 22 19:18:32 2020

@<TRIPOS>MOLECULE
5xxx_8_G2P
   32    34     1     0     0
SMALL
NO_CHARGES


@<TRIPOS>ATOM
      1 PG        585.1070  568.8320  561.6670 P.3       1 G2P501      0.0000 
      2 O1G       584.1330  570.1140  561.3970 O.co2     1 G2P501      0.0000 
      3 O2G       584.6190  567.6460  561.0750 O.co2     1 G2P501      0.0000 
      4 O3G       586.4980  569.2660  561.2140 O.co2     1 G2P501      0.0000 
      5 O3B       585.1020  568.6360  563.3190 O.3       1 G2P501      0.0000 
      6 PB        584.8190  567.3430  564.2230 P.3       1 G2P501      0.0000 
      7 O1B       585.0120  567.9380  565.7040 O.co2     1 G2P501      0.0000 
      8 O2B       583.5060  566.5630  563.6610 O.co2     1 G2P501      0.0000 
      9 C3A       585.9180  566.2410  563.8670 C.3       1 G2P501      0.0000 
     10 PA        585.7870  564.6070  564.4750 P.3       1 G2P501      0.0000 
     11 O1A       585.4270  564.8980  566.0280 O.co2     1 G2P501      0.0000 
     12 O2A       584.8210  563.6580  564.0840 O.co2     1 G2P501      0.0000 
     13 O5'       587.4260  564.3190  564.6350 O.3       1 G2P501      0.0000 
     14 C5'       588.4060  563.5870  564.2820 C.3       1 G2P501      0.0000 
     15 C4'       589.1270  563.3070  565.5270 C.3       1 G2P501      0.0000 
     16 O4'       588.3600  562.5510  566.5790 O.3       1 G2P501      0.0000 
     17 C3'       590.0670  562.0220  565.3060 C.3       1 G2P501      0.0000 
     18 O3'       591.2790  561.8100  566.3530 O.3       1 G2P501      0.0000 
     19 C2'       589.1190  560.9270  565.0800 C.3       1 G2P501      0.0000 
     20 O2'       589.9820  559.9970  564.8990 O.3       1 G2P501      0.0000 
     21 C1'       588.3940  561.1200  566.5360 C.3       1 G2P501      0.0000 
     22 N9        587.1060  560.5910  566.5730 N.pl3     1 G2P501      0.0000 
     23 C8        586.1580  560.8050  565.7420 C.2       1 G2P501      0.0000 
     24 N7        585.0870  560.2230  566.0040 N.2       1 G2P501      0.0000 
     25 C5        585.4110  559.5230  567.1490 C.2       1 G2P501      0.0000 
     26 C6        584.6300  558.5720  568.0500 C.2       1 G2P501      0.0000 
     27 O6        583.5070  558.3230  567.7990 O.2       1 G2P501      0.0000 
     28 N1        585.3400  558.0090  569.1240 N.am      1 G2P501      0.0000 
     29 C2        586.7480  558.2300  569.5060 C.2       1 G2P501      0.0000 
     30 N2        587.2500  557.4810  570.7100 N.pl3     1 G2P501      0.0000 
     31 N3        587.4250  559.1980  568.6290 N.2       1 G2P501      0.0000 
     32 C4        586.7840  559.8030  567.4890 C.2       1 G2P501      0.0000 
@<TRIPOS>BOND
     1    1    2 ar   
     2    1    3 ar   
     3    1    4 ar   
     4    1    5 1    
     5    5    6 1    
     6    6    7 ar   
     7    6    8 ar   
     8    6    9 1    
     9    9   10 1    
    10   10   11 ar   
    11   10   12 ar   
    12   10   13 1    
    13   13   14 1    
    14   14   15 1    
    15   15   16 1    
    16   15   17 1    
    17   16   21 1    
    18   17   18 1    
    19   17   19 1    
    20   19   20 1    
    21   19   21 1    
    22   21   22 1    
    23   22   23 1    
    24   22   32 1    
    25   23   24 2    
    26   24   25 1    
    27   25   26 1    
    28   25   32 2    
    29   26   27 2    
    30   26   28 am   
    31   28   29 1    
    32   29   30 1    
    33   29   31 2    
    34   31   32 1    
@<TRIPOS>SUBSTRUCTURE
     1 G2P501      1 GROUP   
@<TRIPOS>SET

