#    Name: 5xxx_13_GTP
#    Modification time : Fri May 22 19:19:30 2020

@<TRIPOS>MOLECULE
5xxx_13_GTP
   32    34     1     0     1
SMALL
NO_CHARGES


@<TRIPOS>ATOM
      1 PG        542.8090  601.5650  429.1910 P.3       1 GTP501      0.0000 
      2 O1G       542.4180  600.2760  428.4980 O.co2     1 GTP501      0.0000 
      3 O2G       541.8670  602.7250  428.8490 O.co2     1 GTP501      0.0000 
      4 O3G       544.1790  602.0670  428.7520 O.co2     1 GTP501      0.0000 
      5 O3B       542.8000  601.1530  430.7970 O.3       1 GTP501      0.0000 
      6 PB        543.6780  599.9480  431.4990 P.3       1 GTP501      0.0000 
      7 O1B       542.8280  598.8020  431.7950 O.co2     1 GTP501      0.0000 
      8 O2B       544.4270  600.6120  432.6440 O.co2     1 GTP501      0.0000 
      9 O3A       544.7800  599.6340  430.4880 O.3       1 GTP501      0.0000 
     10 PA        545.7940  598.5130  430.2910 P.3       1 GTP501      0.0000 
     11 O1A       546.5610  598.8130  429.0480 O.co2     1 GTP501      0.0000 
     12 O2A       545.1600  597.1820  430.3490 O.co2     1 GTP501      0.0000 
     13 O5'       546.8380  598.7210  431.5450 O.3       1 GTP501      0.0000 
     14 C5'       547.8820  597.7650  431.5590 C.3       1 GTP501      0.0000 
     15 C4'       548.8780  597.8930  432.6660 C.3       1 GTP501      0.0000 
     16 O4'       548.4360  597.1590  433.8380 O.3       1 GTP501      0.0000 
     17 C3'       550.1650  597.2340  432.2280 C.3       1 GTP501      0.0000 
     18 O3'       551.2530  597.8020  432.9210 O.3       1 GTP501      0.0000 
     19 C2'       549.9140  595.7780  432.5870 C.3       1 GTP501      0.0000 
     20 O2'       551.1620  595.1200  432.8120 O.3       1 GTP501      0.0000 
     21 C1'       549.0570  595.8630  433.8580 C.3       1 GTP501      0.0000 
     22 N9        547.9930  594.8510  433.9780 N.pl3     1 GTP501      0.0000 
     23 C8        546.9670  594.6200  433.0960 C.2       1 GTP501      0.0000 
     24 N7        546.1710  593.6540  433.4630 N.2       1 GTP501      0.0000 
     25 C5        546.7010  593.2060  434.6480 C.2       1 GTP501      0.0000 
     26 C6        546.2850  592.1810  435.4960 C.2       1 GTP501      0.0000 
     27 O6        545.3040  591.4590  435.3420 O.2       1 GTP501      0.0000 
     28 N1        547.1050  592.0280  436.6360 N.am      1 GTP501      0.0000 
     29 C2        548.2200  592.7900  436.9070 C.2       1 GTP501      0.0000 
     30 N2        548.8690  592.5080  438.0000 N.pl3     1 GTP501      0.0000 
     31 N3        548.6400  593.7680  436.1040 N.2       1 GTP501      0.0000 
     32 C4        547.8430  593.9360  434.9960 C.2       1 GTP501      0.0000 
@<TRIPOS>BOND
     1    1    2 ar   
     2    1    3 ar   
     3    1    4 ar   
     4    1    5 1    
     5    5    6 1    
     6    6    7 ar   
     7    6    8 ar   
     8    6    9 1    
     9    9   10 1    
    10   10   11 ar   
    11   10   12 ar   
    12   10   13 1    
    13   13   14 1    
    14   14   15 1    
    15   15   16 1    
    16   15   17 1    
    17   16   21 1    
    18   17   18 1    
    19   17   19 1    
    20   19   20 1    
    21   19   21 1    
    22   21   22 1    
    23   22   23 1    
    24   22   32 1    
    25   23   24 2    
    26   24   25 1    
    27   25   26 1    
    28   25   32 2    
    29   26   27 2    
    30   26   28 am   
    31   28   29 1    
    32   29   30 1    
    33   29   31 2    
    34   31   32 1    
@<TRIPOS>SUBSTRUCTURE
     1 GTP501      1 GROUP   
@<TRIPOS>SET
ATOM$ORANGE STATIC     ATOMS   COLORGROUP SYSTEM 
20 14 14 15 15 17 17 19 19 21 21 23 23 25 25 26 26 29 \
29 32 32 

