#    Name: 5y7p_7_GCH
#    Modification time : Fri May 22 19:29:17 2020

@<TRIPOS>MOLECULE
5y7p_7_GCH
   33    36     1     0     0
SMALL
NO_CHARGES


@<TRIPOS>ATOM
      1 C          47.9610  -26.5550   76.1360 C.3       1 GCH401      0.0000 
      2 O          46.8940  -27.0790   75.3670 O.3       1 GCH401      0.0000 
      3 C1         47.7660  -25.0670   76.3920 C.3       1 GCH401      0.0000 
      4 C2         48.8610  -24.4610   77.2900 C.3       1 GCH401      0.0000 
      5 C3         49.0680  -25.2220   78.5750 C.3       1 GCH401      0.0000 
      6 C4         49.1610  -26.7360   78.2820 C.3       1 GCH401      0.0000 
      7 C5         48.0040  -27.2820   77.4640 C.3       1 GCH401      0.0000 
      8 C6         50.4390  -24.8140   79.1280 C.3       1 GCH401      0.0000 
      9 C7         48.6810  -22.9230   77.4930 C.3       1 GCH401      0.0000 
     10 C8         47.5770  -22.5340   78.4630 C.3       1 GCH401      0.0000 
     11 O1         46.2810  -22.6940   77.8460 O.3       1 GCH401      0.0000 
     12 C9         47.7220  -23.3340   79.7640 C.3       1 GCH401      0.0000 
     13 C10        47.9100  -24.8420   79.5280 C.3       1 GCH401      0.0000 
     14 C11        48.1040  -25.5620   80.8700 C.3       1 GCH401      0.0000 
     15 C12        46.9970  -25.2870   81.8720 C.3       1 GCH401      0.0000 
     16 C13        46.8170  -23.7770   82.0710 C.3       1 GCH401      0.0000 
     17 C14        46.5680  -23.1030   80.7330 C.3       1 GCH401      0.0000 
     18 C15        46.1580  -21.6680   81.0980 C.3       1 GCH401      0.0000 
     19 C16        45.3110  -21.8960   82.3650 C.3       1 GCH401      0.0000 
     20 C17        45.5790  -23.3380   82.8560 C.3       1 GCH401      0.0000 
     21 C18        45.8030  -23.5730   84.3750 C.3       1 GCH401      0.0000 
     22 C19        45.7680  -25.0560   84.7840 C.3       1 GCH401      0.0000 
     23 C20        44.9950  -22.6920   85.3020 C.3       1 GCH401      0.0000 
     24 C21        43.6490  -23.2670   85.5120 C.3       1 GCH401      0.0000 
     25 C22        43.4580  -24.2210   86.6890 C.2       1 GCH401      0.0000 
     26 N          43.5250  -23.7460   87.9330 N.am      1 GCH401      0.0000 
     27 CA         43.0990  -24.5450   89.0710 C.3       1 GCH401      0.0000 
     28 O2         43.1650  -25.3810   86.4480 O.2       1 GCH401      0.0000 
     29 C23        48.0880  -23.2030   82.7590 C.3       1 GCH401      0.0000 
     30 O3         45.7940  -25.8370   81.3740 O.3       1 GCH401      0.0000 
     31 C24        41.6150  -24.3530   89.3690 C.2       1 GCH401      0.0000 
     32 O4         40.8230  -23.7030   88.6110 O.co2     1 GCH401      0.0000 
     33 O5         41.2060  -24.8380   90.4370 O.co2     1 GCH401      0.0000 
@<TRIPOS>BOND
     1    1    2 1    
     2    1    3 1    
     3    1    7 1    
     4    3    4 1    
     5    4    5 1    
     6    4    9 1    
     7    5    6 1    
     8    5    8 1    
     9    5   13 1    
    10    6    7 1    
    11    9   10 1    
    12   10   11 1    
    13   10   12 1    
    14   12   13 1    
    15   12   17 1    
    16   13   14 1    
    17   14   15 1    
    18   15   16 1    
    19   15   30 1    
    20   16   17 1    
    21   16   20 1    
    22   16   29 1    
    23   17   18 1    
    24   18   19 1    
    25   19   20 1    
    26   20   21 1    
    27   21   22 1    
    28   21   23 1    
    29   23   24 1    
    30   24   25 1    
    31   25   26 am   
    32   25   28 2    
    33   26   27 1    
    34   27   31 1    
    35   31   32 ar   
    36   31   33 ar   
@<TRIPOS>SUBSTRUCTURE
     1 GCH401      1 GROUP   
@<TRIPOS>SET

