#    Name: 5y7p_9_CHD
#    Modification time : Fri May 22 19:29:26 2020

@<TRIPOS>MOLECULE
5y7p_9_CHD
   29    32     1     0     0
SMALL
NO_CHARGES


@<TRIPOS>ATOM
      1 C1         -6.8160  -16.6210   85.7700 C.3       1 CHD401      0.0000 
      2 C2         -6.0020  -16.6720   84.4980 C.3       1 CHD401      0.0000 
      3 C3         -6.2450  -18.0070   83.7830 C.3       1 CHD401      0.0000 
      4 O3         -5.4160  -18.0110   82.6270 O.3       1 CHD401      0.0000 
      5 C4         -5.9180  -19.2190   84.6490 C.3       1 CHD401      0.0000 
      6 C5         -6.6290  -19.1330   86.0110 C.3       1 CHD401      0.0000 
      7 C6         -6.2170  -20.3340   86.8740 C.3       1 CHD401      0.0000 
      8 C7         -4.8070  -20.2500   87.4870 C.3       1 CHD401      0.0000 
      9 O7         -3.7810  -20.5400   86.4990 O.3       1 CHD401      0.0000 
     10 C8         -4.6120  -18.8960   88.1580 C.3       1 CHD401      0.0000 
     11 C9         -5.0230  -17.6890   87.2970 C.3       1 CHD401      0.0000 
     12 C10        -6.4540  -17.7730   86.7310 C.3       1 CHD401      0.0000 
     13 C11        -4.7680  -16.3420   87.9980 C.3       1 CHD401      0.0000 
     14 C12        -3.3270  -16.2250   88.4430 C.3       1 CHD401      0.0000 
     15 O12        -2.4960  -16.2050   87.2630 O.3       1 CHD401      0.0000 
     16 C13        -2.9750  -17.3830   89.3880 C.3       1 CHD401      0.0000 
     17 C14        -3.1700  -18.6980   88.6220 C.3       1 CHD401      0.0000 
     18 C15        -2.5090  -19.7810   89.4890 C.3       1 CHD401      0.0000 
     19 C16        -1.2990  -19.0080   90.0880 C.3       1 CHD401      0.0000 
     20 C17        -1.4980  -17.5060   89.8100 C.3       1 CHD401      0.0000 
     21 C18        -3.8630  -17.3690   90.6580 C.3       1 CHD401      0.0000 
     22 C19        -7.5050  -17.6570   87.8190 C.3       1 CHD401      0.0000 
     23 C20        -1.0290  -16.5630   90.9550 C.3       1 CHD401      0.0000 
     24 C21        -1.3320  -15.0830   90.6330 C.3       1 CHD401      0.0000 
     25 C22         0.4620  -16.6950   91.2480 C.3       1 CHD401      0.0000 
     26 C23         0.9560  -15.8350   92.4480 C.3       1 CHD401      0.0000 
     27 O25         2.4110  -13.9630   93.0050 O.co2     1 CHD401      0.0000 
     28 C24         1.6940  -14.5370   92.1320 C.2       1 CHD401      0.0000 
     29 O26         1.5560  -14.0400   91.0030 O.co2     1 CHD401      0.0000 
@<TRIPOS>BOND
     1    1    2 1    
     2    1   12 1    
     3    2    3 1    
     4    3    4 1    
     5    3    5 1    
     6    5    6 1    
     7    6    7 1    
     8    6   12 1    
     9    7    8 1    
    10    8    9 1    
    11    8   10 1    
    12   10   11 1    
    13   10   17 1    
    14   11   12 1    
    15   11   13 1    
    16   12   22 1    
    17   13   14 1    
    18   14   15 1    
    19   14   16 1    
    20   16   17 1    
    21   16   20 1    
    22   16   21 1    
    23   17   18 1    
    24   18   19 1    
    25   19   20 1    
    26   20   23 1    
    27   23   24 1    
    28   23   25 1    
    29   25   26 1    
    30   26   28 1    
    31   27   28 ar   
    32   28   29 ar   
@<TRIPOS>SUBSTRUCTURE
     1 CHD401      1 GROUP   
@<TRIPOS>SET

