#    Name: 5y7p_4_CHD
#    Modification time : Fri May 22 19:29:05 2020

@<TRIPOS>MOLECULE
5y7p_4_CHD
   29    32     1     0     0
SMALL
NO_CHARGES


@<TRIPOS>ATOM
      1 C1         -3.8460  -29.3150   34.1040 C.3       1 CHD401      0.0000 
      2 C2         -2.8680  -29.0890   35.2650 C.3       1 CHD401      0.0000 
      3 C3         -3.5720  -28.2380   36.3220 C.3       1 CHD401      0.0000 
      4 O3         -2.6820  -27.9340   37.3840 O.3       1 CHD401      0.0000 
      5 C4         -4.0390  -26.9280   35.7250 C.3       1 CHD401      0.0000 
      6 C5         -4.8820  -27.1010   34.4590 C.3       1 CHD401      0.0000 
      7 C6         -5.2140  -25.7250   33.8930 C.3       1 CHD401      0.0000 
      8 C7         -4.0630  -25.0460   33.1460 C.3       1 CHD401      0.0000 
      9 O7         -3.1600  -24.5350   34.1460 O.3       1 CHD401      0.0000 
     10 C8         -3.4110  -25.9830   32.1400 C.3       1 CHD401      0.0000 
     11 C9         -3.0810  -27.3680   32.7230 C.3       1 CHD401      0.0000 
     12 C10        -4.2590  -28.0230   33.4040 C.3       1 CHD401      0.0000 
     13 C11        -2.4740  -28.3420   31.6790 C.3       1 CHD401      0.0000 
     14 C12        -1.1900  -27.7950   31.0790 C.3       1 CHD401      0.0000 
     15 O12        -0.1030  -27.9400   32.0380 O.3       1 CHD401      0.0000 
     16 C13        -1.4170  -26.3500   30.5580 C.3       1 CHD401      0.0000 
     17 C14        -2.1080  -25.4220   31.5790 C.3       1 CHD401      0.0000 
     18 C15        -2.1160  -24.0340   30.9250 C.3       1 CHD401      0.0000 
     19 C16        -0.7860  -24.0510   30.1580 C.3       1 CHD401      0.0000 
     20 C17        -0.1720  -25.4700   30.3490 C.3       1 CHD401      0.0000 
     21 C18        -2.2290  -26.4800   29.2330 C.3       1 CHD401      0.0000 
     22 C19        -5.3130  -28.3790   32.3590 C.3       1 CHD401      0.0000 
     23 C20         0.8480  -25.8990   29.2690 C.3       1 CHD401      0.0000 
     24 C21         1.2710  -27.3740   29.2010 C.3       1 CHD401      0.0000 
     25 C22         2.1430  -25.1120   29.4590 C.3       1 CHD401      0.0000 
     26 C23         2.8110  -24.7580   28.1340 C.3       1 CHD401      0.0000 
     27 O25         5.1070  -24.3340   28.5040 O.co2     1 CHD401      0.0000 
     28 C24         4.2370  -25.1860   28.2380 C.2       1 CHD401      0.0000 
     29 O26         4.4480  -26.3960   28.0830 O.co2     1 CHD401      0.0000 
@<TRIPOS>BOND
     1    1    2 1    
     2    1   12 1    
     3    2    3 1    
     4    3    4 1    
     5    3    5 1    
     6    5    6 1    
     7    6    7 1    
     8    6   12 1    
     9    7    8 1    
    10    8    9 1    
    11    8   10 1    
    12   10   11 1    
    13   10   17 1    
    14   11   12 1    
    15   11   13 1    
    16   12   22 1    
    17   13   14 1    
    18   14   15 1    
    19   14   16 1    
    20   16   17 1    
    21   16   20 1    
    22   16   21 1    
    23   17   18 1    
    24   18   19 1    
    25   19   20 1    
    26   20   23 1    
    27   23   24 1    
    28   23   25 1    
    29   25   26 1    
    30   26   28 1    
    31   27   28 ar   
    32   28   29 ar   
@<TRIPOS>SUBSTRUCTURE
     1 CHD401      1 GROUP   
@<TRIPOS>SET

