#    Name: 5y7p_3_CHD
#    Modification time : Fri May 22 19:29:01 2020

@<TRIPOS>MOLECULE
5y7p_3_CHD
   29    32     1     0     0
SMALL
NO_CHARGES


@<TRIPOS>ATOM
      1 C1         47.7180   -1.7210   -2.2450 C.3       1 CHD401      0.0000 
      2 C2         46.7590   -1.6270   -3.4330 C.3       1 CHD401      0.0000 
      3 C3         47.0380   -0.3210   -4.1650 C.3       1 CHD401      0.0000 
      4 O3         46.1920   -0.2810   -5.2870 O.3       1 CHD401      0.0000 
      5 C4         46.7680    0.8510   -3.2340 C.3       1 CHD401      0.0000 
      6 C5         47.6280    0.7620   -1.9530 C.3       1 CHD401      0.0000 
      7 C6         47.3420    1.9460   -1.0030 C.3       1 CHD401      0.0000 
      8 C7         45.9830    1.8900   -0.3300 C.3       1 CHD401      0.0000 
      9 O7         44.8830    2.1660   -1.2550 O.3       1 CHD401      0.0000 
     10 C8         45.8370    0.5880    0.4310 C.3       1 CHD401      0.0000 
     11 C9         46.1640   -0.6230   -0.4540 C.3       1 CHD401      0.0000 
     12 C10        47.5300   -0.5760   -1.2390 C.3       1 CHD401      0.0000 
     13 C11        46.0210   -1.8870    0.3770 C.3       1 CHD401      0.0000 
     14 C12        44.6750   -2.0160    1.0880 C.3       1 CHD401      0.0000 
     15 O12        43.6540   -2.1880    0.1270 O.3       1 CHD401      0.0000 
     16 C13        44.3150   -0.7990    1.9440 C.3       1 CHD401      0.0000 
     17 C14        44.4140    0.4150    1.0440 C.3       1 CHD401      0.0000 
     18 C15        43.7150    1.5120    1.8540 C.3       1 CHD401      0.0000 
     19 C16        42.5850    0.7590    2.6230 C.3       1 CHD401      0.0000 
     20 C17        42.8570   -0.7510    2.4610 C.3       1 CHD401      0.0000 
     21 C18        45.3040   -0.6530    3.1380 C.3       1 CHD401      0.0000 
     22 C19        48.7350   -0.7200   -0.3120 C.3       1 CHD401      0.0000 
     23 C20        42.6150   -1.6660    3.6840 C.3       1 CHD401      0.0000 
     24 C21        42.6210   -3.1490    3.2990 C.3       1 CHD401      0.0000 
     25 C22        41.4020   -1.3710    4.5640 C.3       1 CHD401      0.0000 
     26 C23        40.1120   -2.1210    4.2460 C.3       1 CHD401      0.0000 
     27 O25        39.5100   -3.7810    6.0080 O.co2     1 CHD401      0.0000 
     28 C24        39.7970   -3.4970    4.7930 C.2       1 CHD401      0.0000 
     29 O26        39.8050   -4.3300    3.8770 O.co2     1 CHD401      0.0000 
@<TRIPOS>BOND
     1    1    2 1    
     2    1   12 1    
     3    2    3 1    
     4    3    4 1    
     5    3    5 1    
     6    5    6 1    
     7    6    7 1    
     8    6   12 1    
     9    7    8 1    
    10    8    9 1    
    11    8   10 1    
    12   10   11 1    
    13   10   17 1    
    14   11   12 1    
    15   11   13 1    
    16   12   22 1    
    17   13   14 1    
    18   14   15 1    
    19   14   16 1    
    20   16   17 1    
    21   16   20 1    
    22   16   21 1    
    23   17   18 1    
    24   18   19 1    
    25   19   20 1    
    26   20   23 1    
    27   23   24 1    
    28   23   25 1    
    29   25   26 1    
    30   26   28 1    
    31   27   28 ar   
    32   28   29 ar   
@<TRIPOS>SUBSTRUCTURE
     1 CHD401      1 GROUP   
@<TRIPOS>SET

