#    Name: 5y7p_1_GCH
#    Modification time : Fri May 22 19:28:57 2020

@<TRIPOS>MOLECULE
5y7p_1_GCH
   33    36     1     0     0
SMALL
NO_CHARGES


@<TRIPOS>ATOM
      1 C          33.6480   10.5210   50.2640 C.3       1 GCH401      0.0000 
      2 O          32.6890    9.8680   51.1100 O.3       1 GCH401      0.0000 
      3 C1         34.4380    9.5170   49.4760 C.3       1 GCH401      0.0000 
      4 C2         35.4120   10.1460   48.4830 C.3       1 GCH401      0.0000 
      5 C3         34.7470   11.1670   47.5590 C.3       1 GCH401      0.0000 
      6 C4         33.9440   12.1480   48.4200 C.3       1 GCH401      0.0000 
      7 C5         32.9210   11.5250   49.3660 C.3       1 GCH401      0.0000 
      8 C6         35.8380   12.0060   46.8950 C.3       1 GCH401      0.0000 
      9 C7         36.1120    9.0600   47.7120 C.3       1 GCH401      0.0000 
     10 C8         35.3000    8.3540   46.6510 C.3       1 GCH401      0.0000 
     11 O1         34.3950    7.4060   47.2690 O.3       1 GCH401      0.0000 
     12 C9         34.6170    9.3710   45.7490 C.3       1 GCH401      0.0000 
     13 C10        33.8520   10.4550   46.5350 C.3       1 GCH401      0.0000 
     14 C11        33.1380   11.4410   45.5600 C.3       1 GCH401      0.0000 
     15 C12        32.2640   10.7660   44.5470 C.3       1 GCH401      0.0000 
     16 C13        32.9760    9.6600   43.7730 C.3       1 GCH401      0.0000 
     17 C14        33.6560    8.7080   44.7730 C.3       1 GCH401      0.0000 
     18 C15        34.1520    7.5530   43.8950 C.3       1 GCH401      0.0000 
     19 C16        33.1270    7.4380   42.7690 C.3       1 GCH401      0.0000 
     20 C17        32.1410    8.6230   42.9560 C.3       1 GCH401      0.0000 
     21 C18        31.3890    9.0470   41.6310 C.3       1 GCH401      0.0000 
     22 C19        32.2030    9.2250   40.3620 C.3       1 GCH401      0.0000 
     23 C20        30.4610   10.2770   41.7450 C.3       1 GCH401      0.0000 
     24 C21        29.3240    9.9900   42.7360 C.3       1 GCH401      0.0000 
     25 C22        28.2400   11.0480   42.9420 C.2       1 GCH401      0.0000 
     26 N          27.0530   10.7890   42.3940 N.am      1 GCH401      0.0000 
     27 CA         25.8520   11.5570   42.6650 C.3       1 GCH401      0.0000 
     28 O2         28.4420   11.9910   43.7030 O.2       1 GCH401      0.0000 
     29 C23        34.0420   10.2780   42.8560 C.3       1 GCH401      0.0000 
     30 O3         31.1670   10.2990   45.2960 O.3       1 GCH401      0.0000 
     31 C24        24.6760   11.1140   41.8040 C.2       1 GCH401      0.0000 
     32 O4         24.8550   10.3730   40.7880 O.co2     1 GCH401      0.0000 
     33 O5         23.5340   11.5260   42.1500 O.co2     1 GCH401      0.0000 
@<TRIPOS>BOND
     1    1    2 1    
     2    1    3 1    
     3    1    7 1    
     4    3    4 1    
     5    4    5 1    
     6    4    9 1    
     7    5    6 1    
     8    5    8 1    
     9    5   13 1    
    10    6    7 1    
    11    9   10 1    
    12   10   11 1    
    13   10   12 1    
    14   12   13 1    
    15   12   17 1    
    16   13   14 1    
    17   14   15 1    
    18   15   16 1    
    19   15   30 1    
    20   16   17 1    
    21   16   20 1    
    22   16   29 1    
    23   17   18 1    
    24   18   19 1    
    25   19   20 1    
    26   20   21 1    
    27   21   22 1    
    28   21   23 1    
    29   23   24 1    
    30   24   25 1    
    31   25   26 am   
    32   25   28 2    
    33   26   27 1    
    34   27   31 1    
    35   31   32 ar   
    36   31   33 ar   
@<TRIPOS>SUBSTRUCTURE
     1 GCH401      1 GROUP   
@<TRIPOS>SET

