#    Name: 5y7p_5_CHD
#    Modification time : Fri May 22 19:29:09 2020

@<TRIPOS>MOLECULE
5y7p_5_CHD
   29    32     1     0     0
SMALL
NO_CHARGES


@<TRIPOS>ATOM
      1 C1         -8.4820    9.7990   -4.5880 C.3       1 CHD401      0.0000 
      2 C2         -7.4350   10.2980   -5.5680 C.3       1 CHD401      0.0000 
      3 C3         -7.4900    9.4860   -6.8710 C.3       1 CHD401      0.0000 
      4 O3         -6.3940    9.9180   -7.6890 O.3       1 CHD401      0.0000 
      5 C4         -7.3130    8.0200   -6.5760 C.3       1 CHD401      0.0000 
      6 C5         -8.4180    7.5310   -5.6470 C.3       1 CHD401      0.0000 
      7 C6         -8.2690    6.0230   -5.4700 C.3       1 CHD401      0.0000 
      8 C7         -7.1010    5.5580   -4.6040 C.3       1 CHD401      0.0000 
      9 O7         -5.8650    5.6680   -5.3340 O.3       1 CHD401      0.0000 
     10 C8         -7.0690    6.3530   -3.3110 C.3       1 CHD401      0.0000 
     11 C9         -7.2290    7.8750   -3.4880 C.3       1 CHD401      0.0000 
     12 C10        -8.4580    8.2800   -4.3140 C.3       1 CHD401      0.0000 
     13 C11        -7.2520    8.5560   -2.1240 C.3       1 CHD401      0.0000 
     14 C12        -6.0170    8.2540   -1.2960 C.3       1 CHD401      0.0000 
     15 O12        -4.8460    8.8220   -1.9010 O.3       1 CHD401      0.0000 
     16 C13        -5.8090    6.7370   -1.1210 C.3       1 CHD401      0.0000 
     17 C14        -5.8050    6.0650   -2.5000 C.3       1 CHD401      0.0000 
     18 C15        -5.4050    4.6470   -2.1890 C.3       1 CHD401      0.0000 
     19 C16        -4.3930    4.8030   -1.0620 C.3       1 CHD401      0.0000 
     20 C17        -4.4430    6.2720   -0.6250 C.3       1 CHD401      0.0000 
     21 C18        -6.8990    6.2150   -0.1850 C.3       1 CHD401      0.0000 
     22 C19        -9.8200    7.9510   -3.6480 C.3       1 CHD401      0.0000 
     23 C20        -4.2110    6.6280    0.8590 C.3       1 CHD401      0.0000 
     24 C21        -3.7340    8.0960    0.9770 C.3       1 CHD401      0.0000 
     25 C22        -3.3010    5.6300    1.5370 C.3       1 CHD401      0.0000 
     26 C23        -3.2850    5.7740    3.0650 C.3       1 CHD401      0.0000 
     27 O25        -1.8090    6.5580    4.8330 O.co2     1 CHD401      0.0000 
     28 C24        -2.2590    6.7610    3.6450 C.2       1 CHD401      0.0000 
     29 O26        -1.8940    7.7650    2.9390 O.co2     1 CHD401      0.0000 
@<TRIPOS>BOND
     1    1    2 1    
     2    1   12 1    
     3    2    3 1    
     4    3    4 1    
     5    3    5 1    
     6    5    6 1    
     7    6    7 1    
     8    6   12 1    
     9    7    8 1    
    10    8    9 1    
    11    8   10 1    
    12   10   11 1    
    13   10   17 1    
    14   11   12 1    
    15   11   13 1    
    16   12   22 1    
    17   13   14 1    
    18   14   15 1    
    19   14   16 1    
    20   16   17 1    
    21   16   20 1    
    22   16   21 1    
    23   17   18 1    
    24   18   19 1    
    25   19   20 1    
    26   20   23 1    
    27   23   24 1    
    28   23   25 1    
    29   25   26 1    
    30   26   28 1    
    31   27   28 ar   
    32   28   29 ar   
@<TRIPOS>SUBSTRUCTURE
     1 CHD401      1 GROUP   
@<TRIPOS>SET

