#    Name: 5y7p_8_CHD
#    Modification time : Fri May 22 19:29:22 2020

@<TRIPOS>MOLECULE
5y7p_8_CHD
   29    32     1     0     0
SMALL
NO_CHARGES


@<TRIPOS>ATOM
      1 C1         11.7700  -30.1200  134.9140 C.3       1 CHD401      0.0000 
      2 C2         12.8650  -29.4070  135.7310 C.3       1 CHD401      0.0000 
      3 C3         12.1910  -28.4520  136.7110 C.3       1 CHD401      0.0000 
      4 O3         13.1540  -27.6980  137.4630 O.3       1 CHD401      0.0000 
      5 C4         11.3930  -27.4500  135.9090 C.3       1 CHD401      0.0000 
      6 C5         10.3260  -28.0920  135.0100 C.3       1 CHD401      0.0000 
      7 C6          9.5080  -26.9870  134.2970 C.3       1 CHD401      0.0000 
      8 C7         10.2650  -26.2900  133.1680 C.3       1 CHD401      0.0000 
      9 O7         11.2610  -25.4190  133.7420 O.3       1 CHD401      0.0000 
     10 C8         10.8690  -27.3310  132.2200 C.3       1 CHD401      0.0000 
     11 C9         11.6850  -28.4190  132.9350 C.3       1 CHD401      0.0000 
     12 C10        10.9230  -29.1450  134.0730 C.3       1 CHD401      0.0000 
     13 C11        12.2680  -29.4240  131.9290 C.3       1 CHD401      0.0000 
     14 C12        13.0640  -28.7560  130.8350 C.3       1 CHD401      0.0000 
     15 O12        14.1880  -28.1620  131.4480 O.3       1 CHD401      0.0000 
     16 C13        12.2820  -27.6490  130.1330 C.3       1 CHD401      0.0000 
     17 C14        11.7370  -26.6650  131.1580 C.3       1 CHD401      0.0000 
     18 C15        11.1970  -25.5050  130.3110 C.3       1 CHD401      0.0000 
     19 C16        12.1970  -25.4980  129.1190 C.3       1 CHD401      0.0000 
     20 C17        13.1440  -26.6930  129.3110 C.3       1 CHD401      0.0000 
     21 C18        11.1700  -28.2610  129.2490 C.3       1 CHD401      0.0000 
     22 C19         9.8060  -30.0460  133.4990 C.3       1 CHD401      0.0000 
     23 C20        13.8670  -27.3660  128.1180 C.3       1 CHD401      0.0000 
     24 C21        15.2220  -28.0050  128.5440 C.3       1 CHD401      0.0000 
     25 C22        14.0690  -26.3960  126.9600 C.3       1 CHD401      0.0000 
     26 C23        14.1250  -27.0060  125.5420 C.3       1 CHD401      0.0000 
     27 O25        15.7100  -27.6830  123.8180 O.co2     1 CHD401      0.0000 
     28 C24        15.5100  -27.4310  125.0500 C.2       1 CHD401      0.0000 
     29 O26        16.4170  -27.5280  125.9120 O.co2     1 CHD401      0.0000 
@<TRIPOS>BOND
     1    1    2 1    
     2    1   12 1    
     3    2    3 1    
     4    3    4 1    
     5    3    5 1    
     6    5    6 1    
     7    6    7 1    
     8    6   12 1    
     9    7    8 1    
    10    8    9 1    
    11    8   10 1    
    12   10   11 1    
    13   10   17 1    
    14   11   12 1    
    15   11   13 1    
    16   12   22 1    
    17   13   14 1    
    18   14   15 1    
    19   14   16 1    
    20   16   17 1    
    21   16   20 1    
    22   16   21 1    
    23   17   18 1    
    24   18   19 1    
    25   19   20 1    
    26   20   23 1    
    27   23   24 1    
    28   23   25 1    
    29   25   26 1    
    30   26   28 1    
    31   27   28 ar   
    32   28   29 ar   
@<TRIPOS>SUBSTRUCTURE
     1 CHD401      1 GROUP   
@<TRIPOS>SET

