#    Name: 5y7p_6_CHD
#    Modification time : Fri May 22 19:29:13 2020

@<TRIPOS>MOLECULE
5y7p_6_CHD
   29    32     1     0     0
SMALL
NO_CHARGES


@<TRIPOS>ATOM
      1 C1         47.6500   12.7360  116.6500 C.3       1 CHD401      0.0000 
      2 C2         46.8190   12.6020  117.9260 C.3       1 CHD401      0.0000 
      3 C3         47.5700   11.7460  118.9230 C.3       1 CHD401      0.0000 
      4 O3         46.7360   11.4590  120.0550 O.3       1 CHD401      0.0000 
      5 C4         47.9670   10.4240  118.2780 C.3       1 CHD401      0.0000 
      6 C5         48.5540   10.4720  116.8680 C.3       1 CHD401      0.0000 
      7 C6         48.6560    9.0220  116.3680 C.3       1 CHD401      0.0000 
      8 C7         47.3220    8.4190  115.8500 C.3       1 CHD401      0.0000 
      9 O7         46.5320    8.0040  116.9740 O.3       1 CHD401      0.0000 
     10 C8         46.4860    9.3720  114.9760 C.3       1 CHD401      0.0000 
     11 C9         46.4130   10.8260  115.4940 C.3       1 CHD401      0.0000 
     12 C10        47.7780   11.4070  115.9190 C.3       1 CHD401      0.0000 
     13 C11        45.6390   11.7440  114.5010 C.3       1 CHD401      0.0000 
     14 C12        44.2190   11.2130  114.2400 C.3       1 CHD401      0.0000 
     15 O12        43.4540   11.5000  115.4310 O.3       1 CHD401      0.0000 
     16 C13        44.1710    9.6940  113.8340 C.3       1 CHD401      0.0000 
     17 C14        45.0450    8.8520  114.7900 C.3       1 CHD401      0.0000 
     18 C15        44.8360    7.3830  114.4000 C.3       1 CHD401      0.0000 
     19 C16        43.3250    7.4190  114.1030 C.3       1 CHD401      0.0000 
     20 C17        42.8290    8.9010  113.9630 C.3       1 CHD401      0.0000 
     21 C18        44.6770    9.5560  112.3690 C.3       1 CHD401      0.0000 
     22 C19        48.6260   11.6790  114.6830 C.3       1 CHD401      0.0000 
     23 C20        41.6620    9.1250  112.9180 C.3       1 CHD401      0.0000 
     24 C21        41.2410   10.5800  112.6320 C.3       1 CHD401      0.0000 
     25 C22        40.3590    8.4030  113.3040 C.3       1 CHD401      0.0000 
     26 C23        39.4430    7.9950  112.1340 C.3       1 CHD401      0.0000 
     27 O25        37.7090    6.3060  112.4890 O.co2     1 CHD401      0.0000 
     28 C24        38.1300    7.4630  112.7010 C.2       1 CHD401      0.0000 
     29 O26        37.4660    8.2210  113.4200 O.co2     1 CHD401      0.0000 
@<TRIPOS>BOND
     1    1    2 1    
     2    1   12 1    
     3    2    3 1    
     4    3    4 1    
     5    3    5 1    
     6    5    6 1    
     7    6    7 1    
     8    6   12 1    
     9    7    8 1    
    10    8    9 1    
    11    8   10 1    
    12   10   11 1    
    13   10   17 1    
    14   11   12 1    
    15   11   13 1    
    16   12   22 1    
    17   13   14 1    
    18   14   15 1    
    19   14   16 1    
    20   16   17 1    
    21   16   20 1    
    22   16   21 1    
    23   17   18 1    
    24   18   19 1    
    25   19   20 1    
    26   20   23 1    
    27   23   24 1    
    28   23   25 1    
    29   25   26 1    
    30   26   28 1    
    31   27   28 ar   
    32   28   29 ar   
@<TRIPOS>SUBSTRUCTURE
     1 CHD401      1 GROUP   
@<TRIPOS>SET

