#    Name: 5x8c_2_TMP_CAVITY_N1_6
#    Modification time : Fri May 22 19:19:25 2020

@<TRIPOS>MOLECULE
5x8c_2_TMP_CAVITY_N1_6
   90     0     6     0     0
SMALL
NO_CHARGES


@<TRIPOS>ATOM
      1 N          16.4800   31.4100   17.3600 N.am      1 ALA2        0.0000 
      2 O          17.2100   30.5500   22.2100 O.2       1 ALA2        0.0000 
      3 N          17.0700   33.3300   16.6900 N.am      1 ALA2        0.0000 
      4 N          17.3900   32.4800   17.8800 N.am      1 ALA2        0.0000 
      5 N          18.5400   31.8700   17.1300 N.am      1 ALA2        0.0000 
      6 N          21.0600   28.6800   23.6200 N.am      1 ALA2        0.0000 
      7 OD1        14.6000   32.6300   22.5100 O.co2     2 ASP3        0.0000 
      8 OD1        15.4200   32.8700   20.5700 O.co2     2 ASP3        0.0000 
      9 OD1        15.7400   32.0100   21.7600 O.co2     2 ASP3        0.0000 
     10 OD1        16.0600   31.1600   22.9500 O.co2     2 ASP3        0.0000 
     11 OD1        21.1900   34.2400   16.2300 O.co2     2 ASP3        0.0000 
     12 OD1        22.2400   32.5300   22.2600 O.co2     2 ASP3        0.0000 
     13 OD1        22.5600   31.6800   23.4600 O.co2     2 ASP3        0.0000 
     14 OD1        23.3900   31.9100   21.5200 O.co2     2 ASP3        0.0000 
     15 OD1        23.5700   33.8400   17.1900 O.co2     2 ASP3        0.0000 
     16 OD1        23.9800   33.8300   20.8400 O.co2     2 ASP3        0.0000 
     17 OD1        24.4800   34.9200   17.7100 O.co2     2 ASP3        0.0000 
     18 OD1        24.8100   34.0600   18.9000 O.co2     2 ASP3        0.0000 
     19 OD1        25.1300   33.2100   20.0900 O.co2     2 ASP3        0.0000 
     20 OD1        25.4000   35.9900   18.2200 O.co2     2 ASP3        0.0000 
     21 OD1        25.7200   35.1400   19.4200 O.co2     2 ASP3        0.0000 
     22 NZ         15.6500   31.1800   19.3000 N.4       3 LYS4        0.0000 
     23 NZ         15.9700   30.3300   20.5000 N.4       3 LYS4        0.0000 
     24 NZ         16.3000   29.4800   21.6900 N.4       3 LYS4        0.0000 
     25 NZ         16.8000   30.5600   18.5600 N.4       3 LYS4        0.0000 
     26 NZ         17.1200   29.7100   19.7500 N.4       3 LYS4        0.0000 
     27 NZ         19.5400   33.7700   20.1100 N.4       3 LYS4        0.0000 
     28 NZ         20.4600   34.8400   20.6300 N.4       3 LYS4        0.0000 
     29 NZ         20.7800   33.9900   21.8200 N.4       3 LYS4        0.0000 
     30 NZ         21.2800   35.0800   18.6800 N.4       3 LYS4        0.0000 
     31 NZ         21.6000   34.2300   19.8800 N.4       3 LYS4        0.0000 
     32 NZ         21.9200   33.3800   21.0700 N.4       3 LYS4        0.0000 
     33 NZ         22.1900   36.1500   19.2000 N.4       3 LYS4        0.0000 
     34 NZ         23.3400   35.5300   18.4500 N.4       3 LYS4        0.0000 
     35 NZ         23.6600   34.6800   19.6500 N.4       3 LYS4        0.0000 
     36 NZ         24.2500   36.6000   18.9700 N.4       3 LYS4        0.0000 
     37 NZ         24.5700   35.7500   20.1700 N.4       3 LYS4        0.0000 
     38 CZ         18.0300   30.7800   20.2700 C.ar      4 PHE5        0.0000 
     39 CZ         18.3500   29.9300   21.4600 C.ar      4 PHE5        0.0000 
     40 CZ         18.8600   31.0200   18.3300 C.ar      4 PHE5        0.0000 
     41 CZ         20.0000   30.4000   17.5800 C.ar      4 PHE5        0.0000 
     42 CZ         15.5100   33.7000   23.0300 C.ar      4 PHE5        0.0000 
     43 CZ         16.6600   33.0900   22.2800 C.ar      4 PHE5        0.0000 
     44 CZ         16.9800   32.2300   23.4700 C.ar      4 PHE5        0.0000 
     45 CZ         18.1200   31.6200   22.7200 C.ar      4 PHE5        0.0000 
     46 CZ         19.2700   31.0000   21.9800 C.ar      4 PHE5        0.0000 
     47 CZ         19.5900   30.1500   23.1700 C.ar      4 PHE5        0.0000 
     48 CZ         20.0900   31.2400   20.0400 C.ar      4 PHE5        0.0000 
     49 CZ         20.4100   30.3800   21.2300 C.ar      4 PHE5        0.0000 
     50 CZ         20.7300   29.5300   22.4200 C.ar      4 PHE5        0.0000 
     51 CZ         21.2400   30.6200   19.2900 C.ar      4 PHE5        0.0000 
     52 CZ         22.2000   28.0700   22.8700 C.ar      4 PHE5        0.0000 
     53 CZ         16.1100   35.6200   22.3500 C.ar      4 PHE5        0.0000 
     54 CZ         18.7200   33.5400   22.0500 C.ar      4 PHE5        0.0000 
     55 CZ         20.1800   32.0700   22.4900 C.ar      4 PHE5        0.0000 
     56 CZ         20.5000   31.2200   23.6900 C.ar      4 PHE5        0.0000 
     57 CZ         21.6500   30.6000   22.9400 C.ar      4 PHE5        0.0000 
     58 CZ         21.1000   33.1400   23.0100 C.ar      4 PHE5        0.0000 
     59 CA         17.9400   29.9400   17.8100 C.3       5 GLY6        0.0000 
     60 CA         19.1300   33.7900   16.4600 C.3       5 GLY6        0.0000 
     61 CA         20.9200   31.4700   18.1000 C.3       5 GLY6        0.0000 
     62 CA         21.9700   29.7500   24.1300 C.3       5 GLY6        0.0000 
     63 CA         21.8300   32.5400   18.6100 C.3       5 GLY6        0.0000 
     64 CA         22.1500   31.6900   19.8100 C.3       5 GLY6        0.0000 
     65 CA         22.4700   30.8400   21.0000 C.3       5 GLY6        0.0000 
     66 CA         22.7900   29.9900   22.1900 C.3       5 GLY6        0.0000 
     67 CA         23.1100   29.1400   23.3900 C.3       5 GLY6        0.0000 
     68 CA         22.6600   32.7700   16.6700 C.3       5 GLY6        0.0000 
     69 CA         22.7500   33.6100   19.1300 C.3       5 GLY6        0.0000 
     70 CA         23.0700   32.7600   20.3200 C.3       5 GLY6        0.0000 
     71 CA         23.8900   32.9900   18.3800 C.3       5 GLY6        0.0000 
     72 DU         16.2500   33.1000   18.6300 H         6 CUB7        0.0000 
     73 DU         16.5700   32.2500   19.8200 H         6 CUB7        0.0000 
     74 DU         16.8900   31.4000   21.0100 H         6 CUB7        0.0000 
     75 DU         17.7100   31.6300   19.0700 H         6 CUB7        0.0000 
     76 DU         15.1900   34.5500   21.8300 H         6 CUB7        0.0000 
     77 DU         16.3400   33.9400   21.0900 H         6 CUB7        0.0000 
     78 DU         17.8000   32.4700   21.5300 H         6 CUB7        0.0000 
     79 DU         18.3100   33.5500   18.4000 H         6 CUB7        0.0000 
     80 DU         18.6300   32.7000   19.5900 H         6 CUB7        0.0000 
     81 DU         18.9500   31.8500   20.7800 H         6 CUB7        0.0000 
     82 DU         19.4500   32.9400   17.6500 H         6 CUB7        0.0000 
     83 DU         19.7700   32.0900   18.8400 H         6 CUB7        0.0000 
     84 DU         19.8600   32.9200   21.3000 H         6 CUB7        0.0000 
     85 DU         20.3700   34.0100   18.1700 H         6 CUB7        0.0000 
     86 DU         20.6900   33.1600   19.3600 H         6 CUB7        0.0000 
     87 DU         21.0100   32.3100   20.5500 H         6 CUB7        0.0000 
     88 DU         21.3300   31.4600   21.7500 H         6 CUB7        0.0000 
     89 DU         21.5100   33.3900   17.4200 H         6 CUB7        0.0000 
     90 DU         22.4300   34.4600   17.9400 H         6 CUB7        0.0000 
@<TRIPOS>BOND
@<TRIPOS>SUBSTRUCTURE
     1 ALA2        1 GROUP   
     2 ASP3        7 GROUP   
     3 LYS4       22 GROUP   
     4 PHE5       38 GROUP   
     5 GLY6       59 GROUP   
     6 CUB7       72 GROUP   
@<TRIPOS>SET

