#    Name: 5x8c_2_TMP
#    Modification time : Fri May 22 19:19:25 2020

@<TRIPOS>MOLECULE
5x8c_2_TMP
   21    22     1     0     0
SMALL
NO_CHARGES


@<TRIPOS>ATOM
      1 P          23.8860   34.4060   17.6730 P.3       1 TMP201      0.0000 
      2 O1P        24.0430   33.3240   16.6140 O.co2     1 TMP201      0.0000 
      3 O2P        25.0840   34.5670   18.5890 O.co2     1 TMP201      0.0000 
      4 O3P        23.1540   35.6330   17.1350 O.co2     1 TMP201      0.0000 
      5 O5'        22.8050   34.0470   18.8030 O.3       1 TMP201      0.0000 
      6 C5'        22.7240   32.7980   19.4170 C.3       1 TMP201      0.0000 
      7 C4'        21.3970   32.8170   20.1290 C.3       1 TMP201      0.0000 
      8 O4'        21.1230   31.4750   20.4720 O.3       1 TMP201      0.0000 
      9 C3'        21.4150   33.6160   21.4240 C.3       1 TMP201      0.0000 
     10 O3'        20.2270   34.3940   21.5490 O.3       1 TMP201      0.0000 
     11 C2'        21.3230   32.5930   22.5210 C.3       1 TMP201      0.0000 
     12 C1'        20.7560   31.3840   21.8340 C.3       1 TMP201      0.0000 
     13 N1         21.3060   30.1020   22.2710 N.am      1 TMP201      0.0000 
     14 C2         20.4740   29.1790   22.9260 C.2       1 TMP201      0.0000 
     15 O2         19.2980   29.5230   23.1380 O.2       1 TMP201      0.0000 
     16 N3         20.9580   27.9750   23.3240 N.am      1 TMP201      0.0000 
     17 C4         22.2370   27.5900   23.0970 C.2       1 TMP201      0.0000 
     18 O4         22.6630   26.4570   23.4240 O.2       1 TMP201      0.0000 
     19 C5         23.1300   28.5440   22.3980 C.2       1 TMP201      0.0000 
     20 C5M        24.5650   28.1860   22.1060 C.3       1 TMP201      0.0000 
     21 C6         22.6090   29.7830   22.0250 C.2       1 TMP201      0.0000 
@<TRIPOS>BOND
     1    1    2 ar   
     2    1    3 ar   
     3    1    4 ar   
     4    1    5 1    
     5    5    6 1    
     6    6    7 1    
     7    7    8 1    
     8    7    9 1    
     9    8   12 1    
    10    9   10 1    
    11    9   11 1    
    12   11   12 1    
    13   12   13 1    
    14   13   14 1    
    15   13   21 1    
    16   14   15 2    
    17   14   16 1    
    18   16   17 1    
    19   17   18 2    
    20   17   19 1    
    21   19   20 1    
    22   19   21 2    
@<TRIPOS>SUBSTRUCTURE
     1 TMP201      1 GROUP   
@<TRIPOS>SET

