#    Name: 6ehj_1_COA
#    Modification time : Fri May 22 19:25:52 2020

@<TRIPOS>MOLECULE
6ehj_1_COA
   48    50     1     0     1
SMALL
NO_CHARGES


@<TRIPOS>ATOM
      1 N1A        61.7100   79.9420   50.3990 N.ar      1 COA503      0.0000 
      2 C2A        62.3020   79.4180   51.4800 C.ar      1 COA503      0.0000 
      3 N3A        62.2930   80.0060   52.6810 N.ar      1 COA503      0.0000 
      4 C4A        61.6690   81.1900   52.8600 C.ar      1 COA503      0.0000 
      5 C5A        61.0020   81.8360   51.7270 C.ar      1 COA503      0.0000 
      6 C6A        61.0570   81.1220   50.4390 C.ar      1 COA503      0.0000 
      7 N6A        60.4730   81.6380   49.3370 N.pl3     1 COA503      0.0000 
      8 N7A        60.4790   82.9860   52.1840 N.2       1 COA503      0.0000 
      9 C8A        60.7800   83.0680   53.5000 C.2       1 COA503      0.0000 
     10 N9A        61.4880   81.9980   53.8940 N.pl3     1 COA503      0.0000 
     11 C1B        62.0030   81.7470   55.2450 C.3       1 COA503      0.0000 
     12 C2B        62.7090   83.0090   55.6860 C.3       1 COA503      0.0000 
     13 O2B        64.0900   83.0080   55.2960 O.3       1 COA503      0.0000 
     14 C3B        62.5230   82.9590   57.1790 C.3       1 COA503      0.0000 
     15 O3B        63.5080   82.0920   57.6930 O.3       1 COA503      0.0000 
     16 P3B        64.8450   82.7750   58.2020 P.3       1 COA503      0.0000 
     17 O7A        64.5920   83.2840   59.5930 O.co2     1 COA503      0.0000 
     18 O8A        65.9590   81.7720   58.1700 O.co2     1 COA503      0.0000 
     19 O9A        65.1360   83.9200   57.2840 O.co2     1 COA503      0.0000 
     20 C4B        61.1760   82.2960   57.3550 C.3       1 COA503      0.0000 
     21 O4B        60.9300   81.5570   56.1600 O.3       1 COA503      0.0000 
     22 C5B        60.0830   83.3320   57.5300 C.3       1 COA503      0.0000 
     23 O5B        58.9160   82.6590   57.9570 O.3       1 COA503      0.0000 
     24 P1A        57.4820   83.3550   57.8350 P.3       1 COA503      0.0000 
     25 O1A        57.4910   84.6690   58.5590 O.co2     1 COA503      0.0000 
     26 O2A        56.4530   82.4410   58.4260 O.co2     1 COA503      0.0000 
     27 O3A        57.1700   83.5980   56.2920 O.3       1 COA503      0.0000 
     28 P2A        55.6710   83.7600   55.7720 P.3       1 COA503      0.0000 
     29 O4A        54.6930   83.1430   56.7220 O.co2     1 COA503      0.0000 
     30 O5A        55.3370   85.2060   55.5540 O.co2     1 COA503      0.0000 
     31 O6A        55.5570   82.9670   54.3940 O.3       1 COA503      0.0000 
     32 CBP        56.0140   82.7200   52.0930 C.3       1 COA503      0.0000 
     33 CCP        56.6240   82.9620   53.4580 C.3       1 COA503      0.0000 
     34 CDP        57.0280   83.0670   51.0190 C.3       1 COA503      0.0000 
     35 CEP        55.5890   81.2670   51.9820 C.3       1 COA503      0.0000 
     36 CAP        54.7850   83.6120   51.9580 C.3       1 COA503      0.0000 
     37 OAP        55.1740   84.9810   52.0740 O.3       1 COA503      0.0000 
     38 C9P        54.0960   83.3700   50.6510 C.2       1 COA503      0.0000 
     39 O9P        53.2340   82.5230   50.5680 O.2       1 COA503      0.0000 
     40 N8P        54.4840   84.1160   49.6290 N.am      1 COA503      0.0000 
     41 C7P        53.8030   84.0870   48.3540 C.3       1 COA503      0.0000 
     42 C6P        54.2090   82.8640   47.5420 C.3       1 COA503      0.0000 
     43 C5P        55.7090   82.7060   47.5340 C.2       1 COA503      0.0000 
     44 O5P        56.4340   83.6810   47.5590 O.2       1 COA503      0.0000 
     45 N4P        56.1660   81.4600   47.4720 N.am      1 COA503      0.0000 
     46 C3P        57.5070   81.0940   47.8800 C.3       1 COA503      0.0000 
     47 C2P        58.4060   80.7180   46.7100 C.3       1 COA503      0.0000 
     48 S1P        59.9990   80.1240   47.3360 S.3       1 COA503      0.0000 
@<TRIPOS>BOND
     1    1    2 ar   
     2    1    6 ar   
     3    2    3 ar   
     4    3    4 ar   
     5    4    5 ar   
     6    4   10 1    
     7    5    6 ar   
     8    5    8 1    
     9    6    7 1    
    10    8    9 2    
    11    9   10 1    
    12   10   11 1    
    13   11   12 1    
    14   11   21 1    
    15   12   13 1    
    16   12   14 1    
    17   14   15 1    
    18   14   20 1    
    19   15   16 1    
    20   16   17 ar   
    21   16   18 ar   
    22   16   19 ar   
    23   20   21 1    
    24   20   22 1    
    25   22   23 1    
    26   23   24 1    
    27   24   25 ar   
    28   24   26 ar   
    29   24   27 1    
    30   27   28 1    
    31   28   29 ar   
    32   28   30 ar   
    33   28   31 1    
    34   31   33 1    
    35   32   33 1    
    36   32   34 1    
    37   32   35 1    
    38   32   36 1    
    39   36   37 1    
    40   36   38 1    
    41   38   39 2    
    42   38   40 am   
    43   40   41 1    
    44   41   42 1    
    45   42   43 1    
    46   43   44 2    
    47   43   45 am   
    48   45   46 1    
    49   46   47 1    
    50   47   48 1    
@<TRIPOS>SUBSTRUCTURE
     1 COA503      1 GROUP   
@<TRIPOS>SET
ATOM$ORANGE STATIC     ATOMS   COLORGROUP SYSTEM 
42 2 2 4 4 5 5 6 6 9 9 11 11 12 12 14 14 20 \
20 22 22 32 32 33 33 34 34 35 35 36 36 38 38 41 41 42 \
42 43 43 46 46 47 47 

