#    Name: 6cif_4_H4B_CAVITY_N1_6
#    Modification time : Fri May 22 19:36:30 2020

@<TRIPOS>MOLECULE
6cif_4_H4B_CAVITY_N1_6
   22     0     5     0     0
SMALL
NO_CHARGES


@<TRIPOS>ATOM
      1 N         -67.4800   10.6100 -217.2700 N.am      1 ALA2        0.0000 
      2 N         -67.8200   11.7300 -218.2200 N.am      1 ALA2        0.0000 
      3 N         -68.1500   12.8400 -219.1700 N.am      1 ALA2        0.0000 
      4 N         -67.2600   12.7200 -217.2500 N.am      1 ALA2        0.0000 
      5 N         -69.0700   12.8800 -214.0500 N.am      1 ALA2        0.0000 
      6 N         -67.7200   12.7400 -214.6900 N.am      1 ALA2        0.0000 
      7 NZ        -69.3900    9.7500 -217.6100 N.4       2 LYS4        0.0000 
      8 NZ        -68.1600    8.5200 -214.7400 N.4       2 LYS4        0.0000 
      9 NZ        -68.5000    9.6400 -215.6900 N.4       2 LYS4        0.0000 
     10 NZ        -70.1800   10.8900 -216.0000 N.4       2 LYS4        0.0000 
     11 NZ        -68.8300   10.7500 -216.6300 N.4       2 LYS4        0.0000 
     12 CZ        -69.5000   12.9800 -218.5300 C.ar      3 PHE5        0.0000 
     13 CZ        -69.9600   12.9900 -215.9700 C.ar      3 PHE5        0.0000 
     14 CZ        -68.6100   12.8600 -216.6100 C.ar      3 PHE5        0.0000 
     15 CZ        -69.4000   13.9900 -215.0000 C.ar      3 PHE5        0.0000 
     16 CZ        -68.0500   13.8600 -215.6400 C.ar      3 PHE5        0.0000 
     17 CA        -67.1500    9.5000 -216.3200 C.3       4 GLY6        0.0000 
     18 CA        -67.5900   13.8400 -218.1900 C.3       4 GLY6        0.0000 
     19 DU        -70.5200   12.0000 -216.9500 H         5 CUB7        0.0000 
     20 DU        -69.1700   11.8600 -217.5800 H         5 CUB7        0.0000 
     21 DU        -67.9400   10.6300 -214.7100 H         5 CUB7        0.0000 
     22 DU        -68.2800   11.7500 -215.6600 H         5 CUB7        0.0000 
@<TRIPOS>BOND
@<TRIPOS>SUBSTRUCTURE
     1 ALA2        1 GROUP   
     2 LYS4        7 GROUP   
     3 PHE5       12 GROUP   
     4 GLY6       17 GROUP   
     5 CUB7       19 GROUP   
@<TRIPOS>SET

