#    Name: 6cif_4_H4B_CAVITY_N1_4
#    Modification time : Fri May 22 19:36:30 2020

@<TRIPOS>MOLECULE
6cif_4_H4B_CAVITY_N1_4
   11     0     4     0     0
SMALL
NO_CHARGES


@<TRIPOS>ATOM
      1 N         -67.2600   12.7200 -217.2500 N.am      1 ALA2        0.0000 
      2 N         -69.0700   12.8800 -214.0500 N.am      1 ALA2        0.0000 
      3 N         -67.7200   12.7400 -214.6900 N.am      1 ALA2        0.0000 
      4 NZ        -70.1800   10.8900 -216.0000 N.4       2 LYS4        0.0000 
      5 CZ        -69.9600   12.9900 -215.9700 C.ar      3 PHE5        0.0000 
      6 CZ        -68.6100   12.8600 -216.6100 C.ar      3 PHE5        0.0000 
      7 CZ        -69.4000   13.9900 -215.0000 C.ar      3 PHE5        0.0000 
      8 CZ        -68.0500   13.8600 -215.6400 C.ar      3 PHE5        0.0000 
      9 DU        -70.5200   12.0000 -216.9500 H         4 CUB7        0.0000 
     10 DU        -67.9400   10.6300 -214.7100 H         4 CUB7        0.0000 
     11 DU        -68.2800   11.7500 -215.6600 H         4 CUB7        0.0000 
@<TRIPOS>BOND
@<TRIPOS>SUBSTRUCTURE
     1 ALA2        1 GROUP   
     2 LYS4        4 GROUP   
     3 PHE5        5 GROUP   
     4 CUB7        9 GROUP   
@<TRIPOS>SET

