#    Name: 6cif_3_H4B_CAVITY_N1_12
#    Modification time : Fri May 22 19:36:21 2020

@<TRIPOS>MOLECULE
6cif_3_H4B_CAVITY_N1_12
   89     0     7     0     0
SMALL
NO_CHARGES


@<TRIPOS>ATOM
      1 OG        -52.2600   21.5800 -197.9100 O.3       1 SER1        0.0000 
      2 OG        -51.7100   26.8200 -194.3400 O.3       1 SER1        0.0000 
      3 OG        -50.3600   26.6800 -194.9700 O.3       1 SER1        0.0000 
      4 N         -48.4300   19.0700 -199.8500 N.am      2 ALA2        0.0000 
      5 N         -47.0800   18.9300 -200.4900 N.am      2 ALA2        0.0000 
      6 N         -50.1200   20.3200 -200.1600 N.am      2 ALA2        0.0000 
      7 N         -48.7700   20.1800 -200.8000 N.am      2 ALA2        0.0000 
      8 O         -59.5700   25.5800 -200.1300 O.2       2 ALA2        0.0000 
      9 N         -57.6700   22.1300 -195.3700 N.am      2 ALA2        0.0000 
     10 N         -46.9800   19.9500 -196.9600 N.am      2 ALA2        0.0000 
     11 N         -58.4600   23.2600 -193.7600 N.am      2 ALA2        0.0000 
     12 N         -57.4400   24.2400 -195.3400 N.am      2 ALA2        0.0000 
     13 N         -56.5500   24.1200 -193.4200 N.am      2 ALA2        0.0000 
     14 O         -56.8800   25.2300 -194.3700 O.2       2 ALA2        0.0000 
     15 O         -54.9800   26.0900 -194.0300 O.2       2 ALA2        0.0000 
     16 OD1       -47.4100   20.0500 -201.4300 O.co2     3 ASP3        0.0000 
     17 OD1       -58.5600   22.2400 -197.2900 O.co2     3 ASP3        0.0000 
     18 OD1       -57.2100   22.1100 -197.9200 O.co2     3 ASP3        0.0000 
     19 OD1       -58.9000   23.3600 -198.2300 O.co2     3 ASP3        0.0000 
     20 OD1       -57.5400   23.2200 -198.8700 O.co2     3 ASP3        0.0000 
     21 OD1       -56.1900   23.0800 -199.5100 O.co2     3 ASP3        0.0000 
     22 OD1       -59.2300   24.4700 -199.1800 O.co2     3 ASP3        0.0000 
     23 OD1       -57.8800   24.3300 -199.8200 O.co2     3 ASP3        0.0000 
     24 OD1       -46.8600   21.0400 -200.4600 O.co2     3 ASP3        0.0000 
     25 OD1       -55.7600   22.9900 -195.0300 O.co2     3 ASP3        0.0000 
     26 OD1       -53.0500   22.7200 -196.3000 O.co2     3 ASP3        0.0000 
     27 OD1       -54.7400   23.9700 -196.6200 O.co2     3 ASP3        0.0000 
     28 OD1       -55.2000   23.9800 -194.0600 O.co2     3 ASP3        0.0000 
     29 OD1       -53.8500   23.8500 -194.6900 O.co2     3 ASP3        0.0000 
     30 OD1       -52.5000   23.7100 -195.3300 O.co2     3 ASP3        0.0000 
     31 OD1       -54.6400   24.9800 -193.0900 O.co2     3 ASP3        0.0000 
     32 OD1       -53.2900   24.8500 -193.7200 O.co2     3 ASP3        0.0000 
     33 OD1       -51.9400   24.7100 -194.3600 O.co2     3 ASP3        0.0000 
     34 OD1       -53.6200   25.9600 -194.6700 O.co2     3 ASP3        0.0000 
     35 OD1       -52.2700   25.8200 -195.3100 O.co2     3 ASP3        0.0000 
     36 OD1       -50.0300   25.5700 -194.0200 O.co2     3 ASP3        0.0000 
     37 NZ        -59.3500   23.3700 -195.6800 N.4       4 LYS4        0.0000 
     38 NZ        -59.6900   24.4900 -196.6200 N.4       4 LYS4        0.0000 
     39 NZ        -58.7900   24.3700 -194.7000 N.4       4 LYS4        0.0000 
     40 NZ        -59.1300   25.4800 -195.6500 N.4       4 LYS4        0.0000 
     41 CZ        -48.8900   19.0900 -197.2900 C.ar      5 PHE5        0.0000 
     42 CZ        -47.5400   18.9500 -197.9300 C.ar      5 PHE5        0.0000 
     43 CZ        -49.2200   20.2000 -198.2400 C.ar      5 PHE5        0.0000 
     44 CZ        -47.8700   20.0700 -198.8800 C.ar      5 PHE5        0.0000 
     45 CZ        -50.9100   21.4500 -198.5500 C.ar      5 PHE5        0.0000 
     46 CZ        -49.5600   21.3100 -199.1900 C.ar      5 PHE5        0.0000 
     47 CZ        -48.2100   21.1800 -199.8200 C.ar      5 PHE5        0.0000 
     48 CZ        -51.2500   22.5600 -199.5000 C.ar      5 PHE5        0.0000 
     49 CZ        -49.8900   22.4300 -200.1400 C.ar      5 PHE5        0.0000 
     50 CZ        -49.3400   23.4200 -199.1600 C.ar      5 PHE5        0.0000 
     51 CA        -45.7300   18.8000 -201.1200 C.3       6 GLY6        0.0000 
     52 CA        -58.0000   23.2400 -196.3100 C.3       6 GLY6        0.0000 
     53 CA        -48.3300   20.0800 -196.3200 C.3       6 GLY6        0.0000 
     54 CA        -51.3700   21.4700 -195.9900 C.3       6 GLY6        0.0000 
     55 CA        -50.0200   21.3300 -196.6300 C.3       6 GLY6        0.0000 
     56 CA        -48.6600   21.2000 -197.2700 C.3       6 GLY6        0.0000 
     57 CA        -51.7000   22.5800 -196.9400 C.3       6 GLY6        0.0000 
     58 CA        -50.3500   22.4500 -197.5800 C.3       6 GLY6        0.0000 
     59 CA        -52.1600   22.6000 -194.3800 C.3       6 GLY6        0.0000 
     60 CA        -48.1100   22.1900 -196.2900 C.3       6 GLY6        0.0000 
     61 CA        -51.1400   23.5800 -195.9700 C.3       6 GLY6        0.0000 
     62 CA        -49.7900   23.4400 -196.6100 C.3       6 GLY6        0.0000 
     63 CA        -48.4400   23.3100 -197.2400 C.3       6 GLY6        0.0000 
     64 CA        -50.5900   24.5700 -195.0000 C.3       6 GLY6        0.0000 
     65 DU        -46.5200   19.9300 -199.5100 H         7 CUB7        0.0000 
     66 DU        -56.6500   23.1000 -196.9500 H         7 CUB7        0.0000 
     67 DU        -53.9500   22.8300 -198.2200 H         7 CUB7        0.0000 
     68 DU        -52.6000   22.7000 -198.8600 H         7 CUB7        0.0000 
     69 DU        -58.3400   24.3500 -197.2600 H         7 CUB7        0.0000 
     70 DU        -56.9900   24.2200 -197.9000 H         7 CUB7        0.0000 
     71 DU        -55.6300   24.0800 -198.5400 H         7 CUB7        0.0000 
     72 DU        -54.2800   23.9500 -199.1700 H         7 CUB7        0.0000 
     73 DU        -58.6700   25.4700 -198.2100 H         7 CUB7        0.0000 
     74 DU        -57.3200   25.3300 -198.8500 H         7 CUB7        0.0000 
     75 DU        -55.9700   25.1900 -199.4800 H         7 CUB7        0.0000 
     76 DU        -54.6200   25.0600 -200.1200 H         7 CUB7        0.0000 
     77 DU        -47.3100   21.0600 -197.9000 H         7 CUB7        0.0000 
     78 DU        -49.0000   22.3100 -198.2200 H         7 CUB7        0.0000 
     79 DU        -47.6500   22.1700 -198.8500 H         7 CUB7        0.0000 
     80 DU        -56.0900   24.1000 -195.9800 H         7 CUB7        0.0000 
     81 DU        -53.3900   23.8300 -197.2500 H         7 CUB7        0.0000 
     82 DU        -52.0400   23.6900 -197.8900 H         7 CUB7        0.0000 
     83 DU        -50.6900   23.5600 -198.5300 H         7 CUB7        0.0000 
     84 DU        -52.3700   24.8100 -198.8400 H         7 CUB7        0.0000 
     85 DU        -52.7100   25.9200 -199.7900 H         7 CUB7        0.0000 
     86 DU        -55.5300   25.1000 -195.0100 H         7 CUB7        0.0000 
     87 DU        -54.1800   24.9600 -195.6400 H         7 CUB7        0.0000 
     88 DU        -52.8300   24.8300 -196.2800 H         7 CUB7        0.0000 
     89 DU        -51.4800   24.6900 -196.9200 H         7 CUB7        0.0000 
@<TRIPOS>BOND
@<TRIPOS>SUBSTRUCTURE
     1 SER1        1 GROUP   
     2 ALA2        4 GROUP   
     3 ASP3       16 GROUP   
     4 LYS4       37 GROUP   
     5 PHE5       41 GROUP   
     6 GLY6       51 GROUP   
     7 CUB7       65 GROUP   
@<TRIPOS>SET

