#    Name: 6cif_3_H4B_CAVITY_N1_8
#    Modification time : Fri May 22 19:36:21 2020

@<TRIPOS>MOLECULE
6cif_3_H4B_CAVITY_N1_8
   57     0     7     0     0
SMALL
NO_CHARGES


@<TRIPOS>ATOM
      1 OG        -52.2600   21.5800 -197.9100 O.3       1 SER1        0.0000 
      2 N         -50.1200   20.3200 -200.1600 N.am      2 ALA2        0.0000 
      3 O         -59.5700   25.5800 -200.1300 O.2       2 ALA2        0.0000 
      4 N         -57.6700   22.1300 -195.3700 N.am      2 ALA2        0.0000 
      5 N         -58.4600   23.2600 -193.7600 N.am      2 ALA2        0.0000 
      6 N         -57.4400   24.2400 -195.3400 N.am      2 ALA2        0.0000 
      7 N         -56.5500   24.1200 -193.4200 N.am      2 ALA2        0.0000 
      8 O         -56.8800   25.2300 -194.3700 O.2       2 ALA2        0.0000 
      9 O         -54.9800   26.0900 -194.0300 O.2       2 ALA2        0.0000 
     10 OD1       -58.5600   22.2400 -197.2900 O.co2     3 ASP3        0.0000 
     11 OD1       -57.2100   22.1100 -197.9200 O.co2     3 ASP3        0.0000 
     12 OD1       -58.9000   23.3600 -198.2300 O.co2     3 ASP3        0.0000 
     13 OD1       -57.5400   23.2200 -198.8700 O.co2     3 ASP3        0.0000 
     14 OD1       -56.1900   23.0800 -199.5100 O.co2     3 ASP3        0.0000 
     15 OD1       -59.2300   24.4700 -199.1800 O.co2     3 ASP3        0.0000 
     16 OD1       -57.8800   24.3300 -199.8200 O.co2     3 ASP3        0.0000 
     17 OD1       -55.7600   22.9900 -195.0300 O.co2     3 ASP3        0.0000 
     18 OD1       -53.0500   22.7200 -196.3000 O.co2     3 ASP3        0.0000 
     19 OD1       -54.7400   23.9700 -196.6200 O.co2     3 ASP3        0.0000 
     20 OD1       -55.2000   23.9800 -194.0600 O.co2     3 ASP3        0.0000 
     21 OD1       -53.8500   23.8500 -194.6900 O.co2     3 ASP3        0.0000 
     22 OD1       -52.5000   23.7100 -195.3300 O.co2     3 ASP3        0.0000 
     23 OD1       -53.6200   25.9600 -194.6700 O.co2     3 ASP3        0.0000 
     24 OD1       -52.2700   25.8200 -195.3100 O.co2     3 ASP3        0.0000 
     25 NZ        -59.3500   23.3700 -195.6800 N.4       4 LYS4        0.0000 
     26 NZ        -59.6900   24.4900 -196.6200 N.4       4 LYS4        0.0000 
     27 NZ        -58.7900   24.3700 -194.7000 N.4       4 LYS4        0.0000 
     28 NZ        -59.1300   25.4800 -195.6500 N.4       4 LYS4        0.0000 
     29 CZ        -50.9100   21.4500 -198.5500 C.ar      5 PHE5        0.0000 
     30 CZ        -51.2500   22.5600 -199.5000 C.ar      5 PHE5        0.0000 
     31 CZ        -49.8900   22.4300 -200.1400 C.ar      5 PHE5        0.0000 
     32 CA        -58.0000   23.2400 -196.3100 C.3       6 GLY6        0.0000 
     33 CA        -51.3700   21.4700 -195.9900 C.3       6 GLY6        0.0000 
     34 CA        -51.7000   22.5800 -196.9400 C.3       6 GLY6        0.0000 
     35 CA        -50.3500   22.4500 -197.5800 C.3       6 GLY6        0.0000 
     36 CA        -51.1400   23.5800 -195.9700 C.3       6 GLY6        0.0000 
     37 DU        -56.6500   23.1000 -196.9500 H         7 CUB7        0.0000 
     38 DU        -53.9500   22.8300 -198.2200 H         7 CUB7        0.0000 
     39 DU        -52.6000   22.7000 -198.8600 H         7 CUB7        0.0000 
     40 DU        -58.3400   24.3500 -197.2600 H         7 CUB7        0.0000 
     41 DU        -56.9900   24.2200 -197.9000 H         7 CUB7        0.0000 
     42 DU        -55.6300   24.0800 -198.5400 H         7 CUB7        0.0000 
     43 DU        -54.2800   23.9500 -199.1700 H         7 CUB7        0.0000 
     44 DU        -58.6700   25.4700 -198.2100 H         7 CUB7        0.0000 
     45 DU        -57.3200   25.3300 -198.8500 H         7 CUB7        0.0000 
     46 DU        -55.9700   25.1900 -199.4800 H         7 CUB7        0.0000 
     47 DU        -54.6200   25.0600 -200.1200 H         7 CUB7        0.0000 
     48 DU        -56.0900   24.1000 -195.9800 H         7 CUB7        0.0000 
     49 DU        -53.3900   23.8300 -197.2500 H         7 CUB7        0.0000 
     50 DU        -52.0400   23.6900 -197.8900 H         7 CUB7        0.0000 
     51 DU        -50.6900   23.5600 -198.5300 H         7 CUB7        0.0000 
     52 DU        -52.3700   24.8100 -198.8400 H         7 CUB7        0.0000 
     53 DU        -52.7100   25.9200 -199.7900 H         7 CUB7        0.0000 
     54 DU        -55.5300   25.1000 -195.0100 H         7 CUB7        0.0000 
     55 DU        -54.1800   24.9600 -195.6400 H         7 CUB7        0.0000 
     56 DU        -52.8300   24.8300 -196.2800 H         7 CUB7        0.0000 
     57 DU        -51.4800   24.6900 -196.9200 H         7 CUB7        0.0000 
@<TRIPOS>BOND
@<TRIPOS>SUBSTRUCTURE
     1 SER1        1 GROUP   
     2 ALA2        2 GROUP   
     3 ASP3       10 GROUP   
     4 LYS4       25 GROUP   
     5 PHE5       29 GROUP   
     6 GLY6       32 GROUP   
     7 CUB7       37 GROUP   
@<TRIPOS>SET

