#    Name: 6cif_3_H4B_CAVITY_N1_4
#    Modification time : Fri May 22 19:36:21 2020

@<TRIPOS>MOLECULE
6cif_3_H4B_CAVITY_N1_4
   18     0     4     0     0
SMALL
NO_CHARGES


@<TRIPOS>ATOM
      1 O         -59.5700   25.5800 -200.1300 O.2       1 ALA2        0.0000 
      2 OD1       -58.5600   22.2400 -197.2900 O.co2     2 ASP3        0.0000 
      3 OD1       -57.2100   22.1100 -197.9200 O.co2     2 ASP3        0.0000 
      4 OD1       -58.9000   23.3600 -198.2300 O.co2     2 ASP3        0.0000 
      5 OD1       -57.5400   23.2200 -198.8700 O.co2     2 ASP3        0.0000 
      6 OD1       -56.1900   23.0800 -199.5100 O.co2     2 ASP3        0.0000 
      7 OD1       -59.2300   24.4700 -199.1800 O.co2     2 ASP3        0.0000 
      8 OD1       -57.8800   24.3300 -199.8200 O.co2     2 ASP3        0.0000 
      9 NZ        -59.6900   24.4900 -196.6200 N.4       3 LYS4        0.0000 
     10 DU        -56.6500   23.1000 -196.9500 H         4 CUB7        0.0000 
     11 DU        -58.3400   24.3500 -197.2600 H         4 CUB7        0.0000 
     12 DU        -56.9900   24.2200 -197.9000 H         4 CUB7        0.0000 
     13 DU        -55.6300   24.0800 -198.5400 H         4 CUB7        0.0000 
     14 DU        -54.2800   23.9500 -199.1700 H         4 CUB7        0.0000 
     15 DU        -58.6700   25.4700 -198.2100 H         4 CUB7        0.0000 
     16 DU        -57.3200   25.3300 -198.8500 H         4 CUB7        0.0000 
     17 DU        -55.9700   25.1900 -199.4800 H         4 CUB7        0.0000 
     18 DU        -54.6200   25.0600 -200.1200 H         4 CUB7        0.0000 
@<TRIPOS>BOND
@<TRIPOS>SUBSTRUCTURE
     1 ALA2        1 GROUP   
     2 ASP3        2 GROUP   
     3 LYS4        9 GROUP   
     4 CUB7       10 GROUP   
@<TRIPOS>SET

