#    Name: 6cif_3_H4B
#    Modification time : Fri May 22 19:36:20 2020

@<TRIPOS>MOLECULE
6cif_3_H4B
   17    18     1     0     1
SMALL
NO_CHARGES


@<TRIPOS>ATOM
      1 N1        -61.1730   23.5490 -202.1440 N.2       1 H4B502      0.0000 
      2 C2        -60.9610   24.0420 -200.8950 C.2       1 H4B502      0.0000 
      3 N2        -62.0160   24.4860 -200.1550 N.pl3     1 H4B502      0.0000 
      4 N3        -59.7020   24.0910 -200.3900 N.am      1 H4B502      0.0000 
      5 C4        -58.6430   23.6490 -201.1180 C.2       1 H4B502      0.0000 
      6 O4        -57.4770   23.6940 -200.6470 O.2       1 H4B502      0.0000 
      7 C4A       -58.8610   23.1430 -202.3940 C.2       1 H4B502      0.0000 
      8 C8A       -60.1470   23.0960 -202.8990 C.2       1 H4B502      0.0000 
      9 N5        -57.8310   22.6890 -203.1360 N.3       1 H4B502      0.0000 
     10 N8        -60.3820   22.6160 -204.1410 N.pl3     1 H4B502      0.0000 
     11 C6        -57.9560   22.6290 -204.5790 C.3       1 H4B502      0.0000 
     12 C7        -59.3260   22.1120 -205.0240 C.3       1 H4B502      0.0000 
     13 C9        -56.7940   21.8010 -205.1300 C.3       1 H4B502      0.0000 
     14 O9        -56.7160   20.5400 -204.4630 O.3       1 H4B502      0.0000 
     15 C10       -56.9180   21.5370 -206.6230 C.3       1 H4B502      0.0000 
     16 C11       -55.6340   20.8930 -207.1290 C.3       1 H4B502      0.0000 
     17 O10       -57.1470   22.7640 -207.3210 O.3       1 H4B502      0.0000 
@<TRIPOS>BOND
     1    1    2 2    
     2    1    8 1    
     3    2    3 1    
     4    2    4 1    
     5    4    5 am   
     6    5    6 2    
     7    5    7 1    
     8    7    8 2    
     9    7    9 1    
    10    8   10 1    
    11    9   11 1    
    12   10   12 1    
    13   11   12 1    
    14   11   13 1    
    15   13   14 1    
    16   13   15 1    
    17   15   16 1    
    18   15   17 1    
@<TRIPOS>SUBSTRUCTURE
     1 H4B502      1 GROUP   
@<TRIPOS>SET
ATOM$ORANGE STATIC     ATOMS   COLORGROUP SYSTEM 
18 2 2 5 5 7 7 8 8 11 11 12 12 13 13 15 15 16 \
16 

