#    Name: 6cif_4_H4B
#    Modification time : Fri May 22 19:36:29 2020

@<TRIPOS>MOLECULE
6cif_4_H4B
   17    18     1     0     1
SMALL
NO_CHARGES


@<TRIPOS>ATOM
      1 N1        -69.1060   16.1970 -213.2590 N.2       1 H4B502      0.0000 
      2 C2        -69.5650   15.0740 -213.8780 C.2       1 H4B502      0.0000 
      3 N2        -68.7640   13.9760 -213.9610 N.pl3     1 H4B502      0.0000 
      4 N3        -70.8150   15.0510 -214.4190 N.am      1 H4B502      0.0000 
      5 C4        -71.6200   16.1470 -214.3400 C.2       1 H4B502      0.0000 
      6 O4        -72.7740   16.1260 -214.8400 O.2       1 H4B502      0.0000 
      7 C4A       -71.1480   17.3000 -213.7110 C.2       1 H4B502      0.0000 
      8 C8A       -69.8740   17.3120 -213.1600 C.2       1 H4B502      0.0000 
      9 N5        -71.9110   18.4100 -213.6130 N.3       1 H4B502      0.0000 
     10 N8        -69.3980   18.4290 -212.5400 N.pl3     1 H4B502      0.0000 
     11 C6        -71.2410   19.6900 -213.4550 C.3       1 H4B502      0.0000 
     12 C7        -70.2010   19.6370 -212.3340 C.3       1 H4B502      0.0000 
     13 C9        -72.2760   20.8140 -213.3170 C.3       1 H4B502      0.0000 
     14 O9        -73.4110   20.4490 -212.5130 O.3       1 H4B502      0.0000 
     15 C10       -71.6730   22.0760 -212.7300 C.3       1 H4B502      0.0000 
     16 C11       -72.7210   23.1780 -212.8520 C.3       1 H4B502      0.0000 
     17 O10       -70.4470   22.4120 -213.4010 O.3       1 H4B502      0.0000 
@<TRIPOS>BOND
     1    1    2 2    
     2    1    8 1    
     3    2    3 1    
     4    2    4 1    
     5    4    5 am   
     6    5    6 2    
     7    5    7 1    
     8    7    8 2    
     9    7    9 1    
    10    8   10 1    
    11    9   11 1    
    12   10   12 1    
    13   11   12 1    
    14   11   13 1    
    15   13   14 1    
    16   13   15 1    
    17   15   16 1    
    18   15   17 1    
@<TRIPOS>SUBSTRUCTURE
     1 H4B502      1 GROUP   
@<TRIPOS>SET
ATOM$ORANGE STATIC     ATOMS   COLORGROUP SYSTEM 
18 2 2 5 5 7 7 8 8 11 11 12 12 13 13 15 15 16 \
16 

