#    Name: 6cif_4_H4B_CAVITY_N1_12
#    Modification time : Fri May 22 19:36:30 2020

@<TRIPOS>MOLECULE
6cif_4_H4B_CAVITY_N1_12
   88     0     6     0     0
SMALL
NO_CHARGES


@<TRIPOS>ATOM
      1 OG        -69.3800   14.0700 -222.0400 O.3       1 SER1        0.0000 
      2 OG        -68.0300   13.9300 -222.6700 O.3       1 SER1        0.0000 
      3 OG        -68.8200   15.0700 -221.0600 O.3       1 SER1        0.0000 
      4 OG        -67.8100   16.0400 -222.6500 O.3       1 SER1        0.0000 
      5 N         -65.4500    4.0200 -218.6200 N.am      2 ALA2        0.0000 
      6 N         -65.7800    5.1300 -219.5700 N.am      2 ALA2        0.0000 
      7 N         -66.4500    7.3500 -221.4600 N.am      2 ALA2        0.0000 
      8 N         -65.9100    4.0300 -216.0600 N.am      2 ALA2        0.0000 
      9 N         -66.2400    5.1500 -217.0100 N.am      2 ALA2        0.0000 
     10 N         -66.5800    6.2600 -217.9600 N.am      2 ALA2        0.0000 
     11 N         -65.5600    7.2400 -219.5400 N.am      2 ALA2        0.0000 
     12 N         -67.2500    8.4900 -219.8500 N.am      2 ALA2        0.0000 
     13 N         -65.9000    8.3500 -220.4900 N.am      2 ALA2        0.0000 
     14 N         -66.2300    9.4600 -221.4400 N.am      2 ALA2        0.0000 
     15 N         -66.3500    8.3700 -217.9300 N.am      2 ALA2        0.0000 
     16 N         -66.6900    9.4800 -218.8800 N.am      2 ALA2        0.0000 
     17 O         -65.8000    9.3700 -216.9600 O.2       2 ALA2        0.0000 
     18 N         -67.4800   10.6100 -217.2700 N.am      2 ALA2        0.0000 
     19 N         -67.8200   11.7300 -218.2200 N.am      2 ALA2        0.0000 
     20 N         -68.1500   12.8400 -219.1700 N.am      2 ALA2        0.0000 
     21 N         -66.8000   12.7000 -219.8000 N.am      2 ALA2        0.0000 
     22 N         -67.2600   12.7200 -217.2500 N.am      2 ALA2        0.0000 
     23 N         -69.0700   12.8800 -214.0500 N.am      2 ALA2        0.0000 
     24 N         -67.7200   12.7400 -214.6900 N.am      2 ALA2        0.0000 
     25 NZ        -67.0300    6.2800 -215.4000 N.4       3 LYS4        0.0000 
     26 NZ        -67.3700    7.3900 -216.3500 N.4       3 LYS4        0.0000 
     27 NZ        -67.7100    8.5000 -217.3000 N.4       3 LYS4        0.0000 
     28 NZ        -69.3900    9.7500 -217.6100 N.4       3 LYS4        0.0000 
     29 NZ        -68.1600    8.5200 -214.7400 N.4       3 LYS4        0.0000 
     30 NZ        -68.5000    9.6400 -215.6900 N.4       3 LYS4        0.0000 
     31 NZ        -70.1800   10.8900 -216.0000 N.4       3 LYS4        0.0000 
     32 NZ        -68.8300   10.7500 -216.6300 N.4       3 LYS4        0.0000 
     33 CZ        -68.1400    8.6000 -221.7700 C.ar      4 PHE5        0.0000 
     34 CZ        -66.7900    8.4700 -222.4100 C.ar      4 PHE5        0.0000 
     35 CZ        -68.4800    9.7200 -222.7200 C.ar      4 PHE5        0.0000 
     36 CZ        -67.1300    9.5800 -223.3600 C.ar      4 PHE5        0.0000 
     37 CZ        -65.7700    9.4400 -223.9900 C.ar      4 PHE5        0.0000 
     38 CZ        -68.8100   10.8300 -223.6700 C.ar      4 PHE5        0.0000 
     39 CZ        -67.4600   10.6900 -224.3100 C.ar      4 PHE5        0.0000 
     40 CZ        -66.1100   10.5600 -224.9400 C.ar      4 PHE5        0.0000 
     41 CZ        -67.8000   11.8100 -225.2500 C.ar      4 PHE5        0.0000 
     42 CZ        -69.5000   12.9800 -218.5300 C.ar      4 PHE5        0.0000 
     43 CZ        -69.9600   12.9900 -215.9700 C.ar      4 PHE5        0.0000 
     44 CZ        -68.6100   12.8600 -216.6100 C.ar      4 PHE5        0.0000 
     45 CZ        -69.4000   13.9900 -215.0000 C.ar      4 PHE5        0.0000 
     46 CZ        -68.0500   13.8600 -215.6400 C.ar      4 PHE5        0.0000 
     47 CA        -64.5500    3.9000 -216.7000 C.3       5 GLY6        0.0000 
     48 CA        -64.8900    5.0100 -217.6500 C.3       5 GLY6        0.0000 
     49 CA        -65.2300    6.1200 -218.5900 C.3       5 GLY6        0.0000 
     50 CA        -66.5700   10.5800 -222.3900 C.3       5 GLY6        0.0000 
     51 CA        -65.2200   10.4400 -223.0200 C.3       5 GLY6        0.0000 
     52 CA        -65.5500   11.5500 -223.9700 C.3       5 GLY6        0.0000 
     53 CA        -68.5900   12.9400 -223.6400 C.3       5 GLY6        0.0000 
     54 CA        -67.2400   12.8000 -224.2800 C.3       5 GLY6        0.0000 
     55 CA        -65.8900   12.6700 -224.9200 C.3       5 GLY6        0.0000 
     56 CA        -65.3500    5.0300 -215.0900 C.3       5 GLY6        0.0000 
     57 CA        -64.0000    4.9000 -215.7200 C.3       5 GLY6        0.0000 
     58 CA        -65.6800    6.1400 -216.0400 C.3       5 GLY6        0.0000 
     59 CA        -64.3300    6.0100 -216.6700 C.3       5 GLY6        0.0000 
     60 CA        -66.0200    7.2600 -216.9800 C.3       5 GLY6        0.0000 
     61 CA        -67.0200   10.6000 -219.8300 C.3       5 GLY6        0.0000 
     62 CA        -66.0100   11.5700 -221.4100 C.3       5 GLY6        0.0000 
     63 CA        -66.3400   12.6900 -222.3600 C.3       5 GLY6        0.0000 
     64 CA        -68.3700   15.0500 -223.6200 C.3       5 GLY6        0.0000 
     65 CA        -67.0200   14.9100 -224.2600 C.3       5 GLY6        0.0000 
     66 CA        -67.3500   16.0200 -225.2100 C.3       5 GLY6        0.0000 
     67 CA        -66.4800    7.2800 -214.4300 C.3       5 GLY6        0.0000 
     68 CA        -66.8100    8.3900 -215.3700 C.3       5 GLY6        0.0000 
     69 CA        -67.1500    9.5000 -216.3200 C.3       5 GLY6        0.0000 
     70 CA        -68.4900   13.9500 -220.1200 C.3       5 GLY6        0.0000 
     71 CA        -67.1400   13.8200 -220.7500 C.3       5 GLY6        0.0000 
     72 CA        -65.7900   13.6800 -221.3900 C.3       5 GLY6        0.0000 
     73 CA        -67.4700   14.9300 -221.7000 C.3       5 GLY6        0.0000 
     74 CA        -67.5900   13.8400 -218.1900 C.3       5 GLY6        0.0000 
     75 DU        -66.9100    7.3700 -218.9000 H         6 CUB7        0.0000 
     76 DU        -67.5800    9.6000 -220.8000 H         6 CUB7        0.0000 
     77 DU        -67.9200   10.7100 -221.7500 H         6 CUB7        0.0000 
     78 DU        -68.2500   11.8200 -222.7000 H         6 CUB7        0.0000 
     79 DU        -66.9000   11.6900 -223.3300 H         6 CUB7        0.0000 
     80 DU        -68.0400    9.6200 -218.2400 H         6 CUB7        0.0000 
     81 DU        -68.3800   10.7300 -219.1900 H         6 CUB7        0.0000 
     82 DU        -67.3600   11.7100 -220.7800 H         6 CUB7        0.0000 
     83 DU        -67.7000   12.8200 -221.7200 H         6 CUB7        0.0000 
     84 DU        -66.6800   13.8000 -223.3100 H         6 CUB7        0.0000 
     85 DU        -70.5200   12.0000 -216.9500 H         6 CUB7        0.0000 
     86 DU        -69.1700   11.8600 -217.5800 H         6 CUB7        0.0000 
     87 DU        -67.9400   10.6300 -214.7100 H         6 CUB7        0.0000 
     88 DU        -68.2800   11.7500 -215.6600 H         6 CUB7        0.0000 
@<TRIPOS>BOND
@<TRIPOS>SUBSTRUCTURE
     1 SER1        1 GROUP   
     2 ALA2        5 GROUP   
     3 LYS4       25 GROUP   
     4 PHE5       33 GROUP   
     5 GLY6       47 GROUP   
     6 CUB7       75 GROUP   
@<TRIPOS>SET

