#    Name: 6cif_4_H4B_CAVITY_N1_8
#    Modification time : Fri May 22 19:36:30 2020

@<TRIPOS>MOLECULE
6cif_4_H4B_CAVITY_N1_8
   41     0     6     0     0
SMALL
NO_CHARGES


@<TRIPOS>ATOM
      1 OG        -69.3800   14.0700 -222.0400 O.3       1 SER1        0.0000 
      2 OG        -68.8200   15.0700 -221.0600 O.3       1 SER1        0.0000 
      3 N         -66.3500    8.3700 -217.9300 N.am      2 ALA2        0.0000 
      4 N         -66.6900    9.4800 -218.8800 N.am      2 ALA2        0.0000 
      5 O         -65.8000    9.3700 -216.9600 O.2       2 ALA2        0.0000 
      6 N         -67.4800   10.6100 -217.2700 N.am      2 ALA2        0.0000 
      7 N         -67.8200   11.7300 -218.2200 N.am      2 ALA2        0.0000 
      8 N         -68.1500   12.8400 -219.1700 N.am      2 ALA2        0.0000 
      9 N         -66.8000   12.7000 -219.8000 N.am      2 ALA2        0.0000 
     10 N         -67.2600   12.7200 -217.2500 N.am      2 ALA2        0.0000 
     11 N         -69.0700   12.8800 -214.0500 N.am      2 ALA2        0.0000 
     12 N         -67.7200   12.7400 -214.6900 N.am      2 ALA2        0.0000 
     13 NZ        -67.3700    7.3900 -216.3500 N.4       3 LYS4        0.0000 
     14 NZ        -67.7100    8.5000 -217.3000 N.4       3 LYS4        0.0000 
     15 NZ        -69.3900    9.7500 -217.6100 N.4       3 LYS4        0.0000 
     16 NZ        -68.1600    8.5200 -214.7400 N.4       3 LYS4        0.0000 
     17 NZ        -68.5000    9.6400 -215.6900 N.4       3 LYS4        0.0000 
     18 NZ        -70.1800   10.8900 -216.0000 N.4       3 LYS4        0.0000 
     19 NZ        -68.8300   10.7500 -216.6300 N.4       3 LYS4        0.0000 
     20 CZ        -69.5000   12.9800 -218.5300 C.ar      4 PHE5        0.0000 
     21 CZ        -69.9600   12.9900 -215.9700 C.ar      4 PHE5        0.0000 
     22 CZ        -68.6100   12.8600 -216.6100 C.ar      4 PHE5        0.0000 
     23 CZ        -69.4000   13.9900 -215.0000 C.ar      4 PHE5        0.0000 
     24 CZ        -68.0500   13.8600 -215.6400 C.ar      4 PHE5        0.0000 
     25 CA        -66.0200    7.2600 -216.9800 C.3       5 GLY6        0.0000 
     26 CA        -67.0200   10.6000 -219.8300 C.3       5 GLY6        0.0000 
     27 CA        -66.4800    7.2800 -214.4300 C.3       5 GLY6        0.0000 
     28 CA        -66.8100    8.3900 -215.3700 C.3       5 GLY6        0.0000 
     29 CA        -67.1500    9.5000 -216.3200 C.3       5 GLY6        0.0000 
     30 CA        -68.4900   13.9500 -220.1200 C.3       5 GLY6        0.0000 
     31 CA        -67.1400   13.8200 -220.7500 C.3       5 GLY6        0.0000 
     32 CA        -67.4700   14.9300 -221.7000 C.3       5 GLY6        0.0000 
     33 CA        -67.5900   13.8400 -218.1900 C.3       5 GLY6        0.0000 
     34 DU        -68.0400    9.6200 -218.2400 H         6 CUB7        0.0000 
     35 DU        -68.3800   10.7300 -219.1900 H         6 CUB7        0.0000 
     36 DU        -67.3600   11.7100 -220.7800 H         6 CUB7        0.0000 
     37 DU        -67.7000   12.8200 -221.7200 H         6 CUB7        0.0000 
     38 DU        -70.5200   12.0000 -216.9500 H         6 CUB7        0.0000 
     39 DU        -69.1700   11.8600 -217.5800 H         6 CUB7        0.0000 
     40 DU        -67.9400   10.6300 -214.7100 H         6 CUB7        0.0000 
     41 DU        -68.2800   11.7500 -215.6600 H         6 CUB7        0.0000 
@<TRIPOS>BOND
@<TRIPOS>SUBSTRUCTURE
     1 SER1        1 GROUP   
     2 ALA2        3 GROUP   
     3 LYS4       13 GROUP   
     4 PHE5       20 GROUP   
     5 GLY6       25 GROUP   
     6 CUB7       34 GROUP   
@<TRIPOS>SET

