#    Name: 6cif_3_H4B_CAVITY_N1_6
#    Modification time : Fri May 22 19:36:21 2020

@<TRIPOS>MOLECULE
6cif_3_H4B_CAVITY_N1_6
   32     0     5     0     0
SMALL
NO_CHARGES


@<TRIPOS>ATOM
      1 O         -59.5700   25.5800 -200.1300 O.2       1 ALA2        0.0000 
      2 N         -57.6700   22.1300 -195.3700 N.am      1 ALA2        0.0000 
      3 N         -57.4400   24.2400 -195.3400 N.am      1 ALA2        0.0000 
      4 OD1       -58.5600   22.2400 -197.2900 O.co2     2 ASP3        0.0000 
      5 OD1       -57.2100   22.1100 -197.9200 O.co2     2 ASP3        0.0000 
      6 OD1       -58.9000   23.3600 -198.2300 O.co2     2 ASP3        0.0000 
      7 OD1       -57.5400   23.2200 -198.8700 O.co2     2 ASP3        0.0000 
      8 OD1       -56.1900   23.0800 -199.5100 O.co2     2 ASP3        0.0000 
      9 OD1       -59.2300   24.4700 -199.1800 O.co2     2 ASP3        0.0000 
     10 OD1       -57.8800   24.3300 -199.8200 O.co2     2 ASP3        0.0000 
     11 OD1       -55.7600   22.9900 -195.0300 O.co2     2 ASP3        0.0000 
     12 OD1       -54.7400   23.9700 -196.6200 O.co2     2 ASP3        0.0000 
     13 NZ        -59.3500   23.3700 -195.6800 N.4       3 LYS4        0.0000 
     14 NZ        -59.6900   24.4900 -196.6200 N.4       3 LYS4        0.0000 
     15 NZ        -58.7900   24.3700 -194.7000 N.4       3 LYS4        0.0000 
     16 NZ        -59.1300   25.4800 -195.6500 N.4       3 LYS4        0.0000 
     17 CA        -58.0000   23.2400 -196.3100 C.3       4 GLY6        0.0000 
     18 DU        -56.6500   23.1000 -196.9500 H         5 CUB7        0.0000 
     19 DU        -53.9500   22.8300 -198.2200 H         5 CUB7        0.0000 
     20 DU        -52.6000   22.7000 -198.8600 H         5 CUB7        0.0000 
     21 DU        -58.3400   24.3500 -197.2600 H         5 CUB7        0.0000 
     22 DU        -56.9900   24.2200 -197.9000 H         5 CUB7        0.0000 
     23 DU        -55.6300   24.0800 -198.5400 H         5 CUB7        0.0000 
     24 DU        -54.2800   23.9500 -199.1700 H         5 CUB7        0.0000 
     25 DU        -58.6700   25.4700 -198.2100 H         5 CUB7        0.0000 
     26 DU        -57.3200   25.3300 -198.8500 H         5 CUB7        0.0000 
     27 DU        -55.9700   25.1900 -199.4800 H         5 CUB7        0.0000 
     28 DU        -54.6200   25.0600 -200.1200 H         5 CUB7        0.0000 
     29 DU        -56.0900   24.1000 -195.9800 H         5 CUB7        0.0000 
     30 DU        -53.3900   23.8300 -197.2500 H         5 CUB7        0.0000 
     31 DU        -52.3700   24.8100 -198.8400 H         5 CUB7        0.0000 
     32 DU        -52.7100   25.9200 -199.7900 H         5 CUB7        0.0000 
@<TRIPOS>BOND
@<TRIPOS>SUBSTRUCTURE
     1 ALA2        1 GROUP   
     2 ASP3        4 GROUP   
     3 LYS4       13 GROUP   
     4 GLY6       17 GROUP   
     5 CUB7       18 GROUP   
@<TRIPOS>SET

