#    Name: 6j0z_1_FAD
#    Modification time : Fri May 22 19:32:39 2020

@<TRIPOS>MOLECULE
6j0z_1_FAD
   53    58     1     0     1
SMALL
NO_CHARGES


@<TRIPOS>ATOM
      1 PA         22.8710   37.4400  143.6930 P.3       1 FAD501      0.0000 
      2 O1A        21.8950   38.5520  143.7000 O.co2     1 FAD501      0.0000 
      3 O2A        22.8680   36.4460  144.7870 O.co2     1 FAD501      0.0000 
      4 O5B        22.6930   36.7140  142.3130 O.3       1 FAD501      0.0000 
      5 C5B        23.5000   35.6170  141.8970 C.3       1 FAD501      0.0000 
      6 C4B        23.3810   35.4710  140.4120 C.3       1 FAD501      0.0000 
      7 O4B        23.9710   34.2150  139.9970 O.3       1 FAD501      0.0000 
      8 C3B        21.9400   35.4550  139.8990 C.3       1 FAD501      0.0000 
      9 O3B        21.8500   36.1710  138.6730 O.3       1 FAD501      0.0000 
     10 C2B        21.6870   33.9610  139.6960 C.3       1 FAD501      0.0000 
     11 O2B        20.6750   33.6040  138.7600 O.3       1 FAD501      0.0000 
     12 C1B        23.0480   33.5600  139.1600 C.3       1 FAD501      0.0000 
     13 N9A        23.2860   32.1320  139.1810 N.pl3     1 FAD501      0.0000 
     14 C8A        22.9350   31.2350  140.1540 C.2       1 FAD501      0.0000 
     15 N7A        23.2520   29.9940  139.8720 N.2       1 FAD501      0.0000 
     16 C5A        23.8360   30.0840  138.6170 C.ar      1 FAD501      0.0000 
     17 C6A        24.3870   29.1190  137.7550 C.ar      1 FAD501      0.0000 
     18 N6A        24.4410   27.8150  138.0360 N.pl3     1 FAD501      0.0000 
     19 N1A        24.8860   29.5460  136.5750 N.ar      1 FAD501      0.0000 
     20 C2A        24.8340   30.8460  136.2850 C.ar      1 FAD501      0.0000 
     21 N3A        24.3390   31.8460  137.0140 N.ar      1 FAD501      0.0000 
     22 C4A        23.8530   31.3940  138.1760 C.ar      1 FAD501      0.0000 
     23 N1         19.2800   42.0170  151.2550 N.2       1 FAD501      0.0000 
     24 C2         18.9910   43.1060  151.9990 C.2       1 FAD501      0.0000 
     25 O2         19.8830   43.7540  152.5510 O.2       1 FAD501      0.0000 
     26 N3         17.7140   43.5340  152.1720 N.am      1 FAD501      0.0000 
     27 C4         16.6470   42.8860  151.6010 C.2       1 FAD501      0.0000 
     28 O4         15.5120   43.3140  151.7880 O.2       1 FAD501      0.0000 
     29 C4X        16.9120   41.7560  150.8270 C.2       1 FAD501      0.0000 
     30 N5         15.9040   41.1330  150.2800 N.2       1 FAD501      0.0000 
     31 C5X        16.1860   40.0310  149.5190 C.ar      1 FAD501      0.0000 
     32 C6         15.1170   39.3510  148.9200 C.ar      1 FAD501      0.0000 
     33 C7         15.3200   38.2380  148.1380 C.ar      1 FAD501      0.0000 
     34 C7M        14.1460   37.5350  147.5080 C.3       1 FAD501      0.0000 
     35 C8         16.6390   37.7610  147.9340 C.ar      1 FAD501      0.0000 
     36 C8M        16.8860   36.5430  147.0810 C.3       1 FAD501      0.0000 
     37 C9         17.7030   38.4190  148.5190 C.ar      1 FAD501      0.0000 
     38 C9A        17.4970   39.5600  149.3190 C.ar      1 FAD501      0.0000 
     39 N10        18.5300   40.2590  149.9290 N.pl3     1 FAD501      0.0000 
     40 C10        18.2810   41.3690  150.6960 C.2       1 FAD501      0.0000 
     41 C1'        19.9150   39.8160  149.7330 C.3       1 FAD501      0.0000 
     42 C2'        20.5850   40.5750  148.6180 C.3       1 FAD501      0.0000 
     43 O2'        19.6440   40.8240  147.5900 O.3       1 FAD501      0.0000 
     44 C3'        21.7590   39.7830  148.0470 C.3       1 FAD501      0.0000 
     45 O3'        22.7670   39.6610  149.0440 O.3       1 FAD501      0.0000 
     46 C4'        22.3710   40.4240  146.8020 C.3       1 FAD501      0.0000 
     47 O4'        21.5720   40.1090  145.6600 O.3       1 FAD501      0.0000 
     48 C5'        23.8200   40.0410  146.5830 C.3       1 FAD501      0.0000 
     49 O5'        23.9360   38.8590  145.7490 O.3       1 FAD501      0.0000 
     50 P          25.1560   38.7440  144.7260 P.3       1 FAD501      0.0000 
     51 O1P        26.1460   37.7540  145.2450 O.co2     1 FAD501      0.0000 
     52 O2P        25.6070   40.1090  144.3260 O.co2     1 FAD501      0.0000 
     53 O3P        24.3150   38.0720  143.5740 O.3       1 FAD501      0.0000 
@<TRIPOS>BOND
     1    1    2 ar   
     2    1    3 ar   
     3    1    4 1    
     4    1   53 1    
     5    4    5 1    
     6    5    6 1    
     7    6    7 1    
     8    6    8 1    
     9    7   12 1    
    10    8    9 1    
    11    8   10 1    
    12   10   11 1    
    13   10   12 1    
    14   12   13 1    
    15   13   14 1    
    16   13   22 1    
    17   14   15 2    
    18   15   16 1    
    19   16   17 ar   
    20   16   22 ar   
    21   17   18 1    
    22   17   19 ar   
    23   19   20 ar   
    24   20   21 ar   
    25   21   22 ar   
    26   23   24 1    
    27   23   40 2    
    28   24   25 2    
    29   24   26 am   
    30   26   27 am   
    31   27   28 2    
    32   27   29 1    
    33   29   30 2    
    34   29   40 1    
    35   30   31 1    
    36   31   32 ar   
    37   31   38 ar   
    38   32   33 ar   
    39   33   34 1    
    40   33   35 ar   
    41   35   36 1    
    42   35   37 ar   
    43   37   38 ar   
    44   38   39 1    
    45   39   40 1    
    46   39   41 1    
    47   41   42 1    
    48   42   43 1    
    49   42   44 1    
    50   44   45 1    
    51   44   46 1    
    52   46   47 1    
    53   46   48 1    
    54   48   49 1    
    55   49   50 1    
    56   50   51 ar   
    57   50   52 ar   
    58   50   53 1    
@<TRIPOS>SUBSTRUCTURE
     1 FAD501      1 GROUP   
@<TRIPOS>SET
ATOM$ORANGE STATIC     ATOMS   COLORGROUP SYSTEM 
54 5 5 6 6 8 8 10 10 12 12 14 14 16 16 17 17 20 \
20 22 22 24 24 27 27 29 29 31 31 32 32 33 33 34 34 35 \
35 36 36 37 37 38 38 40 40 41 41 42 42 44 44 46 46 48 \
48 

