#    Name: 6ok4_1_NAD_CAVITY_N1_8
#    Modification time : Fri May 22 19:34:05 2020

@<TRIPOS>MOLECULE
6ok4_1_NAD_CAVITY_N1_8
   68     0     4     0     0
SMALL
NO_CHARGES


@<TRIPOS>ATOM
      1 OG         -0.9300    1.0200  -45.7200 O.3       1 SER1        0.0000 
      2 N          -6.5600   -2.5400  -46.5500 N.am      2 ALA2        0.0000 
      3 N          -7.3000   -1.2800  -46.9000 N.am      2 ALA2        0.0000 
      4 N          -7.4300   -2.7100  -45.3400 N.am      2 ALA2        0.0000 
      5 N          -5.5900   -1.7300  -45.7400 N.am      2 ALA2        0.0000 
      6 N          -6.3300   -0.4800  -46.0900 N.am      2 ALA2        0.0000 
      7 N          -6.4600   -1.9000  -44.5300 N.am      2 ALA2        0.0000 
      8 N          -4.6100   -0.9300  -44.9300 N.am      2 ALA2        0.0000 
      9 N          -5.3500    0.3300  -45.2800 N.am      2 ALA2        0.0000 
     10 O          -6.9700    1.4100  -44.4300 O.2       2 ALA2        0.0000 
     11 N          -2.7700    0.0500  -45.3200 N.am      2 ALA2        0.0000 
     12 O          -5.1200    2.3900  -44.8300 O.2       2 ALA2        0.0000 
     13 N          -0.1900   -0.2300  -45.3700 N.am      2 ALA2        0.0000 
     14 N           0.7800    0.5700  -44.5600 N.am      2 ALA2        0.0000 
     15 N           0.0400    1.8300  -44.9100 N.am      2 ALA2        0.0000 
     16 N           1.7500    1.3800  -43.7500 N.am      2 ALA2        0.0000 
     17 N           1.0100    2.6300  -44.1000 N.am      2 ALA2        0.0000 
     18 O           1.9900    3.4400  -43.2900 O.2       2 ALA2        0.0000 
     19 N           1.1200    3.2700  -42.0800 N.am      2 ALA2        0.0000 
     20 N           0.3700    4.5200  -42.4400 N.am      2 ALA2        0.0000 
     21 N          -0.5000    4.3500  -41.2300 N.am      2 ALA2        0.0000 
     22 N          -1.2400    5.6000  -41.5800 N.am      2 ALA2        0.0000 
     23 CA         -8.1700   -1.4500  -45.6900 C.3       3 GLY6        0.0000 
     24 CA         -7.2000   -0.6500  -44.8800 C.3       3 GLY6        0.0000 
     25 CA         -7.9400    0.6100  -45.2400 C.3       3 GLY6        0.0000 
     26 CA         -8.0700   -0.8200  -43.6700 C.3       3 GLY6        0.0000 
     27 CA         -7.0900   -0.0100  -42.8600 C.3       3 GLY6        0.0000 
     28 CA         -1.2900   -2.4600  -44.6100 C.3       3 GLY6        0.0000 
     29 CA         -2.0300   -1.2100  -44.9700 C.3       3 GLY6        0.0000 
     30 CA         -3.5100    1.3000  -45.6800 C.3       3 GLY6        0.0000 
     31 CA         -5.2500    0.9600  -43.2600 C.3       3 GLY6        0.0000 
     32 CA         -5.9900    2.2200  -43.6200 C.3       3 GLY6        0.0000 
     33 CA          0.5500   -1.4900  -45.0100 C.3       3 GLY6        0.0000 
     34 CA          0.4200   -2.9100  -43.4500 C.3       3 GLY6        0.0000 
     35 CA         -0.3200   -1.6600  -43.8000 C.3       3 GLY6        0.0000 
     36 CA         -1.8000    0.8500  -44.5100 C.3       3 GLY6        0.0000 
     37 CA         -3.4100    1.9400  -43.6600 C.3       3 GLY6        0.0000 
     38 CA         -4.1500    3.1900  -44.0200 C.3       3 GLY6        0.0000 
     39 CA          1.3900   -2.1100  -42.6300 C.3       3 GLY6        0.0000 
     40 CA          0.6500   -0.8500  -42.9900 C.3       3 GLY6        0.0000 
     41 CA         -0.8300    1.6600  -43.7000 C.3       3 GLY6        0.0000 
     42 CA         -1.5700    2.9100  -44.0600 C.3       3 GLY6        0.0000 
     43 CA         -2.4400    2.7400  -42.8500 C.3       3 GLY6        0.0000 
     44 CA         -3.1800    4.0000  -43.2000 C.3       3 GLY6        0.0000 
     45 CA         -2.5700    1.3200  -41.2800 C.3       3 GLY6        0.0000 
     46 CA         -3.3100    2.5700  -41.6400 C.3       3 GLY6        0.0000 
     47 CA          2.5000    0.1200  -43.3900 C.3       3 GLY6        0.0000 
     48 CA          0.2700    3.8900  -44.4600 C.3       3 GLY6        0.0000 
     49 CA         -0.6000    3.7200  -43.2500 C.3       3 GLY6        0.0000 
     50 CA         -2.2100    4.8000  -42.3900 C.3       3 GLY6        0.0000 
     51 CA         -2.3400    3.3800  -40.8300 C.3       3 GLY6        0.0000 
     52 DU         -9.1400   -2.2600  -46.5100 H         4 CUB7        0.0000 
     53 DU        -10.0100   -2.4300  -45.3000 H         4 CUB7        0.0000 
     54 DU         -5.4800   -1.1000  -43.7200 H         4 CUB7        0.0000 
     55 DU         -6.2200    0.1600  -44.0700 H         4 CUB7        0.0000 
     56 DU         -3.6400   -0.1200  -44.1100 H         4 CUB7        0.0000 
     57 DU         -4.3800    1.1300  -44.4700 H         4 CUB7        0.0000 
     58 DU         -1.0600   -0.4000  -44.1600 H         4 CUB7        0.0000 
     59 DU         -2.6700    0.6800  -43.3000 H         4 CUB7        0.0000 
     60 DU         -3.5400    0.5100  -42.0900 H         4 CUB7        0.0000 
     61 DU         -4.2800    1.7700  -42.4500 H         4 CUB7        0.0000 
     62 DU         -0.0900    0.4000  -43.3500 H         4 CUB7        0.0000 
     63 DU         -1.7000    1.4900  -42.4900 H         4 CUB7        0.0000 
     64 DU          1.6300   -0.0500  -42.1800 H         4 CUB7        0.0000 
     65 DU          0.8800    1.2100  -42.5300 H         4 CUB7        0.0000 
     66 DU          0.1400    2.4600  -42.8900 H         4 CUB7        0.0000 
     67 DU         -0.7300    2.2900  -41.6800 H         4 CUB7        0.0000 
     68 DU         -1.4700    3.5500  -42.0400 H         4 CUB7        0.0000 
@<TRIPOS>BOND
@<TRIPOS>SUBSTRUCTURE
     1 SER1        1 GROUP   
     2 ALA2        2 GROUP   
     3 GLY6       23 GROUP   
     4 CUB7       52 GROUP   
@<TRIPOS>SET

