#    Name: 6ok4_4_NAD
#    Modification time : Fri May 22 19:34:30 2020

@<TRIPOS>MOLECULE
6ok4_4_NAD
   44    48     1     0     1
SMALL
NO_CHARGES


@<TRIPOS>ATOM
      1 PA        -15.9890   30.2910  -25.0620 P.3       1 NAD401      0.0000 
      2 O1A       -15.6100   29.8860  -23.6860 O.co2     1 NAD401      0.0000 
      3 O2A       -15.1590   29.5390  -26.0940 O.co2     1 NAD401      0.0000 
      4 O5B       -15.8910   31.8780  -25.3710 O.3       1 NAD401      0.0000 
      5 C5B       -16.0850   32.9010  -24.3770 C.3       1 NAD401      0.0000 
      6 C4B       -14.9290   33.8590  -24.4990 C.3       1 NAD401      0.0000 
      7 O4B       -15.1960   35.0520  -23.7290 O.3       1 NAD401      0.0000 
      8 C3B       -13.5810   33.3080  -24.0140 C.3       1 NAD401      0.0000 
      9 O3B       -12.5590   33.5000  -24.9870 O.3       1 NAD401      0.0000 
     10 C2B       -13.3220   34.0870  -22.7190 C.3       1 NAD401      0.0000 
     11 O2B       -11.9270   34.2650  -22.4950 O.3       1 NAD401      0.0000 
     12 C1B       -14.0340   35.4070  -23.0110 C.3       1 NAD401      0.0000 
     13 N9A       -14.4390   36.1520  -21.8220 N.pl3     1 NAD401      0.0000 
     14 C8A       -14.7810   35.6290  -20.6020 C.2       1 NAD401      0.0000 
     15 N7A       -15.1210   36.5280  -19.7100 N.2       1 NAD401      0.0000 
     16 C5A       -14.9960   37.7300  -20.3900 C.ar      1 NAD401      0.0000 
     17 C6A       -15.2170   39.0660  -20.0050 C.ar      1 NAD401      0.0000 
     18 N6A       -15.6130   39.4310  -18.7830 N.pl3     1 NAD401      0.0000 
     19 N1A       -15.0070   40.0310  -20.9280 N.ar      1 NAD401      0.0000 
     20 C2A       -14.6010   39.6720  -22.1510 C.ar      1 NAD401      0.0000 
     21 N3A       -14.3570   38.4470  -22.6300 N.ar      1 NAD401      0.0000 
     22 C4A       -14.5760   37.5140  -21.6950 C.ar      1 NAD401      0.0000 
     23 O3        -17.5080   29.8970  -25.3200 O.3       1 NAD401      0.0000 
     24 PN        -18.3930   29.9630  -26.6460 P.3       1 NAD401      0.0000 
     25 O1N       -18.6940   28.5710  -27.0480 O.co2     1 NAD401      0.0000 
     26 O2N       -17.7500   30.8780  -27.6160 O.co2     1 NAD401      0.0000 
     27 O5D       -19.7230   30.6390  -26.0850 O.3       1 NAD401      0.0000 
     28 C5D       -20.0410   32.0190  -26.3520 C.3       1 NAD401      0.0000 
     29 C4D       -21.5370   32.2030  -26.2780 C.3       1 NAD401      0.0000 
     30 O4D       -22.1690   31.6150  -27.4400 O.3       1 NAD401      0.0000 
     31 C3D       -22.2080   31.5700  -25.0560 C.3       1 NAD401      0.0000 
     32 O3D       -23.2010   32.4490  -24.5410 O.3       1 NAD401      0.0000 
     33 C2D       -22.8120   30.2840  -25.6260 C.3       1 NAD401      0.0000 
     34 O2D       -23.9520   29.8700  -24.8840 O.3       1 NAD401      0.0000 
     35 C1D       -23.1920   30.7510  -27.0280 C.3       1 NAD401      0.0000 
     36 N1N       -23.3370   29.6160  -28.0850 N.pl3     1 NAD401      0.0000 
     37 C2N       -22.3560   28.6990  -28.1550 C.ar      1 NAD401      0.0000 
     38 C3N       -22.4500   27.6480  -29.0490 C.ar      1 NAD401      0.0000 
     39 C7N       -21.3690   26.6100  -29.1690 C.2       1 NAD401      0.0000 
     40 O7N       -21.5340   25.6430  -29.9300 O.2       1 NAD401      0.0000 
     41 N7N       -20.2820   26.7520  -28.4170 N.am      1 NAD401      0.0000 
     42 C4N       -23.5700   27.5690  -29.8670 C.ar      1 NAD401      0.0000 
     43 C5N       -24.5590   28.5300  -29.7800 C.ar      1 NAD401      0.0000 
     44 C6N       -24.4250   29.5560  -28.8790 C.ar      1 NAD401      0.0000 
@<TRIPOS>BOND
     1    1    2 ar   
     2    1    3 ar   
     3    1    4 1    
     4    1   23 1    
     5    4    5 1    
     6    5    6 1    
     7    6    7 1    
     8    6    8 1    
     9    7   12 1    
    10    8    9 1    
    11    8   10 1    
    12   10   11 1    
    13   10   12 1    
    14   12   13 1    
    15   13   14 1    
    16   13   22 1    
    17   14   15 2    
    18   15   16 1    
    19   16   17 ar   
    20   16   22 ar   
    21   17   18 1    
    22   17   19 ar   
    23   19   20 ar   
    24   20   21 ar   
    25   21   22 ar   
    26   23   24 1    
    27   24   25 ar   
    28   24   26 ar   
    29   24   27 1    
    30   27   28 1    
    31   28   29 1    
    32   29   30 1    
    33   29   31 1    
    34   30   35 1    
    35   31   32 1    
    36   31   33 1    
    37   33   34 1    
    38   33   35 1    
    39   35   36 1    
    40   36   37 ar   
    41   36   44 ar   
    42   37   38 ar   
    43   38   39 1    
    44   38   42 ar   
    45   39   40 2    
    46   39   41 am   
    47   42   43 ar   
    48   43   44 ar   
@<TRIPOS>SUBSTRUCTURE
     1 NAD401      1 GROUP   
@<TRIPOS>SET
ATOM$ORANGE STATIC     ATOMS   COLORGROUP SYSTEM 
42 5 5 6 6 8 8 10 10 12 12 14 14 16 16 17 17 20 \
20 22 22 28 28 29 29 31 31 33 33 35 35 37 37 38 38 39 \
39 42 42 43 43 44 44 

