#    Name: 6ok4_2_NAD
#    Modification time : Fri May 22 19:34:12 2020

@<TRIPOS>MOLECULE
6ok4_2_NAD
   44    48     1     0     1
SMALL
NO_CHARGES


@<TRIPOS>ATOM
      1 PA         -8.4350   20.3310   -9.5180 P.3       1 NAD401      0.0000 
      2 O1A        -8.7690   21.4440  -10.4400 O.co2     1 NAD401      0.0000 
      3 O2A        -9.2920   19.0950   -9.8330 O.co2     1 NAD401      0.0000 
      4 O5B        -8.5480   20.6730   -7.9280 O.3       1 NAD401      0.0000 
      5 C5B        -8.3460   21.9790   -7.3540 C.3       1 NAD401      0.0000 
      6 C4B        -9.4980   22.2350   -6.4160 C.3       1 NAD401      0.0000 
      7 O4B        -9.2220   23.3940   -5.5970 O.3       1 NAD401      0.0000 
      8 C3B       -10.8500   22.4860   -7.1010 C.3       1 NAD401      0.0000 
      9 O3B       -11.8860   21.6650   -6.5710 O.3       1 NAD401      0.0000 
     10 C2B       -11.1060   23.9770   -6.8520 C.3       1 NAD401      0.0000 
     11 O2B       -12.4980   24.2530   -6.7390 O.3       1 NAD401      0.0000 
     12 C1B       -10.3840   24.1910   -5.5250 C.3       1 NAD401      0.0000 
     13 N9A        -9.9880   25.5730   -5.2750 N.pl3     1 NAD401      0.0000 
     14 C8A        -9.6720   26.5230   -6.2110 C.2       1 NAD401      0.0000 
     15 N7A        -9.3480   27.6880   -5.7040 N.2       1 NAD401      0.0000 
     16 C5A        -9.4560   27.4910   -4.3350 C.ar      1 NAD401      0.0000 
     17 C6A        -9.2310   28.3390   -3.2340 C.ar      1 NAD401      0.0000 
     18 N6A        -8.8590   29.6160   -3.3430 N.pl3     1 NAD401      0.0000 
     19 N1A        -9.4090   27.8250   -1.9970 N.ar      1 NAD401      0.0000 
     20 C2A        -9.7910   26.5490   -1.8810 C.ar      1 NAD401      0.0000 
     21 N3A       -10.0360   25.6560   -2.8440 N.ar      1 NAD401      0.0000 
     22 C4A        -9.8490   26.1910   -4.0550 C.ar      1 NAD401      0.0000 
     23 O3         -6.9210   19.8790   -9.7240 O.3       1 NAD401      0.0000 
     24 PN         -6.0410   18.6820   -9.1280 P.3       1 NAD401      0.0000 
     25 O1N        -5.7790   17.7180  -10.2200 O.co2     1 NAD401      0.0000 
     26 O2N        -6.6450   18.2010   -7.8660 O.co2     1 NAD401      0.0000 
     27 O5D        -4.6960   19.4480   -8.7450 O.3       1 NAD401      0.0000 
     28 C5D        -4.3680   19.7390   -7.3700 C.3       1 NAD401      0.0000 
     29 C4D        -2.8690   19.8640   -7.2410 C.3       1 NAD401      0.0000 
     30 O4D        -2.2500   18.5580   -7.3330 O.3       1 NAD401      0.0000 
     31 C3D        -2.2010   20.7340   -8.3120 C.3       1 NAD401      0.0000 
     32 O3D        -1.1900   21.5500   -7.7310 O.3       1 NAD401      0.0000 
     33 C2D        -1.6130   19.7010   -9.2760 C.3       1 NAD401      0.0000 
     34 O2D        -0.4800   20.1980   -9.9810 O.3       1 NAD401      0.0000 
     35 C1D        -1.2310   18.5970   -8.2960 C.3       1 NAD401      0.0000 
     36 N1N        -1.0780   17.1790   -8.9170 N.pl3     1 NAD401      0.0000 
     37 C2N        -2.0370   16.7440   -9.7540 C.ar      1 NAD401      0.0000 
     38 C3N        -1.9150   15.5130  -10.3700 C.ar      1 NAD401      0.0000 
     39 C7N        -2.9880   14.9770  -11.2770 C.2       1 NAD401      0.0000 
     40 O7N        -2.8130   13.8890  -11.8570 O.2       1 NAD401      0.0000 
     41 N7N        -4.0860   15.7030  -11.4370 N.am      1 NAD401      0.0000 
     42 C4N        -0.7890   14.7440  -10.1040 C.ar      1 NAD401      0.0000 
     43 C5N         0.1760   15.2110   -9.2330 C.ar      1 NAD401      0.0000 
     44 C6N         0.0130   16.4370   -8.6410 C.ar      1 NAD401      0.0000 
@<TRIPOS>BOND
     1    1    2 ar   
     2    1    3 ar   
     3    1    4 1    
     4    1   23 1    
     5    4    5 1    
     6    5    6 1    
     7    6    7 1    
     8    6    8 1    
     9    7   12 1    
    10    8    9 1    
    11    8   10 1    
    12   10   11 1    
    13   10   12 1    
    14   12   13 1    
    15   13   14 1    
    16   13   22 1    
    17   14   15 2    
    18   15   16 1    
    19   16   17 ar   
    20   16   22 ar   
    21   17   18 1    
    22   17   19 ar   
    23   19   20 ar   
    24   20   21 ar   
    25   21   22 ar   
    26   23   24 1    
    27   24   25 ar   
    28   24   26 ar   
    29   24   27 1    
    30   27   28 1    
    31   28   29 1    
    32   29   30 1    
    33   29   31 1    
    34   30   35 1    
    35   31   32 1    
    36   31   33 1    
    37   33   34 1    
    38   33   35 1    
    39   35   36 1    
    40   36   37 ar   
    41   36   44 ar   
    42   37   38 ar   
    43   38   39 1    
    44   38   42 ar   
    45   39   40 2    
    46   39   41 am   
    47   42   43 ar   
    48   43   44 ar   
@<TRIPOS>SUBSTRUCTURE
     1 NAD401      1 GROUP   
@<TRIPOS>SET
ATOM$ORANGE STATIC     ATOMS   COLORGROUP SYSTEM 
42 5 5 6 6 8 8 10 10 12 12 14 14 16 16 17 17 20 \
20 22 22 28 28 29 29 31 31 33 33 35 35 37 37 38 38 39 \
39 42 42 43 43 44 44 

