#    Name: 6ok4_3_NAD
#    Modification time : Fri May 22 19:34:21 2020

@<TRIPOS>MOLECULE
6ok4_3_NAD
   44    48     1     0     1
SMALL
NO_CHARGES


@<TRIPOS>ATOM
      1 PA        -17.0850   -9.5900  -29.6500 P.3       1 NAD401      0.0000 
      2 O1A       -16.5000   -9.2290  -30.9650 O.co2     1 NAD401      0.0000 
      3 O2A       -16.3440   -8.8590  -28.5250 O.co2     1 NAD401      0.0000 
      4 O5B       -17.1150  -11.1970  -29.3280 O.3       1 NAD401      0.0000 
      5 C5B       -17.2560  -12.2200  -30.3330 C.3       1 NAD401      0.0000 
      6 C4B       -16.1870  -13.2570  -30.0970 C.3       1 NAD401      0.0000 
      7 O4B       -16.4550  -14.4350  -30.8910 O.3       1 NAD401      0.0000 
      8 C3B       -14.7620  -12.8030  -30.4450 C.3       1 NAD401      0.0000 
      9 O3B       -13.8530  -13.0740  -29.3810 O.3       1 NAD401      0.0000 
     10 C2B       -14.4330  -13.6040  -31.7110 C.3       1 NAD401      0.0000 
     11 O2B       -13.0420  -13.8850  -31.8260 O.3       1 NAD401      0.0000 
     12 C1B       -15.2490  -14.8720  -31.4800 C.3       1 NAD401      0.0000 
     13 N9A       -15.5670  -15.6230  -32.6890 N.pl3     1 NAD401      0.0000 
     14 C8A       -15.7450  -15.1290  -33.9540 C.2       1 NAD401      0.0000 
     15 N7A       -16.0290  -16.0440  -34.8510 N.2       1 NAD401      0.0000 
     16 C5A       -16.0410  -17.2250  -34.1230 C.ar      1 NAD401      0.0000 
     17 C6A       -16.2910  -18.5630  -34.4870 C.ar      1 NAD401      0.0000 
     18 N6A       -16.5960  -18.9530  -35.7280 N.pl3     1 NAD401      0.0000 
     19 N1A       -16.2310  -19.5000  -33.5150 N.ar      1 NAD401      0.0000 
     20 C2A       -15.9390  -19.1160  -32.2680 C.ar      1 NAD401      0.0000 
     21 N3A       -15.6870  -17.8880  -31.8070 N.ar      1 NAD401      0.0000 
     22 C4A       -15.7550  -16.9810  -32.7890 C.ar      1 NAD401      0.0000 
     23 O3        -18.6080   -9.1300  -29.5770 O.3       1 NAD401      0.0000 
     24 PN        -19.6770   -9.1620  -28.3890 P.3       1 NAD401      0.0000 
     25 O1N       -19.9360   -7.7690  -27.9580 O.co2     1 NAD401      0.0000 
     26 O2N       -19.2810  -10.1820  -27.3910 O.co2     1 NAD401      0.0000 
     27 O5D       -20.9620   -9.7350  -29.1370 O.3       1 NAD401      0.0000 
     28 C5D       -21.3920  -11.0970  -28.9550 C.3       1 NAD401      0.0000 
     29 C4D       -22.8780  -11.1550  -29.1940 C.3       1 NAD401      0.0000 
     30 O4D       -23.5730  -10.5590  -28.0730 O.3       1 NAD401      0.0000 
     31 C3D       -23.3610  -10.4140  -30.4460 C.3       1 NAD401      0.0000 
     32 O3D       -24.3750  -11.1550  -31.1130 O.3       1 NAD401      0.0000 
     33 C2D       -23.9140   -9.1040  -29.8790 C.3       1 NAD401      0.0000 
     34 O2D       -24.9170   -8.5580  -30.7300 O.3       1 NAD401      0.0000 
     35 C1D       -24.4740   -9.5930  -28.5440 C.3       1 NAD401      0.0000 
     36 N1N       -24.6450   -8.4930  -27.4450 N.pl3     1 NAD401      0.0000 
     37 C2N       -23.6190   -7.6480  -27.2420 C.ar      1 NAD401      0.0000 
     38 C3N       -23.7550   -6.5880  -26.3650 C.ar      1 NAD401      0.0000 
     39 C7N       -22.6320   -5.6140  -26.1240 C.2       1 NAD401      0.0000 
     40 O7N       -22.8420   -4.6000  -25.4430 O.2       1 NAD401      0.0000 
     41 N7N       -21.4690   -5.8430  -26.7250 N.am      1 NAD401      0.0000 
     42 C4N       -24.9610   -6.4300  -25.6940 C.ar      1 NAD401      0.0000 
     43 C5N       -25.9930   -7.3240  -25.9080 C.ar      1 NAD401      0.0000 
     44 C6N       -25.8170   -8.3590  -26.7920 C.ar      1 NAD401      0.0000 
@<TRIPOS>BOND
     1    1    2 ar   
     2    1    3 ar   
     3    1    4 1    
     4    1   23 1    
     5    4    5 1    
     6    5    6 1    
     7    6    7 1    
     8    6    8 1    
     9    7   12 1    
    10    8    9 1    
    11    8   10 1    
    12   10   11 1    
    13   10   12 1    
    14   12   13 1    
    15   13   14 1    
    16   13   22 1    
    17   14   15 2    
    18   15   16 1    
    19   16   17 ar   
    20   16   22 ar   
    21   17   18 1    
    22   17   19 ar   
    23   19   20 ar   
    24   20   21 ar   
    25   21   22 ar   
    26   23   24 1    
    27   24   25 ar   
    28   24   26 ar   
    29   24   27 1    
    30   27   28 1    
    31   28   29 1    
    32   29   30 1    
    33   29   31 1    
    34   30   35 1    
    35   31   32 1    
    36   31   33 1    
    37   33   34 1    
    38   33   35 1    
    39   35   36 1    
    40   36   37 ar   
    41   36   44 ar   
    42   37   38 ar   
    43   38   39 1    
    44   38   42 ar   
    45   39   40 2    
    46   39   41 am   
    47   42   43 ar   
    48   43   44 ar   
@<TRIPOS>SUBSTRUCTURE
     1 NAD401      1 GROUP   
@<TRIPOS>SET
ATOM$ORANGE STATIC     ATOMS   COLORGROUP SYSTEM 
42 5 5 6 6 8 8 10 10 12 12 14 14 16 16 17 17 20 \
20 22 22 28 28 29 29 31 31 33 33 35 35 37 37 38 38 39 \
39 42 42 43 43 44 44 

