#    Name: 6ok4_1_NAD
#    Modification time : Fri May 22 19:34:03 2020

@<TRIPOS>MOLECULE
6ok4_1_NAD
   44    48     1     0     1
SMALL
NO_CHARGES


@<TRIPOS>ATOM
      1 PA         -7.2910   -0.0960  -44.1250 P.3       1 NAD401      0.0000 
      2 O1A        -7.8890   -1.1600  -43.2900 O.co2     1 NAD401      0.0000 
      3 O2A        -8.0180    1.2290  -43.9490 O.co2     1 NAD401      0.0000 
      4 O5B        -7.2710   -0.4830  -45.7050 O.3       1 NAD401      0.0000 
      5 C5B        -7.1560   -1.8270  -46.2160 C.3       1 NAD401      0.0000 
      6 C4B        -8.2420   -1.9980  -47.2460 C.3       1 NAD401      0.0000 
      7 O4B        -8.0120   -3.2000  -48.0160 O.3       1 NAD401      0.0000 
      8 C3B        -9.6580   -2.1120  -46.6670 C.3       1 NAD401      0.0000 
      9 O3B       -10.5550   -1.2070  -47.3010 O.3       1 NAD401      0.0000 
     10 C2B       -10.0270   -3.5800  -46.9110 C.3       1 NAD401      0.0000 
     11 O2B       -11.4210   -3.7030  -47.1630 O.3       1 NAD401      0.0000 
     12 C1B        -9.2320   -3.8910  -48.1720 C.3       1 NAD401      0.0000 
     13 N9A        -8.9220   -5.3050  -48.3610 N.pl3     1 NAD401      0.0000 
     14 C8A        -8.6860   -6.2330  -47.3830 C.2       1 NAD401      0.0000 
     15 N7A        -8.3930   -7.4270  -47.8390 N.2       1 NAD401      0.0000 
     16 C5A        -8.4420   -7.2750  -49.2160 C.ar      1 NAD401      0.0000 
     17 C6A        -8.2120   -8.1690  -50.2780 C.ar      1 NAD401      0.0000 
     18 N6A        -7.8640   -9.4470  -50.1120 N.pl3     1 NAD401      0.0000 
     19 N1A        -8.3360   -7.6960  -51.5370 N.ar      1 NAD401      0.0000 
     20 C2A        -8.6680   -6.4140  -51.7100 C.ar      1 NAD401      0.0000 
     21 N3A        -8.9070   -5.4770  -50.7880 N.ar      1 NAD401      0.0000 
     22 C4A        -8.7740   -5.9730  -49.5540 C.ar      1 NAD401      0.0000 
     23 O3         -5.7780    0.1500  -43.7070 O.3       1 NAD401      0.0000 
     24 PN         -4.7570    1.2550  -44.2440 P.3       1 NAD401      0.0000 
     25 O1N        -4.5090    2.2150  -43.1450 O.co2     1 NAD401      0.0000 
     26 O2N        -5.2340    1.7630  -45.5490 O.co2     1 NAD401      0.0000 
     27 O5D        -3.4650    0.3560  -44.4780 O.3       1 NAD401      0.0000 
     28 C5D        -3.0410   -0.0360  -45.7970 C.3       1 NAD401      0.0000 
     29 C4D        -1.5540   -0.2750  -45.7490 C.3       1 NAD401      0.0000 
     30 O4D        -0.8620    0.9930  -45.6410 O.3       1 NAD401      0.0000 
     31 C3D        -1.0700   -1.1330  -44.5740 C.3       1 NAD401      0.0000 
     32 O3D        -0.0670   -2.0370  -45.0280 O.3       1 NAD401      0.0000 
     33 C2D        -0.5250   -0.0900  -43.5920 C.3       1 NAD401      0.0000 
     34 O2D         0.4850   -0.6130  -42.7380 O.3       1 NAD401      0.0000 
     35 C1D         0.0340    0.9440  -44.5640 C.3       1 NAD401      0.0000 
     36 N1N         0.1970    2.3850  -43.9880 N.pl3     1 NAD401      0.0000 
     37 C2N        -0.8310    2.8910  -43.2810 C.ar      1 NAD401      0.0000 
     38 C3N        -0.7360    4.1560  -42.7310 C.ar      1 NAD401      0.0000 
     39 C7N        -1.8680    4.7810  -41.9620 C.2       1 NAD401      0.0000 
     40 O7N        -1.6890    5.8680  -41.3970 O.2       1 NAD401      0.0000 
     41 N7N        -3.0110    4.1070  -41.8730 N.am      1 NAD401      0.0000 
     42 C4N         0.4300    4.8860  -42.9320 C.ar      1 NAD401      0.0000 
     43 C5N         1.4640    4.3440  -43.6690 C.ar      1 NAD401      0.0000 
     44 C6N         1.3310    3.0830  -44.1960 C.ar      1 NAD401      0.0000 
@<TRIPOS>BOND
     1    1    2 ar   
     2    1    3 ar   
     3    1    4 1    
     4    1   23 1    
     5    4    5 1    
     6    5    6 1    
     7    6    7 1    
     8    6    8 1    
     9    7   12 1    
    10    8    9 1    
    11    8   10 1    
    12   10   11 1    
    13   10   12 1    
    14   12   13 1    
    15   13   14 1    
    16   13   22 1    
    17   14   15 2    
    18   15   16 1    
    19   16   17 ar   
    20   16   22 ar   
    21   17   18 1    
    22   17   19 ar   
    23   19   20 ar   
    24   20   21 ar   
    25   21   22 ar   
    26   23   24 1    
    27   24   25 ar   
    28   24   26 ar   
    29   24   27 1    
    30   27   28 1    
    31   28   29 1    
    32   29   30 1    
    33   29   31 1    
    34   30   35 1    
    35   31   32 1    
    36   31   33 1    
    37   33   34 1    
    38   33   35 1    
    39   35   36 1    
    40   36   37 ar   
    41   36   44 ar   
    42   37   38 ar   
    43   38   39 1    
    44   38   42 ar   
    45   39   40 2    
    46   39   41 am   
    47   42   43 ar   
    48   43   44 ar   
@<TRIPOS>SUBSTRUCTURE
     1 NAD401      1 GROUP   
@<TRIPOS>SET
ATOM$ORANGE STATIC     ATOMS   COLORGROUP SYSTEM 
42 5 5 6 6 8 8 10 10 12 12 14 14 16 16 17 17 20 \
20 22 22 28 28 29 29 31 31 33 33 35 35 37 37 38 38 39 \
39 42 42 43 43 44 44 

