#    Name: 6gco_2_ADP
#    Modification time : Fri May 22 19:31:38 2020

@<TRIPOS>MOLECULE
6gco_2_ADP
   39    41     1     0     1
SMALL
NO_CHARGES


@<TRIPOS>ATOM
      1 PB        159.9740  206.7010   49.9510 P.3       1 ADP701      0.0000 
      2 O1B       160.6250  206.6180   48.5930 O.co2     1 ADP701      0.0000 
      3 O2B       160.8050  206.1250   51.0730 O.co2     1 ADP701      0.0000 
      4 O3B       158.5290  206.2640   49.9570 O.co2     1 ADP701      0.0000 
      5 PA        158.7500  208.9230   51.1510 P.3       1 ADP701      0.0000 
      6 O1A       157.4410  208.3440   50.6720 O.co2     1 ADP701      0.0000 
      7 O2A       159.1320  208.7870   52.6050 O.co2     1 ADP701      0.0000 
      8 O3A       159.9350  208.2810   50.2700 O.3       1 ADP701      0.0000 
      9 O5'       158.7890  210.4870   50.7750 O.3       1 ADP701      0.0000 
     10 C5'       160.0180  211.2090   50.7890 C.3       1 ADP701      0.0000 
     11 C4'       159.7380  212.6930   50.5810 C.3       1 ADP701      0.0000 
     12 O4'       159.4480  212.9420   49.2040 O.3       1 ADP701      0.0000 
     13 C3'       158.5610  213.1910   51.4060 C.3       1 ADP701      0.0000 
     14 O3'       158.9820  214.2640   52.2560 O.3       1 ADP701      0.0000 
     15 C2'       157.5230  213.6590   50.4040 C.3       1 ADP701      0.0000 
     16 O2'       157.0470  214.9690   50.7280 O.3       1 ADP701      0.0000 
     17 C1'       158.2190  213.6530   49.0500 C.3       1 ADP701      0.0000 
     18 N9        157.4020  212.9760   48.0090 N.pl3     1 ADP701      0.0000 
     19 C8        157.6580  211.7500   47.5130 C.2       1 ADP701      0.0000 
     20 N7        156.7420  211.4100   46.5700 N.2       1 ADP701      0.0000 
     21 C5        155.8810  212.4350   46.4480 C.ar      1 ADP701      0.0000 
     22 C6        154.6790  212.7270   45.6320 C.ar      1 ADP701      0.0000 
     23 N6        154.2080  211.8270   44.7340 N.pl3     1 ADP701      0.0000 
     24 N1        154.0720  213.9210   45.8140 N.ar      1 ADP701      0.0000 
     25 C2        154.5260  214.8280   46.7000 C.ar      1 ADP701      0.0000 
     26 N3        155.6110  214.6220   47.4700 N.ar      1 ADP701      0.0000 
     27 C4        156.3220  213.4700   47.3950 C.ar      1 ADP701      0.0000 
     28 H5'1      160.5240  211.0580   51.7440 H         1 ADP701      0.0000 
     29 H5'2      160.6710  210.8410   49.9940 H         1 ADP701      0.0000 
     30 H4'       160.6330  213.2590   50.8770 H         1 ADP701      0.0000 
     31 H3'       158.1510  212.3620   52.0000 H         1 ADP701      0.0000 
     32 HO3'      158.2300  214.5770   52.7770 H         1 ADP701      0.0000 
     33 H2'       156.6900  212.9430   50.3850 H         1 ADP701      0.0000 
     34 HO2'      156.6240  214.9530   51.5970 H         1 ADP701      0.0000 
     35 H1'       158.4220  214.6910   48.7510 H         1 ADP701      0.0000 
     36 H8        158.4800  211.1190   47.8270 H         1 ADP701      0.0000 
     37 HN61      153.3870  212.0420   44.1860 H         1 ADP701      0.0000 
     38 HN62      154.6760  210.9400   44.6140 H         1 ADP701      0.0000 
     39 H2        153.9940  215.7660   46.7970 H         1 ADP701      0.0000 
@<TRIPOS>BOND
     1    1    2 ar   
     2    1    3 ar   
     3    1    4 ar   
     4    1    8 1    
     5    5    6 ar   
     6    5    7 ar   
     7    5    8 1    
     8    5    9 1    
     9    9   10 1    
    10   10   11 1    
    11   10   28 1    
    12   10   29 1    
    13   11   12 1    
    14   11   13 1    
    15   11   30 1    
    16   12   17 1    
    17   13   14 1    
    18   13   15 1    
    19   13   31 1    
    20   14   32 1    
    21   15   16 1    
    22   15   17 1    
    23   15   33 1    
    24   16   34 1    
    25   17   18 1    
    26   17   35 1    
    27   18   19 1    
    28   18   27 1    
    29   19   20 2    
    30   19   36 1    
    31   20   21 1    
    32   21   22 ar   
    33   21   27 ar   
    34   22   23 1    
    35   22   24 ar   
    36   23   37 1    
    37   23   38 1    
    38   24   25 ar   
    39   25   26 ar   
    40   25   39 1    
    41   26   27 ar   
@<TRIPOS>SUBSTRUCTURE
     1 ADP701      1 GROUP   
@<TRIPOS>SET
ATOM$ORANGE STATIC     ATOMS   COLORGROUP SYSTEM 
20 10 10 11 11 13 13 15 15 17 17 19 19 21 21 22 22 25 \
25 27 27 

