#    Name: 6gco_1_ADP
#    Modification time : Fri May 22 19:31:32 2020

@<TRIPOS>MOLECULE
6gco_1_ADP
   39    41     1     0     1
SMALL
NO_CHARGES


@<TRIPOS>ATOM
      1 PB        197.3260  195.9710   45.0200 P.3       1 ADP701      0.0000 
      2 O1B       197.6010  196.1460   43.5460 O.co2     1 ADP701      0.0000 
      3 O2B       197.0380  194.5450   45.4240 O.co2     1 ADP701      0.0000 
      4 O3B       196.3580  196.9870   45.5710 O.co2     1 ADP701      0.0000 
      5 PA        198.7850  197.0270   47.1890 P.3       1 ADP701      0.0000 
      6 O1A       197.7830  198.1560   47.1820 O.co2     1 ADP701      0.0000 
      7 O2A       198.6940  195.9620   48.2550 O.co2     1 ADP701      0.0000 
      8 O3A       198.7300  196.3020   45.7480 O.3       1 ADP701      0.0000 
      9 O5'       200.2620  197.6690   47.2530 O.3       1 ADP701      0.0000 
     10 C5'       201.4270  196.8590   47.1140 C.3       1 ADP701      0.0000 
     11 C4'       202.6860  197.7120   47.2560 C.3       1 ADP701      0.0000 
     12 O4'       202.9240  198.4360   46.0460 O.3       1 ADP701      0.0000 
     13 C3'       202.6120  198.7220   48.3940 C.3       1 ADP701      0.0000 
     14 O3'       203.6530  198.4520   49.3410 O.3       1 ADP701      0.0000 
     15 C2'       202.7880  200.0870   47.7520 C.3       1 ADP701      0.0000 
     16 O2'       203.8150  200.8450   48.4020 O.3       1 ADP701      0.0000 
     17 C1'       203.1670  199.8210   46.3020 C.3       1 ADP701      0.0000 
     18 N9        202.3590  200.6220   45.3460 N.pl3     1 ADP701      0.0000 
     19 C8        201.4780  200.1010   44.4690 C.2       1 ADP701      0.0000 
     20 N7        200.9030  201.0800   43.7240 N.2       1 ADP701      0.0000 
     21 C5        201.4260  202.2530   44.1190 C.ar      1 ADP701      0.0000 
     22 C6        201.2550  203.6760   43.7430 C.ar      1 ADP701      0.0000 
     23 N6        200.3870  204.0390   42.7700 N.pl3     1 ADP701      0.0000 
     24 N1        201.9940  204.5950   44.4030 N.ar      1 ADP701      0.0000 
     25 C2        202.8610  204.2510   45.3740 C.ar      1 ADP701      0.0000 
     26 N3        203.0600  202.9770   45.7610 N.ar      1 ADP701      0.0000 
     27 C4        202.3910  201.9490   45.1850 C.ar      1 ADP701      0.0000 
     28 H5'1      201.4250  196.0790   47.8790 H         1 ADP701      0.0000 
     29 H5'2      201.4220  196.3730   46.1360 H         1 ADP701      0.0000 
     30 H4'       203.5350  197.0400   47.4490 H         1 ADP701      0.0000 
     31 H3'       201.6250  198.6640   48.8730 H         1 ADP701      0.0000 
     32 HO3'      203.6050  199.0930   50.0630 H         1 ADP701      0.0000 
     33 H2'       201.8320  200.6280   47.7840 H         1 ADP701      0.0000 
     34 HO2'      203.5710  200.9910   49.3270 H         1 ADP701      0.0000 
     35 H1'       204.2350  200.0440   46.1690 H         1 ADP701      0.0000 
     36 H8        201.2540  199.0460   44.3760 H         1 ADP701      0.0000 
     37 HN61      200.2820  205.0130   42.5250 H         1 ADP701      0.0000 
     38 HN62      199.8440  203.3360   42.2890 H         1 ADP701      0.0000 
     39 H2        203.4240  205.0340   45.8650 H         1 ADP701      0.0000 
@<TRIPOS>BOND
     1    1    2 ar   
     2    1    3 ar   
     3    1    4 ar   
     4    1    8 1    
     5    5    6 ar   
     6    5    7 ar   
     7    5    8 1    
     8    5    9 1    
     9    9   10 1    
    10   10   11 1    
    11   10   28 1    
    12   10   29 1    
    13   11   12 1    
    14   11   13 1    
    15   11   30 1    
    16   12   17 1    
    17   13   14 1    
    18   13   15 1    
    19   13   31 1    
    20   14   32 1    
    21   15   16 1    
    22   15   17 1    
    23   15   33 1    
    24   16   34 1    
    25   17   18 1    
    26   17   35 1    
    27   18   19 1    
    28   18   27 1    
    29   19   20 2    
    30   19   36 1    
    31   20   21 1    
    32   21   22 ar   
    33   21   27 ar   
    34   22   23 1    
    35   22   24 ar   
    36   23   37 1    
    37   23   38 1    
    38   24   25 ar   
    39   25   26 ar   
    40   25   39 1    
    41   26   27 ar   
@<TRIPOS>SUBSTRUCTURE
     1 ADP701      1 GROUP   
@<TRIPOS>SET
ATOM$ORANGE STATIC     ATOMS   COLORGROUP SYSTEM 
20 10 10 11 11 13 13 15 15 17 17 19 19 21 21 22 22 25 \
25 27 27 

