#    Name: 5wik_1_584
#    Modification time : Fri May 22 19:13:04 2020

@<TRIPOS>MOLECULE
5wik_1_584
   28    30     1     0     0
SMALL
NO_CHARGES


@<TRIPOS>ATOM
      1 C1         27.2570   67.3990   87.3530           1 584901      0.0000 
      2 C2         25.9460   66.8090   89.2230           1 584901      0.0000 
      3 C3         26.9790   66.0440   89.6820           1 584901      0.0000 
      4 O1         25.6150   64.7230   92.7450           1 584901      0.0000 
      5 O2         24.5860   72.3440   83.7460           1 584901      0.0000 
      6 C11        22.0640   70.2570   88.3650           1 584901      0.0000 
      7 C12        22.3160   71.0180   90.7550           1 584901      0.0000 
      8 C13        27.9640   64.5400   91.3480           1 584901      0.0000 
      9 C14        26.7010   69.2020   85.5260           1 584901      0.0000 
     10 C15        25.7620   69.9110   86.2620           1 584901      0.0000 
     11 C16        25.0590   70.9530   85.6690           1 584901      0.0000 
     12 C17        25.2950   71.2920   84.3440           1 584901      0.0000 
     13 C18        26.2350   70.5870   83.6090           1 584901      0.0000 
     14 C19        26.9350   69.5500   84.2020           1 584901      0.0000 
     15 N1         28.2690   66.6590   87.7940           1 584901      0.0000 
     16 N2         26.1150   67.4810   88.0350           1 584901      0.0000 
     17 C4         28.1940   65.9730   88.9270           1 584901      0.0000 
     18 N3         27.4770   68.0990   86.0840           1 584901      0.0000 
     19 N4         24.7820   66.8810   89.9450           1 584901      0.0000 
     20 C5         23.6690   67.6870   89.4480           1 584901      0.0000 
     21 C6         23.7740   69.1580   89.8660           1 584901      0.0000 
     22 C7         22.4010   69.8340   89.7950           1 584901      0.0000 
     23 C8         24.6590   66.2050   91.0900           1 584901      0.0000 
     24 C9         25.7310   65.4300   91.5460           1 584901      0.0000 
     25 N5         26.8620   65.3530   90.8560           1 584901      0.0000 
     26 C10        23.3700   66.2670   91.9110           1 584901      0.0000 
     27 F1         24.1320   71.6480   86.3890           1 584901      0.0000 
     28 F2         26.4710   70.9150   82.3060           1 584901      0.0000 
@<TRIPOS>BOND
     1    1   15 du   
     2    1   16 du   
     3    1   18 du   
     4    2    3 du   
     5    2   16 du   
     6    2   19 du   
     7    3   17 du   
     8    3   25 du   
     9    4   24 du   
    10    5   12 du   
    11    6   22 du   
    12    7   22 du   
    13    8   25 du   
    14    9   10 du   
    15    9   14 du   
    16    9   18 du   
    17   10   11 du   
    18   11   12 du   
    19   11   27 du   
    20   12   13 du   
    21   13   14 du   
    22   13   28 du   
    23   15   17 du   
    24   19   20 du   
    25   19   23 du   
    26   20   21 du   
    27   21   22 du   
    28   23   24 du   
    29   23   26 du   
    30   24   25 du   
@<TRIPOS>SUBSTRUCTURE
     1 584901      1 GROUP   
@<TRIPOS>SET

