#    Name: 6ej7_1_UDX
#    Modification time : Fri May 22 19:27:00 2020

@<TRIPOS>MOLECULE
6ej7_1_UDX
   54    56     1     0     0
SMALL
NO_CHARGES


@<TRIPOS>ATOM
      1 C1'         1.8950   27.1110   64.3690 C.3       1 UDX1002     0.0000 
      2 C2'         2.6960   25.8910   63.9490 C.3       1 UDX1002     0.0000 
      3 O2'         4.1010   26.1760   63.9640 O.3       1 UDX1002     0.0000 
      4 C3'         2.2280   25.5260   62.5500 C.3       1 UDX1002     0.0000 
      5 O3'         2.9250   24.4130   62.0130 O.3       1 UDX1002     0.0000 
      6 C4'         0.7480   25.1870   62.5770 C.3       1 UDX1002     0.0000 
      7 O4'         0.3010   24.8580   61.2560 O.3       1 UDX1002     0.0000 
      8 C5'        -0.0190   26.3800   63.1200 C.3       1 UDX1002     0.0000 
      9 O5'         0.5090   26.7590   64.3890 O.3       1 UDX1002     0.0000 
     10 PB          1.3690   29.5650   63.4940 P.3       1 UDX1002     0.0000 
     11 O1B         2.3090   30.7050   63.7840 O.co2     1 UDX1002     0.0000 
     12 O2B         0.1630   29.3500   64.3710 O.co2     1 UDX1002     0.0000 
     13 O3B         2.1540   28.1650   63.4380 O.3       1 UDX1002     0.0000 
     14 O3A         0.8940   29.6870   61.9630 O.3       1 UDX1002     0.0000 
     15 PA          1.6350   30.6080   60.8690 P.3       1 UDX1002     0.0000 
     16 O1A         3.1360   30.5360   61.0410 O.co2     1 UDX1002     0.0000 
     17 O2A         0.9610   31.9560   60.8150 O.co2     1 UDX1002     0.0000 
     18 O5D         1.2370   29.7920   59.5460 O.3       1 UDX1002     0.0000 
     19 C5D         1.7300   28.4710   59.3290 C.3       1 UDX1002     0.0000 
     20 C4D         2.0110   28.3180   57.8480 C.3       1 UDX1002     0.0000 
     21 O4D         0.8130   28.5270   57.1040 O.3       1 UDX1002     0.0000 
     22 C3D         2.9950   29.3880   57.4150 C.3       1 UDX1002     0.0000 
     23 O3D         3.9420   28.8350   56.5120 O.3       1 UDX1002     0.0000 
     24 C2D         2.1490   30.4420   56.7310 C.3       1 UDX1002     0.0000 
     25 O2D         2.8330   31.1470   55.6890 O.3       1 UDX1002     0.0000 
     26 C1D         0.9750   29.6290   56.2090 C.3       1 UDX1002     0.0000 
     27 N1         -0.2330   30.4460   56.1940 N.am      1 UDX1002     0.0000 
     28 C6         -0.9100   30.6640   57.3260 C.2       1 UDX1002     0.0000 
     29 C2         -0.6780   31.0130   54.9910 C.2       1 UDX1002     0.0000 
     30 O2         -0.0410   30.8050   53.9330 O.2       1 UDX1002     0.0000 
     31 N3         -1.7880   31.7650   54.9820 N.am      1 UDX1002     0.0000 
     32 C4         -2.4810   31.9920   56.1020 C.2       1 UDX1002     0.0000 
     33 O4         -3.5170   32.6940   56.0720 O.2       1 UDX1002     0.0000 
     34 C5         -2.0560   31.4450   57.3010 C.2       1 UDX1002     0.0000 
     35 H1'         2.2170   27.4150   65.3750 H         1 UDX1002     0.0000 
     36 H2'1        2.4700   25.0600   64.6310 H         1 UDX1002     0.0000 
     37 HO'2        4.3730   26.4100   64.8620 H         1 UDX1002     0.0000 
     38 H3'1        2.3720   26.3990   61.8970 H         1 UDX1002     0.0000 
     39 HO'3        2.6130   24.2410   61.1140 H         1 UDX1002     0.0000 
     40 H4'1        0.5940   24.3310   63.2490 H         1 UDX1002     0.0000 
     41 HO'4       -0.6400   24.6370   61.2800 H         1 UDX1002     0.0000 
     42 H5'1        0.0610   27.2170   62.4230 H         1 UDX1002     0.0000 
     43 H5'2       -1.0750   26.1220   63.2230 H         1 UDX1002     0.0000 
     44 H5A1        2.6450   28.3120   59.9030 H         1 UDX1002     0.0000 
     45 H5A2        0.9880   27.7360   59.6480 H         1 UDX1002     0.0000 
     46 H4A1        2.4300   27.3220   57.6480 H         1 UDX1002     0.0000 
     47 H3A1        3.4910   29.8190   58.2960 H         1 UDX1002     0.0000 
     48 HOA3        4.5360   29.5320   56.2010 H         1 UDX1002     0.0000 
     49 H2A1        1.7820   31.1490   57.4870 H         1 UDX1002     0.0000 
     50 HOC2        3.5690   31.6480   56.0690 H         1 UDX1002     0.0000 
     51 H1'1        1.2060   29.2680   55.1960 H         1 UDX1002     0.0000 
     52 H61        -0.5680   30.2310   58.2570 H         1 UDX1002     0.0000 
     53 HN3        -2.1170   32.1790   54.0860 H         1 UDX1002     0.0000 
     54 H51        -2.6140   31.6250   58.2110 H         1 UDX1002     0.0000 
@<TRIPOS>BOND
     1    1    2 1    
     2    1    9 1    
     3    1   13 1    
     4    1   35 1    
     5    2    3 1    
     6    2    4 1    
     7    2   36 1    
     8    3   37 1    
     9    4    5 1    
    10    4    6 1    
    11    4   38 1    
    12    5   39 1    
    13    6    7 1    
    14    6    8 1    
    15    6   40 1    
    16    7   41 1    
    17    8    9 1    
    18    8   42 1    
    19    8   43 1    
    20   10   11 ar   
    21   10   12 ar   
    22   10   13 1    
    23   10   14 1    
    24   14   15 1    
    25   15   16 ar   
    26   15   17 ar   
    27   15   18 1    
    28   18   19 1    
    29   19   20 1    
    30   19   44 1    
    31   19   45 1    
    32   20   21 1    
    33   20   22 1    
    34   20   46 1    
    35   21   26 1    
    36   22   23 1    
    37   22   24 1    
    38   22   47 1    
    39   23   48 1    
    40   24   25 1    
    41   24   26 1    
    42   24   49 1    
    43   25   50 1    
    44   26   27 1    
    45   26   51 1    
    46   27   28 1    
    47   27   29 1    
    48   28   34 2    
    49   28   52 1    
    50   29   30 2    
    51   29   31 1    
    52   31   32 1    
    53   31   53 1    
    54   32   33 2    
    55   32   34 1    
    56   34   54 1    
@<TRIPOS>SUBSTRUCTURE
     1 UDX1002     1 GROUP   
@<TRIPOS>SET

