#    Name: 6ej7_1_UDX_CAVITY_N1_4
#    Modification time : Fri May 22 19:27:02 2020

@<TRIPOS>MOLECULE
6ej7_1_UDX_CAVITY_N1_4
   96     0     7     0     0
SMALL
NO_CHARGES


@<TRIPOS>ATOM
      1 OG          0.9300   30.7500   55.5500 O.3       1 SER1        0.0000 
      2 OG          0.6000   30.4200   56.9700 O.3       1 SER1        0.0000 
      3 OG          1.9000   29.7000   57.1100 O.3       1 SER1        0.0000 
      4 OG         -1.7000   32.8000   58.5700 O.3       1 SER1        0.0000 
      5 OG          2.5600   30.9700   57.5600 O.3       1 SER1        0.0000 
      6 OG          0.8800   29.3000   64.6800 O.3       1 SER1        0.0000 
      7 OG         -1.7200   33.4000   61.8700 O.3       1 SER1        0.0000 
      8 OG         -0.4100   32.6800   62.0100 O.3       1 SER1        0.0000 
      9 OG         -0.1000   33.6200   63.8800 O.3       1 SER1        0.0000 
     10 O          -0.7400   25.8200   61.9000 O.2       2 ALA2        0.0000 
     11 N           0.2800   29.4800   55.0900 N.am      2 ALA2        0.0000 
     12 N          -0.0600   29.1500   56.5200 N.am      2 ALA2        0.0000 
     13 O           0.2500   27.4200   60.9300 O.2       2 ALA2        0.0000 
     14 O          -0.0900   27.0900   62.3500 O.2       2 ALA2        0.0000 
     15 O          -0.4200   26.7500   63.7700 O.2       2 ALA2        0.0000 
     16 O           2.5300   25.6500   62.6300 O.2       2 ALA2        0.0000 
     17 O           3.5100   24.6000   64.1900 O.2       2 ALA2        0.0000 
     18 N          -2.0200   31.8600   56.6900 N.am      2 ALA2        0.0000 
     19 O          -2.3600   31.5200   58.1200 O.2       2 ALA2        0.0000 
     20 N           2.2400   30.0300   55.6900 N.am      2 ALA2        0.0000 
     21 O           0.5700   28.3600   62.8000 O.2       2 ALA2        0.0000 
     22 O           0.2300   28.0300   64.2300 O.2       2 ALA2        0.0000 
     23 N           3.5500   29.3200   55.8200 N.am      2 ALA2        0.0000 
     24 N           3.2100   28.9800   57.2500 N.am      2 ALA2        0.0000 
     25 O          -0.0900   30.3500   63.1200 O.2       2 ALA2        0.0000 
     26 O           1.2200   29.6300   63.2500 O.2       2 ALA2        0.0000 
     27 OD1         2.2100   27.9800   61.5200 O.co2     3 ASP3        0.0000 
     28 OD1         1.8800   27.6400   62.9400 O.co2     3 ASP3        0.0000 
     29 OD1         3.1800   26.9200   63.0800 O.co2     3 ASP3        0.0000 
     30 OD1         2.8500   26.5900   64.5000 O.co2     3 ASP3        0.0000 
     31 OD1         4.1600   25.8700   64.6400 O.co2     3 ASP3        0.0000 
     32 OD1         3.5300   29.9200   59.1200 O.co2     3 ASP3        0.0000 
     33 OD1         3.2000   29.5800   60.5500 O.co2     3 ASP3        0.0000 
     34 OD1         2.8600   29.2500   61.9700 O.co2     3 ASP3        0.0000 
     35 OD1         2.5300   28.9200   63.3900 O.co2     3 ASP3        0.0000 
     36 OD1         3.5000   27.8600   64.9600 O.co2     3 ASP3        0.0000 
     37 OD1         0.9000   31.9600   62.1500 O.co2     3 ASP3        0.0000 
     38 OD1         0.5600   31.6300   63.5700 O.co2     3 ASP3        0.0000 
     39 OD1         2.5400   31.5800   60.8600 O.co2     3 ASP3        0.0000 
     40 OD1         2.2000   31.2400   62.2800 O.co2     3 ASP3        0.0000 
     41 OD1         1.8700   30.9100   63.7100 O.co2     3 ASP3        0.0000 
     42 OD1         3.5100   30.5200   62.4200 O.co2     3 ASP3        0.0000 
     43 NZ          0.9100   25.4300   60.6100 N.4       4 LYS4        0.0000 
     44 NZ          0.5700   25.1000   62.0400 N.4       4 LYS4        0.0000 
     45 NZ          0.2400   24.7600   63.4600 N.4       4 LYS4        0.0000 
     46 NZ          2.2100   24.7100   60.7500 N.4       4 LYS4        0.0000 
     47 NZ          1.8800   24.3800   62.1700 N.4       4 LYS4        0.0000 
     48 NZ          2.2000   25.3200   64.0500 N.4       4 LYS4        0.0000 
     49 CZ         -1.0700   25.4800   63.3200 C.ar      5 PHE5        0.0000 
     50 CZ         -0.7300   28.4800   59.3600 C.ar      5 PHE5        0.0000 
     51 CZ          2.2300   27.3700   58.2200 C.ar      5 PHE5        0.0000 
     52 CZ          1.8900   27.0400   59.6400 C.ar      5 PHE5        0.0000 
     53 CZ          3.8700   26.9900   56.9300 C.ar      5 PHE5        0.0000 
     54 CZ          2.8700   25.9800   61.2000 C.ar      5 PHE5        0.0000 
     55 CZ          1.8600   24.9800   65.4700 C.ar      5 PHE5        0.0000 
     56 CZ         -0.7100   31.1400   56.8300 C.ar      5 PHE5        0.0000 
     57 CZ         -1.0500   30.8000   58.2600 C.ar      5 PHE5        0.0000 
     58 CZ         -1.3800   30.4700   59.6800 C.ar      5 PHE5        0.0000 
     59 CZ          0.2600   30.0900   58.3900 C.ar      5 PHE5        0.0000 
     60 CZ         -0.0700   29.7500   59.8200 C.ar      5 PHE5        0.0000 
     61 CZ          0.9000   28.7000   61.3800 C.ar      5 PHE5        0.0000 
     62 CZ          2.8800   28.6500   58.6700 C.ar      5 PHE5        0.0000 
     63 CZ          2.5400   28.3100   60.0900 C.ar      5 PHE5        0.0000 
     64 CZ          4.5200   28.2600   57.3900 C.ar      5 PHE5        0.0000 
     65 CZ          3.5200   27.2600   61.6600 C.ar      5 PHE5        0.0000 
     66 CZ         -2.0400   32.4600   59.9900 C.ar      5 PHE5        0.0000 
     67 CZ         -0.4000   32.0800   58.7100 C.ar      5 PHE5        0.0000 
     68 CZ         -0.7300   31.7400   60.1300 C.ar      5 PHE5        0.0000 
     69 CZ         -1.0600   31.4100   61.5500 C.ar      5 PHE5        0.0000 
     70 CZ          0.9100   31.3600   58.8500 C.ar      5 PHE5        0.0000 
     71 CZ          0.5800   31.0200   60.2700 C.ar      5 PHE5        0.0000 
     72 CZ          0.2400   30.6900   61.6900 C.ar      5 PHE5        0.0000 
     73 CZ          2.2200   30.6400   58.9800 C.ar      5 PHE5        0.0000 
     74 CZ         -0.0800   33.0200   60.5800 C.ar      5 PHE5        0.0000 
     75 CA          1.2400   25.7700   59.1900 C.3       6 GLY6        0.0000 
     76 CA         -1.7000   29.5300   57.8000 C.3       6 GLY6        0.0000 
     77 CA          1.5900   28.7600   55.2300 C.3       6 GLY6        0.0000 
     78 CA          2.5600   27.7100   56.7900 C.3       6 GLY6        0.0000 
     79 CA          0.8900   26.0300   63.9100 C.3       6 GLY6        0.0000 
     80 CA          0.5500   25.7000   65.3400 C.3       6 GLY6        0.0000 
     81 CA          1.5400   27.3100   64.3600 C.3       6 GLY6        0.0000 
     82 CA          1.2100   26.9700   65.7900 C.3       6 GLY6        0.0000 
     83 CA          2.5100   26.2500   65.9300 C.3       6 GLY6        0.0000 
     84 CA          3.8700   30.2500   57.7000 C.3       6 GLY6        0.0000 
     85 CA          2.1900   28.5800   64.8200 C.3       6 GLY6        0.0000 
     86 CA          1.5400   30.5700   65.1300 C.3       6 GLY6        0.0000 
     87 CA          0.8800   32.5700   65.4400 C.3       6 GLY6        0.0000 
     88 DU          1.2500   28.4300   56.6600 H         7 CUB7        0.0000 
     89 DU          0.9200   28.0900   58.0800 H         7 CUB7        0.0000 
     90 DU          0.5800   27.7600   59.5000 H         7 CUB7        0.0000 
     91 DU          1.5600   26.7000   61.0600 H         7 CUB7        0.0000 
     92 DU          1.2200   26.3700   62.4900 H         7 CUB7        0.0000 
     93 DU          1.5700   29.3700   58.5300 H         7 CUB7        0.0000 
     94 DU          1.2400   29.0300   59.9600 H         7 CUB7        0.0000 
     95 DU          1.8900   30.3000   60.4100 H         7 CUB7        0.0000 
     96 DU          1.5500   29.9700   61.8300 H         7 CUB7        0.0000 
@<TRIPOS>BOND
@<TRIPOS>SUBSTRUCTURE
     1 SER1        1 GROUP   
     2 ALA2       10 GROUP   
     3 ASP3       27 GROUP   
     4 LYS4       43 GROUP   
     5 PHE5       49 GROUP   
     6 GLY6       75 GROUP   
     7 CUB7       88 GROUP   
@<TRIPOS>SET

