#    Name: 6ibo_1_12V
#    Modification time : Fri May 22 19:25:40 2020

@<TRIPOS>MOLECULE
6ibo_1_12V
   39    41     1     0     0
SMALL
NO_CHARGES


@<TRIPOS>ATOM
      1 N1        -12.4070   39.6250  -28.8640 N.am      1 12V1101     0.0000 
      2 C2        -12.8150   38.3640  -29.2070 C.2       1 12V1101     0.0000 
      3 O2        -13.8570   38.1560  -29.7500 O.2       1 12V1101     0.0000 
      4 N3        -12.0960   37.2290  -28.9130 N.am      1 12V1101     0.0000 
      5 C4        -10.9290   37.3810  -28.2430 C.2       1 12V1101     0.0000 
      6 O4        -10.3010   36.3660  -27.9670 O.2       1 12V1101     0.0000 
      7 C5        -10.4720   38.6500  -27.9190 C.2       1 12V1101     0.0000 
      8 C6        -11.2030   39.7630  -28.2430 C.2       1 12V1101     0.0000 
      9 PA        -10.7460   45.9920  -30.3790 P.3       1 12V1101     0.0000 
     10 PB        -10.9750   47.6490  -27.9920 P.3       1 12V1101     0.0000 
     11 C1'       -12.2160   49.2860  -29.6580 C.3       1 12V1101     0.0000 
     12 O1'       -12.1900   48.5540  -28.2410 O.3       1 12V1101     0.0000 
     13 O1A       -11.0520   47.1080  -31.1650 O.co2     1 12V1101     0.0000 
     14 C1B       -13.2000   40.7860  -29.2650 C.3       1 12V1101     0.0000 
     15 O1B       -10.7950   47.2480  -26.6000 O.co2     1 12V1101     0.0000 
     16 C2'       -11.9650   50.8690  -29.6910 C.3       1 12V1101     0.0000 
     17 N2'       -10.5410   51.1160  -29.2940 N.am      1 12V1101     0.0000 
     18 O2'       -14.6910   41.5530  -27.4710 O.3       1 12V1101     0.0000 
     19 O2A        -9.3530   45.5730  -30.2470 O.co2     1 12V1101     0.0000 
     20 C2B       -13.4460   41.8190  -28.1910 C.3       1 12V1101     0.0000 
     21 O2B        -9.8440   48.3050  -28.6880 O.co2     1 12V1101     0.0000 
     22 C3'       -13.0210   51.6110  -28.8590 C.3       1 12V1101     0.0000 
     23 O3'       -12.5940   52.9400  -28.4740 O.3       1 12V1101     0.0000 
     24 O3A       -11.3300   46.2880  -28.8470 O.3       1 12V1101     0.0000 
     25 C3B       -13.6380   43.0220  -29.1140 C.3       1 12V1101     0.0000 
     26 O3B       -14.9590   42.9860  -29.6220 O.3       1 12V1101     0.0000 
     27 C4'       -14.3430   51.6910  -29.6740 C.3       1 12V1101     0.0000 
     28 O4'       -15.3810   52.2500  -28.8630 O.3       1 12V1101     0.0000 
     29 C4B       -12.6970   42.8040  -30.2930 C.3       1 12V1101     0.0000 
     30 O4B       -12.3420   41.3500  -30.2830 O.3       1 12V1101     0.0000 
     31 C5'       -14.8450   50.2840  -30.2410 C.3       1 12V1101     0.0000 
     32 S5'       -13.6780   48.9470  -30.6150 S.3       1 12V1101     0.0000 
     33 C5B       -11.3830   43.5070  -30.1480 C.3       1 12V1101     0.0000 
     34 O5B       -11.5070   44.6970  -30.8510 O.3       1 12V1101     0.0000 
     35 C6'       -15.5600   50.5100  -31.6120 C.3       1 12V1101     0.0000 
     36 O6'       -16.8730   50.0550  -31.5020 O.3       1 12V1101     0.0000 
     37 C7'        -9.5450   51.2280  -30.2220 C.2       1 12V1101     0.0000 
     38 O7'        -9.7160   51.1690  -31.4350 O.2       1 12V1101     0.0000 
     39 C8'        -8.1470   51.4910  -29.7130 C.3       1 12V1101     0.0000 
@<TRIPOS>BOND
     1    1    2 1    
     2    1    8 1    
     3    1   14 1    
     4    2    3 2    
     5    2    4 1    
     6    4    5 1    
     7    5    6 2    
     8    5    7 1    
     9    7    8 2    
    10    9   13 ar   
    11    9   19 ar   
    12    9   24 1    
    13    9   34 1    
    14   10   12 1    
    15   10   15 ar   
    16   10   21 ar   
    17   10   24 1    
    18   11   12 1    
    19   11   16 1    
    20   11   32 1    
    21   14   20 1    
    22   14   30 1    
    23   16   17 1    
    24   16   22 1    
    25   17   37 am   
    26   18   20 1    
    27   20   25 1    
    28   22   23 1    
    29   22   27 1    
    30   25   26 1    
    31   25   29 1    
    32   27   28 1    
    33   27   31 1    
    34   29   30 1    
    35   29   33 1    
    36   31   32 1    
    37   31   35 1    
    38   33   34 1    
    39   35   36 1    
    40   37   38 2    
    41   37   39 1    
@<TRIPOS>SUBSTRUCTURE
     1 12V1101     1 GROUP   
@<TRIPOS>SET

