#    Name: 6nfn_2_BCG
#    Modification time : Fri May 22 19:28:06 2020

@<TRIPOS>MOLECULE
6nfn_2_BCG
   21    23     1     0     0
SMALL
NO_CHARGES


@<TRIPOS>ATOM
      1 C1        105.0840    8.2120  167.8770 C.3       1 BCG301      0.0000 
      2 C2        104.2510    8.5540  169.1060 C.3       1 BCG301      0.0000 
      3 C3        103.3020    9.7160  168.7990 C.3       1 BCG301      0.0000 
      4 C4        104.0520   10.8290  168.0810 C.3       1 BCG301      0.0000 
      5 C5        104.8860   10.2760  166.9310 C.3       1 BCG301      0.0000 
      6 C6        104.0750    9.3550  165.9940 C.3       1 BCG301      0.0000 
      7 C7        104.3100    7.9370  166.5640 C.3       1 BCG301      0.0000 
      8 C8        101.6720    9.5830  170.5400 C.2       1 BCG301      0.0000 
      9 C9        101.1140   10.2900  171.7200 C.ar      1 BCG301      0.0000 
     10 C10       101.6810   11.4750  172.1680 C.ar      1 BCG301      0.0000 
     11 C11       101.1550   12.1260  173.2710 C.ar      1 BCG301      0.0000 
     12 C12       100.0640   11.6060  173.9260 C.ar      1 BCG301      0.0000 
     13 C13        99.4920   10.4330  173.4880 C.ar      1 BCG301      0.0000 
     14 C14       100.0130    9.7730  172.3880 C.ar      1 BCG301      0.0000 
     15 C15       105.1540    8.8470  170.3000 C.2       1 BCG301      0.0000 
     16 C16       106.9560    9.0270  166.5630 C.3       1 BCG301      0.0000 
     17 N1        105.9020    9.3860  167.5160 N.4       1 BCG301      0.0000 
     18 O1        102.7340   10.2270  170.0250 O.3       1 BCG301      0.0000 
     19 O2        101.2160    8.5680  170.0800 O.2       1 BCG301      0.0000 
     20 O3        104.7350    8.5870  171.4030 O.co2     1 BCG301      0.0000 
     21 O4        106.2530    9.3140  170.1010 O.co2     1 BCG301      0.0000 
@<TRIPOS>BOND
     1    1    2 1    
     2    1    7 1    
     3    1   17 1    
     4    2    3 1    
     5    2   15 1    
     6    3    4 1    
     7    3   18 1    
     8    4    5 1    
     9    5    6 1    
    10    5   17 1    
    11    6    7 1    
    12    8    9 1    
    13    8   18 1    
    14    8   19 2    
    15    9   10 ar   
    16    9   14 ar   
    17   10   11 ar   
    18   11   12 ar   
    19   12   13 ar   
    20   13   14 ar   
    21   15   20 ar   
    22   15   21 ar   
    23   16   17 1    
@<TRIPOS>SUBSTRUCTURE
     1 BCG301      1 GROUP   
@<TRIPOS>SET

