#    Name: 6nfn_8_BCG
#    Modification time : Fri May 22 19:28:36 2020

@<TRIPOS>MOLECULE
6nfn_8_BCG
   21    23     1     0     0
SMALL
NO_CHARGES


@<TRIPOS>ATOM
      1 C1         90.7290   11.7660  204.5190 C.3       1 BCG301      0.0000 
      2 C2         89.8780   10.5040  204.5720 C.3       1 BCG301      0.0000 
      3 C3         88.4470   10.8590  204.9800 C.3       1 BCG301      0.0000 
      4 C4         88.4590   11.7880  206.1890 C.3       1 BCG301      0.0000 
      5 C5         89.4480   12.9360  206.0020 C.3       1 BCG301      0.0000 
      6 C6         89.2460   13.6850  204.6710 C.3       1 BCG301      0.0000 
      7 C7         90.1710   12.9410  203.6790 C.3       1 BCG301      0.0000 
      8 C8         87.2420    8.9220  204.2940 C.2       1 BCG301      0.0000 
      9 C9         86.5540    7.7010  204.7780 C.ar      1 BCG301      0.0000 
     10 C10        86.5440    7.3900  206.1290 C.ar      1 BCG301      0.0000 
     11 C11        85.9000    6.2500  206.5750 C.ar      1 BCG301      0.0000 
     12 C12        85.2600    5.4200  205.6810 C.ar      1 BCG301      0.0000 
     13 C13        85.2630    5.7230  204.3390 C.ar      1 BCG301      0.0000 
     14 C14        85.9060    6.8610  203.8840 C.ar      1 BCG301      0.0000 
     15 C15        90.4970    9.4610  205.4990 C.2       1 BCG301      0.0000 
     16 C16        91.8530   13.3690  205.9480 C.3       1 BCG301      0.0000 
     17 N1         90.7960   12.3570  205.8700 N.4       1 BCG301      0.0000 
     18 O1         87.7370    9.6480  205.3090 O.3       1 BCG301      0.0000 
     19 O2         87.3330    9.2370  203.1350 O.2       1 BCG301      0.0000 
     20 O3         90.4790    8.3030  205.1530 O.co2     1 BCG301      0.0000 
     21 O4         90.9960    9.8290  206.5360 O.co2     1 BCG301      0.0000 
@<TRIPOS>BOND
     1    1    2 1    
     2    1    7 1    
     3    1   17 1    
     4    2    3 1    
     5    2   15 1    
     6    3    4 1    
     7    3   18 1    
     8    4    5 1    
     9    5    6 1    
    10    5   17 1    
    11    6    7 1    
    12    8    9 1    
    13    8   18 1    
    14    8   19 2    
    15    9   10 ar   
    16    9   14 ar   
    17   10   11 ar   
    18   11   12 ar   
    19   12   13 ar   
    20   13   14 ar   
    21   15   20 ar   
    22   15   21 ar   
    23   16   17 1    
@<TRIPOS>SUBSTRUCTURE
     1 BCG301      1 GROUP   
@<TRIPOS>SET

