#    Name: 6nfn_6_BCG
#    Modification time : Fri May 22 19:28:30 2020

@<TRIPOS>MOLECULE
6nfn_6_BCG
   21    23     1     0     0
SMALL
NO_CHARGES


@<TRIPOS>ATOM
      1 C1        105.6930   52.0830  203.1220 C.3       1 BCG301      0.0000 
      2 C2        105.7460   51.9510  201.6060 C.3       1 BCG301      0.0000 
      3 C3        104.3900   51.4800  201.0780 C.3       1 BCG301      0.0000 
      4 C4        103.8910   50.2980  201.8980 C.3       1 BCG301      0.0000 
      5 C5        104.0120   50.5660  203.3960 C.3       1 BCG301      0.0000 
      6 C6        103.3730   51.9010  203.8210 C.3       1 BCG301      0.0000 
      7 C7        104.5290   52.9230  203.7050 C.3       1 BCG301      0.0000 
      8 C8        104.5410   52.0590  198.7720 C.2       1 BCG301      0.0000 
      9 C9        104.6640   51.5150  197.3970 C.ar      1 BCG301      0.0000 
     10 C10       104.6060   50.1470  197.1720 C.ar      1 BCG301      0.0000 
     11 C11       104.7230   49.6460  195.8880 C.ar      1 BCG301      0.0000 
     12 C12       104.9040   50.5010  194.8240 C.ar      1 BCG301      0.0000 
     13 C13       104.9650   51.8590  195.0380 C.ar      1 BCG301      0.0000 
     14 C14       104.8470   52.3690  196.3190 C.ar      1 BCG301      0.0000 
     15 C15       106.8710   51.0180  201.1720 C.2       1 BCG301      0.0000 
     16 C16       105.6910   50.7590  205.1530 C.3       1 BCG301      0.0000 
     17 N1        105.4370   50.7540  203.7090 N.4       1 BCG301      0.0000 
     18 O1        104.5270   51.0860  199.6980 O.3       1 BCG301      0.0000 
     19 O2        104.4370   53.2300  199.0330 O.2       1 BCG301      0.0000 
     20 O3        107.6360   51.4100  200.3240 O.co2     1 BCG301      0.0000 
     21 O4        106.9660   49.9330  201.6950 O.co2     1 BCG301      0.0000 
@<TRIPOS>BOND
     1    1    2 1    
     2    1    7 1    
     3    1   17 1    
     4    2    3 1    
     5    2   15 1    
     6    3    4 1    
     7    3   18 1    
     8    4    5 1    
     9    5    6 1    
    10    5   17 1    
    11    6    7 1    
    12    8    9 1    
    13    8   18 1    
    14    8   19 2    
    15    9   10 ar   
    16    9   14 ar   
    17   10   11 ar   
    18   11   12 ar   
    19   12   13 ar   
    20   13   14 ar   
    21   15   20 ar   
    22   15   21 ar   
    23   16   17 1    
@<TRIPOS>SUBSTRUCTURE
     1 BCG301      1 GROUP   
@<TRIPOS>SET

