#    Name: 6nfn_6_BCG_CAVITY_N1_12
#    Modification time : Fri May 22 19:28:31 2020

@<TRIPOS>MOLECULE
6nfn_6_BCG_CAVITY_N1_12
   90     0     6     0     0
SMALL
NO_CHARGES


@<TRIPOS>ATOM
      1 OG        104.5000   53.0500  199.6600 O.3       1 SER1        0.0000 
      2 OG        104.0300   52.5500  201.6700 O.3       1 SER1        0.0000 
      3 OG        107.1000   50.6000  207.5000 O.3       1 SER1        0.0000 
      4 O         101.9600   49.7100  194.8700 O.2       2 ALA2        0.0000 
      5 O         104.3800   53.2200  196.3100 O.2       2 ALA2        0.0000 
      6 O         102.9600   48.3300  198.1300 O.2       2 ALA2        0.0000 
      7 O         104.9700   53.5500  197.6500 O.2       2 ALA2        0.0000 
      8 O         106.9700   47.3800  199.9500 O.2       2 ALA2        0.0000 
      9 O         106.0900   48.5900  200.0400 O.2       2 ALA2        0.0000 
     10 O         106.6800   48.9200  201.3800 O.2       2 ALA2        0.0000 
     11 O         105.8000   50.1300  201.4800 O.2       2 ALA2        0.0000 
     12 O         101.9100   50.9000  203.0000 O.2       2 ALA2        0.0000 
     13 O         102.5100   51.2200  204.3400 O.2       2 ALA2        0.0000 
     14 O         106.6900   52.3100  205.5900 O.2       2 ALA2        0.0000 
     15 O         105.6300   51.4900  206.2600 O.2       2 ALA2        0.0000 
     16 O         107.2800   52.6300  206.9300 O.2       2 ALA2        0.0000 
     17 O         106.2200   51.8100  207.6000 O.2       2 ALA2        0.0000 
     18 NZ        105.8400   48.9400  193.3500 N.4       3 LYS4        0.0000 
     19 NZ        103.9000   49.3300  194.1100 N.4       3 LYS4        0.0000 
     20 NZ        105.3700   48.4400  195.3500 N.4       3 LYS4        0.0000 
     21 NZ        104.4900   49.6500  195.4500 N.4       3 LYS4        0.0000 
     22 NZ        103.4300   48.8300  196.1200 N.4       3 LYS4        0.0000 
     23 NZ        104.9000   47.9400  197.3600 N.4       3 LYS4        0.0000 
     24 NZ        104.0200   49.1500  197.4600 N.4       3 LYS4        0.0000 
     25 NZ        103.1400   50.3600  197.5500 N.4       3 LYS4        0.0000 
     26 NZ        103.7300   50.6900  198.8900 N.4       3 LYS4        0.0000 
     27 NZ        104.3200   51.0100  200.2300 N.4       3 LYS4        0.0000 
     28 NZ        103.4400   52.2200  200.3300 N.4       3 LYS4        0.0000 
     29 NZ        103.2600   50.1900  200.9000 N.4       3 LYS4        0.0000 
     30 NZ        102.9700   51.7200  202.3400 N.4       3 LYS4        0.0000 
     31 CZ        105.4900   48.2700  198.7000 C.ar      4 PHE5        0.0000 
     32 CZ        104.6100   49.4800  198.8000 C.ar      4 PHE5        0.0000 
     33 CZ        103.5500   48.6500  199.4700 C.ar      4 PHE5        0.0000 
     34 CZ        105.2000   49.8000  200.1400 C.ar      4 PHE5        0.0000 
     35 CZ        105.9800   52.1600  200.9000 C.ar      4 PHE5        0.0000 
     36 CZ        105.1000   53.3700  201.0000 C.ar      4 PHE5        0.0000 
     37 CZ        104.7400   49.3000  202.1400 C.ar      4 PHE5        0.0000 
     38 CZ        103.8600   50.5100  202.2400 C.ar      4 PHE5        0.0000 
     39 CZ        102.8000   49.6900  202.9100 C.ar      4 PHE5        0.0000 
     40 CZ        108.5100   52.1000  201.4800 C.ar      4 PHE5        0.0000 
     41 CZ        107.4500   51.2700  202.1500 C.ar      4 PHE5        0.0000 
     42 CZ        106.5700   52.4900  202.2400 C.ar      4 PHE5        0.0000 
     43 CZ        106.3900   50.4500  202.8200 C.ar      4 PHE5        0.0000 
     44 CZ        104.6300   52.8700  203.0100 C.ar      4 PHE5        0.0000 
     45 CZ        105.3300   49.6300  203.4800 C.ar      4 PHE5        0.0000 
     46 CZ        103.5700   52.0500  203.6800 C.ar      4 PHE5        0.0000 
     47 CZ        103.3900   50.0100  204.2500 C.ar      4 PHE5        0.0000 
     48 CZ        106.1000   51.9900  204.2500 C.ar      4 PHE5        0.0000 
     49 CZ        105.2200   53.2000  204.3500 C.ar      4 PHE5        0.0000 
     50 CZ        105.9200   49.9500  204.8200 C.ar      4 PHE5        0.0000 
     51 CZ        105.0400   51.1600  204.9200 C.ar      4 PHE5        0.0000 
     52 CZ        103.9800   50.3400  205.5900 C.ar      4 PHE5        0.0000 
     53 CZ        107.3900   49.0700  206.0700 C.ar      4 PHE5        0.0000 
     54 CZ        106.5100   50.2800  206.1600 C.ar      4 PHE5        0.0000 
     55 CZ        105.4500   49.4500  206.8300 C.ar      4 PHE5        0.0000 
     56 CA        105.2500   48.6200  192.0100 C.3       5 GLY6        0.0000 
     57 CA        103.3100   49.0000  192.7700 C.3       5 GLY6        0.0000 
     58 CA        106.0200   50.9800  192.7700 C.3       5 GLY6        0.0000 
     59 CA        104.9600   50.1500  193.4400 C.3       5 GLY6        0.0000 
     60 CA        103.0200   50.5400  194.2100 C.3       5 GLY6        0.0000 
     61 CA        106.6100   51.3000  194.1100 C.3       5 GLY6        0.0000 
     62 CA        105.7300   52.5100  194.2100 C.3       5 GLY6        0.0000 
     63 CA        104.6700   51.6900  194.8800 C.3       5 GLY6        0.0000 
     64 CA        103.6100   50.8600  195.5500 C.3       5 GLY6        0.0000 
     65 CA        102.5500   50.0400  196.2100 C.3       5 GLY6        0.0000 
     66 CA        107.2000   51.6300  195.4500 C.3       5 GLY6        0.0000 
     67 CA        106.3200   52.8400  195.5500 C.3       5 GLY6        0.0000 
     68 CA        105.2600   52.0100  196.2200 C.3       5 GLY6        0.0000 
     69 CA        104.2000   51.1900  196.8900 C.3       5 GLY6        0.0000 
     70 CA        105.8500   52.3400  197.5600 C.3       5 GLY6        0.0000 
     71 CA        104.7900   51.5100  198.2300 C.3       5 GLY6        0.0000 
     72 CA        103.9100   52.7200  198.3200 C.3       5 GLY6        0.0000 
     73 CA        106.4400   52.6600  198.9000 C.3       5 GLY6        0.0000 
     74 CA        105.5600   53.8700  198.9900 C.3       5 GLY6        0.0000 
     75 DU        106.4300   49.2700  194.6900 H         6 CUB7        0.0000 
     76 DU        105.5500   50.4800  194.7800 H         6 CUB7        0.0000 
     77 DU        106.1400   50.8000  196.1200 H         6 CUB7        0.0000 
     78 DU        105.9600   48.7700  196.6900 H         6 CUB7        0.0000 
     79 DU        105.0800   49.9800  196.7900 H         6 CUB7        0.0000 
     80 DU        106.7300   51.1300  197.4600 H         6 CUB7        0.0000 
     81 DU        106.5500   49.0900  198.0300 H         6 CUB7        0.0000 
     82 DU        105.6700   50.3000  198.1300 H         6 CUB7        0.0000 
     83 DU        106.2700   50.6300  199.4700 H         6 CUB7        0.0000 
     84 DU        105.3800   51.8400  199.5600 H         6 CUB7        0.0000 
     85 DU        106.8600   50.9500  200.8100 H         6 CUB7        0.0000 
     86 DU        104.9200   51.3400  201.5700 H         6 CUB7        0.0000 
     87 DU        105.5100   51.6600  202.9100 H         6 CUB7        0.0000 
     88 DU        104.4500   50.8400  203.5800 H         6 CUB7        0.0000 
     89 DU        106.9800   50.7800  204.1600 H         6 CUB7        0.0000 
     90 DU        107.5700   51.1000  205.5000 H         6 CUB7        0.0000 
@<TRIPOS>BOND
@<TRIPOS>SUBSTRUCTURE
     1 SER1        1 GROUP   
     2 ALA2        4 GROUP   
     3 LYS4       18 GROUP   
     4 PHE5       31 GROUP   
     5 GLY6       56 GROUP   
     6 CUB7       75 GROUP   
@<TRIPOS>SET

