#    Name: 6nfn_5_BCG
#    Modification time : Fri May 22 19:28:24 2020

@<TRIPOS>MOLECULE
6nfn_5_BCG
   21    23     1     0     0
SMALL
NO_CHARGES


@<TRIPOS>ATOM
      1 C1         74.0490   44.7780   86.2430 C.3       1 BCG301      0.0000 
      2 C2         74.0860   46.2800   85.9980 C.3       1 BCG301      0.0000 
      3 C3         73.2920   46.6340   84.7370 C.3       1 BCG301      0.0000 
      4 C4         73.6520   45.6890   83.6000 C.3       1 BCG301      0.0000 
      5 C5         73.6490   44.2350   84.0630 C.3       1 BCG301      0.0000 
      6 C6         72.3470   43.8400   84.7890 C.3       1 BCG301      0.0000 
      7 C7         72.6510   44.1100   86.2820 C.3       1 BCG301      0.0000 
      8 C8         72.9430   48.9790   85.0100 C.2       1 BCG301      0.0000 
      9 C9         73.2060   50.3100   84.4100 C.ar      1 BCG301      0.0000 
     10 C10        72.6970   51.4590   84.9980 C.ar      1 BCG301      0.0000 
     11 C11        72.9490   52.6980   84.4350 C.ar      1 BCG301      0.0000 
     12 C12        73.7020   52.7970   83.2870 C.ar      1 BCG301      0.0000 
     13 C13        74.2080   51.6620   82.6950 C.ar      1 BCG301      0.0000 
     14 C14        73.9610   50.4190   83.2520 C.ar      1 BCG301      0.0000 
     15 C15        75.5240   46.7840   85.9400 C.2       1 BCG301      0.0000 
     16 C16        74.9760   42.6940   85.4190 C.3       1 BCG301      0.0000 
     17 N1         74.6850   44.0950   85.1010 N.4       1 BCG301      0.0000 
     18 O1         73.5750   47.9950   84.3450 O.3       1 BCG301      0.0000 
     19 O2         72.2280   48.7940   85.9610 O.2       1 BCG301      0.0000 
     20 O3         75.7860   47.8080   86.5210 O.co2     1 BCG301      0.0000 
     21 O4         76.3500   46.1370   85.3410 O.co2     1 BCG301      0.0000 
@<TRIPOS>BOND
     1    1    2 1    
     2    1    7 1    
     3    1   17 1    
     4    2    3 1    
     5    2   15 1    
     6    3    4 1    
     7    3   18 1    
     8    4    5 1    
     9    5    6 1    
    10    5   17 1    
    11    6    7 1    
    12    8    9 1    
    13    8   18 1    
    14    8   19 2    
    15    9   10 ar   
    16    9   14 ar   
    17   10   11 ar   
    18   11   12 ar   
    19   12   13 ar   
    20   13   14 ar   
    21   15   20 ar   
    22   15   21 ar   
    23   16   17 1    
@<TRIPOS>SUBSTRUCTURE
     1 BCG301      1 GROUP   
@<TRIPOS>SET

