#    Name: 6nfn_5_BCG_CAVITY_N1_ALL
#    Modification time : Fri May 22 19:28:25 2020

@<TRIPOS>MOLECULE
6nfn_5_BCG_CAVITY_N1_ALL
   80     0     6     0     0
SMALL
NO_CHARGES


@<TRIPOS>ATOM
      1 OG         72.6800   44.5500   84.7700 O.3       1 SER1        0.0000 
      2 OG         73.4500   46.9000   85.5400 O.3       1 SER1        0.0000 
      3 OG         72.5700   48.1100   85.6300 O.3       1 SER1        0.0000 
      4 OG         72.3900   46.0800   86.2000 O.3       1 SER1        0.0000 
      5 OG         76.3900   45.1300   88.0200 O.3       1 SER1        0.0000 
      6 OG         76.2100   43.1000   88.6000 O.3       1 SER1        0.0000 
      7 O          72.9700   43.0100   83.3300 O.2       2 ALA2        0.0000 
      8 O          74.8000   46.1900   83.4300 O.2       2 ALA2        0.0000 
      9 O          75.3900   46.5200   84.7700 O.2       2 ALA2        0.0000 
     10 O          71.6900   49.3300   85.7300 O.2       2 ALA2        0.0000 
     11 O          75.0300   42.4500   85.9200 O.2       2 ALA2        0.0000 
     12 O          74.1500   43.6600   86.0100 O.2       2 ALA2        0.0000 
     13 O          74.8500   40.4100   86.4900 O.2       2 ALA2        0.0000 
     14 O          75.6200   42.7700   87.2600 O.2       2 ALA2        0.0000 
     15 NZ         73.8600   53.1800   80.4700 N.4       3 LYS4        0.0000 
     16 NZ         73.5100   49.1100   81.6200 N.4       3 LYS4        0.0000 
     17 NZ         72.6200   50.3200   81.7100 N.4       3 LYS4        0.0000 
     18 NZ         73.3300   47.0800   82.1900 N.4       3 LYS4        0.0000 
     19 NZ         73.1500   45.0400   82.7600 N.4       3 LYS4        0.0000 
     20 NZ         72.0900   44.2200   83.4300 N.4       3 LYS4        0.0000 
     21 NZ         75.3400   52.3000   81.7200 N.4       3 LYS4        0.0000 
     22 NZ         74.1000   49.4400   82.9600 N.4       3 LYS4        0.0000 
     23 NZ         73.9200   47.4000   83.5300 N.4       3 LYS4        0.0000 
     24 NZ         73.7400   45.3700   84.1000 N.4       3 LYS4        0.0000 
     25 NZ         72.8600   46.5800   84.2000 N.4       3 LYS4        0.0000 
     26 NZ         78.9100   41.6800   84.3900 N.4       3 LYS4        0.0000 
     27 NZ         77.8500   40.8500   85.0600 N.4       3 LYS4        0.0000 
     28 CZ         74.9800   48.2300   82.8600 C.ar      4 PHE5        0.0000 
     29 CZ         74.6200   44.1600   84.0100 C.ar      4 PHE5        0.0000 
     30 CZ         74.4400   42.1200   84.5800 C.ar      4 PHE5        0.0000 
     31 CZ         73.5600   43.3300   84.6700 C.ar      4 PHE5        0.0000 
     32 CZ         71.6200   43.7200   85.4400 C.ar      4 PHE5        0.0000 
     33 CZ         78.2100   44.9200   83.9100 C.ar      4 PHE5        0.0000 
     34 CZ         78.0300   42.8900   84.4900 C.ar      4 PHE5        0.0000 
     35 CZ         77.1500   44.1000   84.5800 C.ar      4 PHE5        0.0000 
     36 CZ         76.2700   45.3100   84.6800 C.ar      4 PHE5        0.0000 
     37 CZ         76.9700   42.0600   85.1500 C.ar      4 PHE5        0.0000 
     38 CZ         76.0900   43.2700   85.2500 C.ar      4 PHE5        0.0000 
     39 CZ         75.2100   44.4800   85.3400 C.ar      4 PHE5        0.0000 
     40 CZ         75.9100   41.2400   85.8200 C.ar      4 PHE5        0.0000 
     41 CZ         73.2700   44.8700   86.1100 C.ar      4 PHE5        0.0000 
     42 CZ         72.2100   44.0500   86.7800 C.ar      4 PHE5        0.0000 
     43 CZ         77.7400   44.4200   85.9200 C.ar      4 PHE5        0.0000 
     44 CZ         75.1000   48.0500   86.2100 C.ar      4 PHE5        0.0000 
     45 CZ         75.8000   44.8100   86.6800 C.ar      4 PHE5        0.0000 
     46 CZ         74.9200   46.0200   86.7800 C.ar      4 PHE5        0.0000 
     47 CZ         74.0400   47.2300   86.8800 C.ar      4 PHE5        0.0000 
     48 CZ         73.1600   48.4400   86.9700 C.ar      4 PHE5        0.0000 
     49 CZ         74.7400   43.9800   87.3500 C.ar      4 PHE5        0.0000 
     50 CZ         73.8600   45.1900   87.4500 C.ar      4 PHE5        0.0000 
     51 CZ         75.6900   48.3800   87.5500 C.ar      4 PHE5        0.0000 
     52 CA         72.8000   52.3600   81.1400 C.3       5 GLY6        0.0000 
     53 CA         74.4600   53.5100   81.8100 C.3       5 GLY6        0.0000 
     54 CA         73.4000   52.6800   82.4800 C.3       5 GLY6        0.0000 
     55 CA         73.2200   50.6500   83.0500 C.3       5 GLY6        0.0000 
     56 CA         72.3400   51.8600   83.1500 C.3       5 GLY6        0.0000 
     57 CA         73.0400   48.6100   83.6200 C.3       5 GLY6        0.0000 
     58 CA         72.1600   49.8300   83.7200 C.3       5 GLY6        0.0000 
     59 CA         73.9900   53.0100   83.8200 C.3       5 GLY6        0.0000 
     60 CA         72.7500   50.1500   85.0600 C.3       5 GLY6        0.0000 
     61 CA         74.5800   53.3300   85.1600 C.3       5 GLY6        0.0000 
     62 CA         74.4000   51.3000   85.7300 C.3       5 GLY6        0.0000 
     63 CA         74.2200   49.2600   86.3000 C.3       5 GLY6        0.0000 
     64 CA         74.8100   49.5900   87.6400 C.3       5 GLY6        0.0000 
     65 DU         74.2800   51.4700   82.3800 H         6 CUB7        0.0000 
     66 DU         74.8700   51.8000   83.7200 H         6 CUB7        0.0000 
     67 DU         75.5700   48.5500   84.2000 H         6 CUB7        0.0000 
     68 DU         74.6900   49.7600   84.3000 H         6 CUB7        0.0000 
     69 DU         73.8100   50.9700   84.3900 H         6 CUB7        0.0000 
     70 DU         72.9300   52.1800   84.4900 H         6 CUB7        0.0000 
     71 DU         74.5100   47.7300   84.8700 H         6 CUB7        0.0000 
     72 DU         73.6300   48.9400   84.9600 H         6 CUB7        0.0000 
     73 DU         74.3300   45.6900   85.4400 H         6 CUB7        0.0000 
     74 DU         76.1600   48.8800   85.5400 H         6 CUB7        0.0000 
     75 DU         75.2800   50.0900   85.6400 H         6 CUB7        0.0000 
     76 DU         76.8600   45.6300   86.0200 H         6 CUB7        0.0000 
     77 DU         75.9800   46.8400   86.1100 H         6 CUB7        0.0000 
     78 DU         77.5600   42.3900   86.4900 H         6 CUB7        0.0000 
     79 DU         76.6800   43.6000   86.5900 H         6 CUB7        0.0000 
     80 DU         76.5000   41.5600   87.1600 H         6 CUB7        0.0000 
@<TRIPOS>BOND
@<TRIPOS>SUBSTRUCTURE
     1 SER1        1 GROUP   
     2 ALA2        7 GROUP   
     3 LYS4       15 GROUP   
     4 PHE5       28 GROUP   
     5 GLY6       52 GROUP   
     6 CUB7       65 GROUP   
@<TRIPOS>SET

