#    Name: 6nfn_1_BCG_CAVITY_N1_6
#    Modification time : Fri May 22 19:28:01 2020

@<TRIPOS>MOLECULE
6nfn_1_BCG_CAVITY_N1_6
   75     0     6     0     0
SMALL
NO_CHARGES


@<TRIPOS>ATOM
      1 OG         61.2300    0.9900   83.5800 O.3       1 SER1        0.0000 
      2 OG         55.4100    2.1500   85.8800 O.3       1 SER1        0.0000 
      3 OG         61.8200    1.3100   84.9200 O.3       1 SER1        0.0000 
      4 OG         56.0000    2.4700   87.2100 O.3       1 SER1        0.0000 
      5 OG         53.0000    2.0300   88.6500 O.3       1 SER1        0.0000 
      6 OG         59.4100    1.2000   87.6900 O.3       1 SER1        0.0000 
      7 N          61.0500   -1.0400   84.1600 N.am      2 ALA2        0.0000 
      8 O          60.1700    0.1700   84.2500 O.2       2 ALA2        0.0000 
      9 O          57.5300    3.8000   84.5400 O.2       2 ALA2        0.0000 
     10 O          56.4700    2.9700   85.2100 O.2       2 ALA2        0.0000 
     11 O          60.7600    0.4900   85.5900 O.2       2 ALA2        0.0000 
     12 O          59.8800    1.7000   85.6900 O.2       2 ALA2        0.0000 
     13 O          58.8200    0.8800   86.3600 O.2       2 ALA2        0.0000 
     14 O          51.6500    2.7500   90.7500 O.2       2 ALA2        0.0000 
     15 O          58.2400    3.9500   89.2300 O.2       2 ALA2        0.0000 
     16 NZ         55.5900    4.1800   85.3000 N.4       3 LYS4        0.0000 
     17 NZ         55.1200    3.6800   87.3100 N.4       3 LYS4        0.0000 
     18 NZ         54.0600    2.8600   87.9800 N.4       3 LYS4        0.0000 
     19 NZ         55.7100    4.0100   88.6500 N.4       3 LYS4        0.0000 
     20 NZ         54.8300    5.2200   88.7500 N.4       3 LYS4        0.0000 
     21 NZ         54.6500    3.1800   89.3200 N.4       3 LYS4        0.0000 
     22 NZ         53.7700    4.3900   89.4100 N.4       3 LYS4        0.0000 
     23 NZ         52.8900    5.6000   89.5100 N.4       3 LYS4        0.0000 
     24 NZ         52.6000    7.1400   90.9400 N.4       3 LYS4        0.0000 
     25 NZ         54.0700    6.2500   92.1900 N.4       3 LYS4        0.0000 
     26 NZ         52.7200    6.9600   94.2900 N.4       3 LYS4        0.0000 
     27 CZ         55.8800    2.6500   83.8700 C.ar      4 PHE5        0.0000 
     28 CZ         60.3500    2.2000   83.6800 C.ar      4 PHE5        0.0000 
     29 CZ         59.2900    1.3800   84.3500 C.ar      4 PHE5        0.0000 
     30 CZ         58.4100    2.5900   84.4400 C.ar      4 PHE5        0.0000 
     31 CZ         57.3500    1.7600   85.1100 C.ar      4 PHE5        0.0000 
     32 CZ         56.2900    0.9400   85.7800 C.ar      4 PHE5        0.0000 
     33 CZ         60.9400    2.5300   85.0200 C.ar      4 PHE5        0.0000 
     34 CZ         59.0000    2.9100   85.7800 C.ar      4 PHE5        0.0000 
     35 CZ         58.1200    4.1200   85.8800 C.ar      4 PHE5        0.0000 
     36 CZ         60.5800   -1.5400   86.1600 C.ar      4 PHE5        0.0000 
     37 CZ         59.7000   -0.3300   86.2600 C.ar      4 PHE5        0.0000 
     38 CZ         57.0600    3.3000   86.5500 C.ar      4 PHE5        0.0000 
     39 CZ         56.1800    4.5100   86.6400 C.ar      4 PHE5        0.0000 
     40 CZ         56.8800    1.2600   87.1200 C.ar      4 PHE5        0.0000 
     41 CZ         54.9400    1.6500   87.8800 C.ar      4 PHE5        0.0000 
     42 CZ         61.5300    2.8500   86.3600 C.ar      4 PHE5        0.0000 
     43 CZ         60.4700    2.0300   87.0300 C.ar      4 PHE5        0.0000 
     44 CZ         59.5900    3.2400   87.1200 C.ar      4 PHE5        0.0000 
     45 CZ         58.5300    2.4100   87.7900 C.ar      4 PHE5        0.0000 
     46 CZ         57.6500    3.6200   87.8900 C.ar      4 PHE5        0.0000 
     47 CZ         56.7700    4.8300   87.9800 C.ar      4 PHE5        0.0000 
     48 CZ         58.3500    0.3800   88.3600 C.ar      4 PHE5        0.0000 
     49 CZ         57.4700    1.5900   88.4600 C.ar      4 PHE5        0.0000 
     50 CZ         55.5300    1.9700   89.2200 C.ar      4 PHE5        0.0000 
     51 CZ         54.4700    1.1500   89.8900 C.ar      4 PHE5        0.0000 
     52 CZ         56.3000    4.3300   89.9900 C.ar      4 PHE5        0.0000 
     53 CZ         55.4200    5.5400   90.0900 C.ar      4 PHE5        0.0000 
     54 CZ         56.1200    2.3000   90.5600 C.ar      4 PHE5        0.0000 
     55 CZ         56.0100    5.8700   91.4200 C.ar      4 PHE5        0.0000 
     56 CA         53.5900    2.3600   89.9900 C.3       5 GLY6        0.0000 
     57 CA         52.7100    3.5700   90.0800 C.3       5 GLY6        0.0000 
     58 CA         50.7700    3.9600   90.8500 C.3       5 GLY6        0.0000 
     59 CA         52.4200    5.1000   91.5200 C.3       5 GLY6        0.0000 
     60 CA         51.5400    6.3200   91.6100 C.3       5 GLY6        0.0000 
     61 CA         52.2400    3.0700   92.0900 C.3       5 GLY6        0.0000 
     62 CA         51.3600    4.2800   92.1900 C.3       5 GLY6        0.0000 
     63 CA         52.1300    6.6400   92.9500 C.3       5 GLY6        0.0000 
     64 CA         52.8300    3.3900   93.4300 C.3       5 GLY6        0.0000 
     65 CA         51.9500    4.6100   93.5200 C.3       5 GLY6        0.0000 
     66 DU         57.9400    2.0900   86.4500 H         6 CUB7        0.0000 
     67 DU         56.5900    2.8000   88.5500 H         6 CUB7        0.0000 
     68 DU         57.1800    3.1200   89.8900 H         6 CUB7        0.0000 
     69 DU         55.2400    3.5100   90.6600 H         6 CUB7        0.0000 
     70 DU         54.3600    4.7200   90.7500 H         6 CUB7        0.0000 
     71 DU         53.4800    5.9300   90.8500 H         6 CUB7        0.0000 
     72 DU         53.3000    3.8900   91.4200 H         6 CUB7        0.0000 
     73 DU         54.9500    5.0400   92.0900 H         6 CUB7        0.0000 
     74 DU         53.8900    4.2200   92.7600 H         6 CUB7        0.0000 
     75 DU         53.0100    5.4300   92.8600 H         6 CUB7        0.0000 
@<TRIPOS>BOND
@<TRIPOS>SUBSTRUCTURE
     1 SER1        1 GROUP   
     2 ALA2        7 GROUP   
     3 LYS4       16 GROUP   
     4 PHE5       27 GROUP   
     5 GLY6       56 GROUP   
     6 CUB7       66 GROUP   
@<TRIPOS>SET

