#    Name: 6nfn_4_BCG
#    Modification time : Fri May 22 19:28:18 2020

@<TRIPOS>MOLECULE
6nfn_4_BCG
   21    23     1     0     0
SMALL
NO_CHARGES


@<TRIPOS>ATOM
      1 C1         59.1220   46.8720  123.4580 C.3       1 BCG301      0.0000 
      2 C2         59.2130   46.6730  121.9490 C.3       1 BCG301      0.0000 
      3 C3         57.9230   46.0490  121.4120 C.3       1 BCG301      0.0000 
      4 C4         57.4920   44.8840  122.2940 C.3       1 BCG301      0.0000 
      5 C5         57.5500   45.2530  123.7750 C.3       1 BCG301      0.0000 
      6 C6         56.8060   46.5640  124.1030 C.3       1 BCG301      0.0000 
      7 C7         57.8980   47.6540  123.9940 C.3       1 BCG301      0.0000 
      8 C8         58.0770   46.5310  119.0830 C.2       1 BCG301      0.0000 
      9 C9         58.1550   45.9350  117.7250 C.ar      1 BCG301      0.0000 
     10 C10        58.2240   44.5590  117.5580 C.ar      1 BCG301      0.0000 
     11 C11        58.2950   44.0180  116.2860 C.ar      1 BCG301      0.0000 
     12 C12        58.2920   44.8380  115.1810 C.ar      1 BCG301      0.0000 
     13 C13        58.2230   46.2030  115.3370 C.ar      1 BCG301      0.0000 
     14 C14        58.1540   46.7550  116.6050 C.ar      1 BCG301      0.0000 
     15 C15        60.4410   45.8490  121.5810 C.2       1 BCG301      0.0000 
     16 C16        59.1760   45.6560  125.5520 C.3       1 BCG301      0.0000 
     17 N1         58.9510   45.5600  124.1070 N.4       1 BCG301      0.0000 
     18 O1         58.1300   45.6000  120.0540 O.3       1 BCG301      0.0000 
     19 O2         57.9420   47.7080  119.2950 O.2       1 BCG301      0.0000 
     20 O3         61.1570   46.2610  120.7000 O.co2     1 BCG301      0.0000 
     21 O4         60.6660   44.8320  122.1920 O.co2     1 BCG301      0.0000 
@<TRIPOS>BOND
     1   12   13 ar   
     2   13   14 ar   
     3   15   20 ar   
     4   15   21 ar   
     5   16   17 1    
     6    1    2 1    
     7    1    7 1    
     8    1   17 1    
     9    2    3 1    
    10    2   15 1    
    11    3    4 1    
    12    3   18 1    
    13    4    5 1    
    14    5    6 1    
    15    5   17 1    
    16    6    7 1    
    17    8    9 1    
    18    8   18 1    
    19    8   19 2    
    20    9   10 ar   
    21    9   14 ar   
    22   10   11 ar   
    23   11   12 ar   
@<TRIPOS>SUBSTRUCTURE
     1 BCG301      1 GROUP   
@<TRIPOS>SET

