#    Name: 6nfn_4_BCG_CAVITY_N1_ALL
#    Modification time : Fri May 22 19:28:19 2020

@<TRIPOS>MOLECULE
6nfn_4_BCG_CAVITY_N1_ALL
   96     0     6     0     0
SMALL
NO_CHARGES


@<TRIPOS>ATOM
      1 OG         57.3800   47.2700  121.1000 O.3       1 SER1        0.0000 
      2 OG         57.9700   47.5900  122.4400 O.3       1 SER1        0.0000 
      3 OG         56.9100   46.7700  123.1100 O.3       1 SER1        0.0000 
      4 OG         61.9700   46.6500  124.2600 O.3       1 SER1        0.0000 
      5 OG         61.0300   45.6500  128.2700 O.3       1 SER1        0.0000 
      6 OG         59.9700   44.8200  128.9400 O.3       1 SER1        0.0000 
      7 O          58.9000   48.5900  118.4200 O.2       2 ALA2        0.0000 
      8 O          60.0200   43.6400  120.8100 O.2       2 ALA2        0.0000 
      9 O          59.7300   45.1700  122.2500 O.2       2 ALA2        0.0000 
     10 O          55.8500   45.9400  123.7800 O.2       2 ALA2        0.0000 
     11 O          60.6200   47.3600  126.3600 O.2       2 ALA2        0.0000 
     12 O          59.5600   46.5300  127.0300 O.2       2 ALA2        0.0000 
     13 O          61.2100   47.6800  127.7000 O.2       2 ALA2        0.0000 
     14 O          60.1500   46.8600  128.3700 O.2       2 ALA2        0.0000 
     15 NZ         58.1200   42.8400  113.4500 N.4       3 LYS4        0.0000 
     16 NZ         56.1800   43.2200  114.2100 N.4       3 LYS4        0.0000 
     17 NZ         58.7100   43.1600  114.7900 N.4       3 LYS4        0.0000 
     18 NZ         56.7700   43.5500  115.5500 N.4       3 LYS4        0.0000 
     19 NZ         59.1200   41.4500  116.7000 N.4       3 LYS4        0.0000 
     20 NZ         58.2400   42.6600  116.7900 N.4       3 LYS4        0.0000 
     21 NZ         57.1800   41.8400  117.4600 N.4       3 LYS4        0.0000 
     22 NZ         56.3000   43.0500  117.5600 N.4       3 LYS4        0.0000 
     23 NZ         57.9500   44.2000  118.2300 N.4       3 LYS4        0.0000 
     24 NZ         56.8900   43.3700  118.9000 N.4       3 LYS4        0.0000 
     25 NZ         57.6600   45.7300  119.6600 N.4       3 LYS4        0.0000 
     26 NZ         58.2600   46.0600  121.0000 N.4       3 LYS4        0.0000 
     27 NZ         57.2000   45.2300  121.6700 N.4       3 LYS4        0.0000 
     28 NZ         56.1400   44.4100  122.3400 N.4       3 LYS4        0.0000 
     29 NZ         61.3200   44.1100  126.8400 N.4       3 LYS4        0.0000 
     30 CZ         59.7200   41.7800  118.0400 C.ar      4 PHE5        0.0000 
     31 CZ         58.8300   42.9900  118.1300 C.ar      4 PHE5        0.0000 
     32 CZ         57.7700   42.1600  118.8000 C.ar      4 PHE5        0.0000 
     33 CZ         59.4300   43.3100  119.4700 C.ar      4 PHE5        0.0000 
     34 CZ         58.5500   44.5200  119.5700 C.ar      4 PHE5        0.0000 
     35 CZ         57.4900   43.7000  120.2400 C.ar      4 PHE5        0.0000 
     36 CZ         60.3800   47.7100  119.6700 C.ar      4 PHE5        0.0000 
     37 CZ         59.3200   46.8800  120.3400 C.ar      4 PHE5        0.0000 
     38 CZ         59.1400   44.8500  120.9100 C.ar      4 PHE5        0.0000 
     39 CZ         58.0800   44.0200  121.5800 C.ar      4 PHE5        0.0000 
     40 CZ         60.7900   46.0000  121.5800 C.ar      4 PHE5        0.0000 
     41 CZ         59.9100   47.2100  121.6800 C.ar      4 PHE5        0.0000 
     42 CZ         58.6700   44.3500  122.9200 C.ar      4 PHE5        0.0000 
     43 CZ         57.7900   45.5600  123.0100 C.ar      4 PHE5        0.0000 
     44 CZ         56.7300   44.7300  123.6800 C.ar      4 PHE5        0.0000 
     45 CZ         61.3800   46.3200  122.9200 C.ar      4 PHE5        0.0000 
     46 CZ         60.5000   47.5300  123.0200 C.ar      4 PHE5        0.0000 
     47 CZ         59.4400   46.7100  123.6800 C.ar      4 PHE5        0.0000 
     48 CZ         58.5600   47.9200  123.7800 C.ar      4 PHE5        0.0000 
     49 CZ         59.2600   44.6700  124.2600 C.ar      4 PHE5        0.0000 
     50 CZ         57.5000   47.0900  124.4500 C.ar      4 PHE5        0.0000 
     51 CZ         57.3200   45.0600  125.0200 C.ar      4 PHE5        0.0000 
     52 CZ         56.4400   46.2700  125.1100 C.ar      4 PHE5        0.0000 
     53 CZ         60.0300   47.0300  125.0200 C.ar      4 PHE5        0.0000 
     54 CZ         59.1500   48.2400  125.1200 C.ar      4 PHE5        0.0000 
     55 CZ         60.7300   43.7900  125.5000 C.ar      4 PHE5        0.0000 
     56 CZ         59.8500   45.0000  125.6000 C.ar      4 PHE5        0.0000 
     57 CZ         58.9700   46.2100  125.6900 C.ar      4 PHE5        0.0000 
     58 CZ         57.9100   45.3800  126.3600 C.ar      4 PHE5        0.0000 
     59 CZ         59.3800   44.5000  127.6000 C.ar      4 PHE5        0.0000 
     60 CA         57.5300   42.5100  112.1100 C.3       5 GLY6        0.0000 
     61 CA         57.2400   44.0500  113.5400 C.3       5 GLY6        0.0000 
     62 CA         59.9500   46.0200  113.5500 C.3       5 GLY6        0.0000 
     63 CA         59.0700   47.2300  113.6400 C.3       5 GLY6        0.0000 
     64 CA         58.8900   45.2000  114.2100 C.3       5 GLY6        0.0000 
     65 CA         58.0100   46.4100  114.3100 C.3       5 GLY6        0.0000 
     66 CA         57.8300   44.3700  114.8800 C.3       5 GLY6        0.0000 
     67 CA         56.9500   45.5800  114.9800 C.3       5 GLY6        0.0000 
     68 CA         55.8900   44.7600  115.6500 C.3       5 GLY6        0.0000 
     69 CA         60.5400   46.3500  114.8900 C.3       5 GLY6        0.0000 
     70 CA         59.6600   47.5600  114.9800 C.3       5 GLY6        0.0000 
     71 CA         58.6000   46.7300  115.6500 C.3       5 GLY6        0.0000 
     72 CA         57.7200   47.9400  115.7400 C.3       5 GLY6        0.0000 
     73 CA         57.5400   45.9100  116.3200 C.3       5 GLY6        0.0000 
     74 CA         57.3600   43.8700  116.8900 C.3       5 GLY6        0.0000 
     75 CA         59.1900   47.0600  116.9900 C.3       5 GLY6        0.0000 
     76 CA         58.1300   46.2300  117.6600 C.3       5 GLY6        0.0000 
     77 CA         57.2500   47.4400  117.7500 C.3       5 GLY6        0.0000 
     78 CA         57.0700   45.4100  118.3200 C.3       5 GLY6        0.0000 
     79 CA         59.7900   47.3800  118.3300 C.3       5 GLY6        0.0000 
     80 CA         57.8400   47.7700  119.0900 C.3       5 GLY6        0.0000 
     81 CA         58.4400   48.0900  120.4300 C.3       5 GLY6        0.0000 
     82 DU         59.7700   43.9900  114.1200 H         6 CUB7        0.0000 
     83 DU         60.3600   44.3100  115.4600 H         6 CUB7        0.0000 
     84 DU         59.4800   45.5200  115.5500 H         6 CUB7        0.0000 
     85 DU         59.3000   43.4900  116.1300 H         6 CUB7        0.0000 
     86 DU         58.4200   44.7000  116.2200 H         6 CUB7        0.0000 
     87 DU         59.0100   45.0200  117.5600 H         6 CUB7        0.0000 
     88 DU         59.6100   45.3500  118.9000 H         6 CUB7        0.0000 
     89 DU         58.7200   46.5600  119.0000 H         6 CUB7        0.0000 
     90 DU         60.2000   45.6700  120.2400 H         6 CUB7        0.0000 
     91 DU         58.8500   46.3800  122.3400 H         6 CUB7        0.0000 
     92 DU         60.3200   45.5000  123.5900 H         6 CUB7        0.0000 
     93 DU         58.3800   45.8800  124.3500 H         6 CUB7        0.0000 
     94 DU         60.9100   45.8200  124.9300 H         6 CUB7        0.0000 
     95 DU         61.5000   46.1500  126.2700 H         6 CUB7        0.0000 
     96 DU         60.4400   45.3200  126.9300 H         6 CUB7        0.0000 
@<TRIPOS>BOND
@<TRIPOS>SUBSTRUCTURE
     1 SER1        1 GROUP   
     2 ALA2        7 GROUP   
     3 LYS4       15 GROUP   
     4 PHE5       30 GROUP   
     5 GLY6       60 GROUP   
     6 CUB7       82 GROUP   
@<TRIPOS>SET

