#    Name: 6nfn_8_BCG_CAVITY_N1_6
#    Modification time : Fri May 22 19:28:38 2020

@<TRIPOS>MOLECULE
6nfn_8_BCG_CAVITY_N1_6
   87     0     6     0     0
SMALL
NO_CHARGES


@<TRIPOS>ATOM
      1 OG         88.2400    9.2600  204.0200 O.3       1 SER1        0.0000 
      2 OG         87.3600   10.4700  204.1100 O.3       1 SER1        0.0000 
      3 OG         90.0700   12.4500  204.1200 O.3       1 SER1        0.0000 
      4 OG         89.1900   13.6600  204.2100 O.3       1 SER1        0.0000 
      5 OG         89.0100   11.6200  204.7900 O.3       1 SER1        0.0000 
      6 OG         88.1300   12.8300  204.8800 O.3       1 SER1        0.0000 
      7 OG         93.4800   11.1800  204.6000 O.3       1 SER1        0.0000 
      8 OG         93.9600   15.0700  206.8000 O.3       1 SER1        0.0000 
      9 O          87.6400    8.9400  202.6800 O.2       2 ALA2        0.0000 
     10 O          86.5800    8.1200  203.3500 O.2       2 ALA2        0.0000 
     11 O          91.1300   13.2700  203.4500 O.2       2 ALA2        0.0000 
     12 O          89.7800   13.9800  205.5500 O.2       2 ALA2        0.0000 
     13 O          89.4200    9.9100  206.7000 O.2       2 ALA2        0.0000 
     14 O          85.3600    8.6500  208.8000 O.2       2 ALA2        0.0000 
     15 O          94.2500   13.5400  205.3700 O.2       2 ALA2        0.0000 
     16 NZ         87.9500   10.8000  205.4500 N.4       3 LYS4        0.0000 
     17 NZ         86.8900    9.9700  206.1200 N.4       3 LYS4        0.0000 
     18 NZ         85.8300    9.1500  206.7900 N.4       3 LYS4        0.0000 
     19 NZ         84.7700    8.3300  207.4600 N.4       3 LYS4        0.0000 
     20 NZ         84.5900    6.2900  208.0300 N.4       3 LYS4        0.0000 
     21 NZ         83.5300    5.4700  208.7000 N.4       3 LYS4        0.0000 
     22 NZ         82.6500    6.6800  208.7900 N.4       3 LYS4        0.0000 
     23 NZ         85.1800    6.6200  209.3700 N.4       3 LYS4        0.0000 
     24 CZ         89.3000   10.0900  203.3500 C.ar      4 PHE5        0.0000 
     25 CZ         89.1200    8.0500  203.9200 C.ar      4 PHE5        0.0000 
     26 CZ         90.9500   11.2400  204.0200 C.ar      4 PHE5        0.0000 
     27 CZ         90.7700    9.2000  204.5900 C.ar      4 PHE5        0.0000 
     28 CZ         89.8900   10.4100  204.6900 C.ar      4 PHE5        0.0000 
     29 CZ         92.6000   12.3900  204.6900 C.ar      4 PHE5        0.0000 
     30 CZ         91.7200   13.6000  204.7900 C.ar      4 PHE5        0.0000 
     31 CZ         92.4200   10.3500  205.2700 C.ar      4 PHE5        0.0000 
     32 CZ         89.6000   11.9500  206.1300 C.ar      4 PHE5        0.0000 
     33 CZ         88.7200   13.1600  206.2200 C.ar      4 PHE5        0.0000 
     34 CZ         88.5400   11.1200  206.7900 C.ar      4 PHE5        0.0000 
     35 CZ         87.6600   12.3300  206.8900 C.ar      4 PHE5        0.0000 
     36 CZ         88.3600    9.0900  207.3700 C.ar      4 PHE5        0.0000 
     37 CZ         87.4800   10.3000  207.4600 C.ar      4 PHE5        0.0000 
     38 CZ         87.3000    8.2600  208.0300 C.ar      4 PHE5        0.0000 
     39 CZ         86.4200    9.4800  208.1300 C.ar      4 PHE5        0.0000 
     40 CZ         86.2400    7.4400  208.7000 C.ar      4 PHE5        0.0000 
     41 CZ         92.3100   13.9200  206.1300 C.ar      4 PHE5        0.0000 
     42 CZ         91.4300   15.1300  206.2200 C.ar      4 PHE5        0.0000 
     43 CZ         92.1300   11.8900  206.7000 C.ar      4 PHE5        0.0000 
     44 CZ         91.2500   13.1000  206.8000 C.ar      4 PHE5        0.0000 
     45 CZ         91.0700   11.0600  207.3700 C.ar      4 PHE5        0.0000 
     46 CZ         86.8300    7.7700  210.0400 C.ar      4 PHE5        0.0000 
     47 CZ         93.7800   13.0400  207.3700 C.ar      4 PHE5        0.0000 
     48 CZ         92.9000   14.2500  207.4700 C.ar      4 PHE5        0.0000 
     49 CZ         92.7200   12.2100  208.0400 C.ar      4 PHE5        0.0000 
     50 CA         87.4700    6.9000  203.2500 C.3       5 GLY6        0.0000 
     51 CA         87.2900    4.8700  203.8200 C.3       5 GLY6        0.0000 
     52 CA         86.4000    6.0800  203.9200 C.3       5 GLY6        0.0000 
     53 CA         85.5200    7.2900  204.0100 C.3       5 GLY6        0.0000 
     54 CA         85.3400    5.2600  204.5900 C.3       5 GLY6        0.0000 
     55 CA         84.4600    6.4700  204.6800 C.3       5 GLY6        0.0000 
     56 CA         90.0000    6.8400  203.8300 C.3       5 GLY6        0.0000 
     57 CA         88.0600    7.2300  204.5900 C.3       5 GLY6        0.0000 
     58 CA         87.1800    8.4400  204.6900 C.3       5 GLY6        0.0000 
     59 CA         86.3000    9.6500  204.7800 C.3       5 GLY6        0.0000 
     60 CA         86.1200    7.6200  205.3500 C.3       5 GLY6        0.0000 
     61 CA         85.2400    8.8300  205.4500 C.3       5 GLY6        0.0000 
     62 CA         86.8200    4.3700  205.8300 C.3       5 GLY6        0.0000 
     63 CA         85.0600    6.7900  206.0200 C.3       5 GLY6        0.0000 
     64 CA         84.8800    4.7600  206.5900 C.3       5 GLY6        0.0000 
     65 CA         84.0000    5.9700  206.6900 C.3       5 GLY6        0.0000 
     66 CA         83.1100    7.1800  206.7900 C.3       5 GLY6        0.0000 
     67 CA         83.8200    3.9300  207.2600 C.3       5 GLY6        0.0000 
     68 CA         82.9300    5.1400  207.3600 C.3       5 GLY6        0.0000 
     69 CA         82.0500    6.3500  207.4500 C.3       5 GLY6        0.0000 
     70 CA         81.8700    4.3200  208.0300 C.3       5 GLY6        0.0000 
     71 CA         83.7100    7.5000  208.1300 C.3       5 GLY6        0.0000 
     72 CA         84.3000    7.8300  209.4700 C.3       5 GLY6        0.0000 
     73 DU         87.0000    6.4100  205.2600 H         6 CUB7        0.0000 
     74 DU         85.9400    5.5800  205.9300 H         6 CUB7        0.0000 
     75 DU         89.7100    8.3800  205.2600 H         6 CUB7        0.0000 
     76 DU         88.8300    9.5900  205.3600 H         6 CUB7        0.0000 
     77 DU         88.6500    7.5500  205.9300 H         6 CUB7        0.0000 
     78 DU         87.7700    8.7600  206.0300 H         6 CUB7        0.0000 
     79 DU         86.7100    7.9400  206.6900 H         6 CUB7        0.0000 
     80 DU         85.6500    7.1200  207.3600 H         6 CUB7        0.0000 
     81 DU         85.4700    5.0800  207.9300 H         6 CUB7        0.0000 
     82 DU         91.5400   11.5600  205.3600 H         6 CUB7        0.0000 
     83 DU         90.6600   12.7700  205.4600 H         6 CUB7        0.0000 
     84 DU         91.3600    9.5300  205.9300 H         6 CUB7        0.0000 
     85 DU         90.4800   10.7400  206.0300 H         6 CUB7        0.0000 
     86 DU         90.3000    8.7000  206.6000 H         6 CUB7        0.0000 
     87 DU         93.1900   12.7100  206.0300 H         6 CUB7        0.0000 
@<TRIPOS>BOND
@<TRIPOS>SUBSTRUCTURE
     1 SER1        1 GROUP   
     2 ALA2        9 GROUP   
     3 LYS4       16 GROUP   
     4 PHE5       24 GROUP   
     5 GLY6       50 GROUP   
     6 CUB7       73 GROUP   
@<TRIPOS>SET

