#    Name: 6nfn_3_BCG
#    Modification time : Fri May 22 19:28:12 2020

@<TRIPOS>MOLECULE
6nfn_3_BCG
   21    23     1     0     0
SMALL
NO_CHARGES


@<TRIPOS>ATOM
      1 C1         43.4240    5.7650  123.5260 C.3       1 BCG301      0.0000 
      2 C2         42.5520    4.5220  123.6370 C.3       1 BCG301      0.0000 
      3 C3         41.1420    4.9250  124.0760 C.3       1 BCG301      0.0000 
      4 C4         41.2170    5.8640  125.2730 C.3       1 BCG301      0.0000 
      5 C5         42.2120    6.9920  125.0230 C.3       1 BCG301      0.0000 
      6 C6         41.9700    7.7050  123.6780 C.3       1 BCG301      0.0000 
      7 C7         42.8640    6.9350  122.6790 C.3       1 BCG301      0.0000 
      8 C8         39.8950    2.9930  123.4330 C.2       1 BCG301      0.0000 
      9 C9         39.1110    1.8470  123.9520 C.ar      1 BCG301      0.0000 
     10 C10        38.9600    1.6640  125.3190 C.ar      1 BCG301      0.0000 
     11 C11        38.2290    0.5900  125.7990 C.ar      1 BCG301      0.0000 
     12 C12        37.6480   -0.3000  124.9240 C.ar      1 BCG301      0.0000 
     13 C13        37.7950   -0.1240  123.5660 C.ar      1 BCG301      0.0000 
     14 C14        38.5220    0.9470  123.0760 C.ar      1 BCG301      0.0000 
     15 C15        43.1870    3.4940  124.5710 C.2       1 BCG301      0.0000 
     16 C16        44.6210    7.3720  124.8930 C.3       1 BCG301      0.0000 
     17 N1         43.5420    6.3800  124.8620 N.4       1 BCG301      0.0000 
     18 O1         40.3820    3.7500  124.4310 O.3       1 BCG301      0.0000 
     19 O2         40.0670    3.2260  122.2640 O.2       1 BCG301      0.0000 
     20 O3         43.2110    2.3330  124.2280 O.co2     1 BCG301      0.0000 
     21 O4         43.6650    3.8820  125.6120 O.co2     1 BCG301      0.0000 
@<TRIPOS>BOND
     1    1    2 1    
     2    1    7 1    
     3    1   17 1    
     4    2    3 1    
     5    2   15 1    
     6    3    4 1    
     7    3   18 1    
     8    4    5 1    
     9    5    6 1    
    10    5   17 1    
    11    6    7 1    
    12    8    9 1    
    13    8   18 1    
    14    8   19 2    
    15    9   10 ar   
    16    9   14 ar   
    17   10   11 ar   
    18   11   12 ar   
    19   12   13 ar   
    20   13   14 ar   
    21   15   20 ar   
    22   15   21 ar   
    23   16   17 1    
@<TRIPOS>SUBSTRUCTURE
     1 BCG301      1 GROUP   
@<TRIPOS>SET

