#    Name: 6nfn_3_BCG_CAVITY_N1_4
#    Modification time : Fri May 22 19:28:13 2020

@<TRIPOS>MOLECULE
6nfn_3_BCG_CAVITY_N1_4
   75     0     6     0     0
SMALL
NO_CHARGES


@<TRIPOS>ATOM
      1 OG         41.7600    6.0200  122.8800 O.3       1 SER1        0.0000 
      2 OG         40.7000    5.2000  123.5500 O.3       1 SER1        0.0000 
      3 OG         46.8200    5.9000  124.0300 O.3       1 SER1        0.0000 
      4 OG         45.7600    5.0700  124.7000 O.3       1 SER1        0.0000 
      5 O          41.4700    7.5600  124.3100 O.2       2 ALA2        0.0000 
      6 O          47.0000    7.9300  123.4600 O.2       2 ALA2        0.0000 
      7 O          45.9400    7.1100  124.1200 O.2       2 ALA2        0.0000 
      8 O          42.7600    4.6400  126.1300 O.2       2 ALA2        0.0000 
      9 NZ         39.6400    4.3700  124.2100 N.4       3 LYS4        0.0000 
     10 NZ         36.2800   -0.1400  126.7900 N.4       3 LYS4        0.0000 
     11 NZ         41.2900    5.5200  124.8900 N.4       3 LYS4        0.0000 
     12 NZ         40.4100    6.7300  124.9800 N.4       3 LYS4        0.0000 
     13 NZ         40.2300    4.7000  125.5500 N.4       3 LYS4        0.0000 
     14 NZ         38.1100    3.0500  126.8900 N.4       3 LYS4        0.0000 
     15 NZ         38.8100   -0.2000  127.3700 N.4       3 LYS4        0.0000 
     16 NZ         37.9300    1.0100  127.4600 N.4       3 LYS4        0.0000 
     17 NZ         37.0500    2.2200  127.5600 N.4       3 LYS4        0.0000 
     18 NZ         47.1200    7.7600  126.8000 N.4       3 LYS4        0.0000 
     19 CZ         42.8200    6.8500  122.2100 C.ar      4 PHE5        0.0000 
     20 CZ         42.6400    4.8100  122.7800 C.ar      4 PHE5        0.0000 
     21 CZ         42.4600    2.7800  123.3500 C.ar      4 PHE5        0.0000 
     22 CZ         41.5800    3.9900  123.4500 C.ar      4 PHE5        0.0000 
     23 CZ         45.3500    6.7800  122.7900 C.ar      4 PHE5        0.0000 
     24 CZ         44.2900    5.9600  123.4500 C.ar      4 PHE5        0.0000 
     25 CZ         43.4100    7.1700  123.5500 C.ar      4 PHE5        0.0000 
     26 CZ         42.5300    8.3800  123.6400 C.ar      4 PHE5        0.0000 
     27 CZ         44.1100    3.9200  124.0300 C.ar      4 PHE5        0.0000 
     28 CZ         41.1100    3.4900  125.4600 C.ar      4 PHE5        0.0000 
     29 CZ         40.0500    2.6600  126.1300 C.ar      4 PHE5        0.0000 
     30 CZ         47.8800    6.7200  123.3600 C.ar      4 PHE5        0.0000 
     31 CZ         45.0600    8.3200  124.2200 C.ar      4 PHE5        0.0000 
     32 CZ         44.0000    7.4900  124.8900 C.ar      4 PHE5        0.0000 
     33 CZ         43.1200    8.7100  124.9800 C.ar      4 PHE5        0.0000 
     34 CZ         43.8200    5.4600  125.4600 C.ar      4 PHE5        0.0000 
     35 CZ         42.9400    6.6700  125.5600 C.ar      4 PHE5        0.0000 
     36 CZ         42.0600    7.8800  125.6500 C.ar      4 PHE5        0.0000 
     37 CZ         41.8800    5.8500  126.2200 C.ar      4 PHE5        0.0000 
     38 CZ         39.5800    2.1600  128.1300 C.ar      4 PHE5        0.0000 
     39 CZ         45.6500    8.6400  125.5600 C.ar      4 PHE5        0.0000 
     40 CZ         45.4700    6.6100  126.1300 C.ar      4 PHE5        0.0000 
     41 CA         40.9900    3.6600  122.1100 C.3       5 GLY6        0.0000 
     42 CA         40.8100    1.6300  122.6800 C.3       5 GLY6        0.0000 
     43 CA         39.9200    2.8400  122.7800 C.3       5 GLY6        0.0000 
     44 CA         40.6300   -0.4100  123.2500 C.3       5 GLY6        0.0000 
     45 CA         39.7500    0.8000  123.3500 C.3       5 GLY6        0.0000 
     46 CA         38.8600    2.0100  123.4500 C.3       5 GLY6        0.0000 
     47 CA         39.5700   -1.2300  123.9200 C.3       5 GLY6        0.0000 
     48 CA         37.8000    1.1900  124.1100 C.3       5 GLY6        0.0000 
     49 CA         38.5100   -2.0600  124.5900 C.3       5 GLY6        0.0000 
     50 CA         37.6200   -0.8500  124.6900 C.3       5 GLY6        0.0000 
     51 CA         36.7400    0.3600  124.7800 C.3       5 GLY6        0.0000 
     52 CA         39.4600    2.3400  124.7900 C.3       5 GLY6        0.0000 
     53 CA         38.5800    3.5500  124.8800 C.3       5 GLY6        0.0000 
     54 CA         40.1600   -0.9100  125.2600 C.3       5 GLY6        0.0000 
     55 CA         38.4000    1.5100  125.4500 C.3       5 GLY6        0.0000 
     56 CA         37.5200    2.7200  125.5500 C.3       5 GLY6        0.0000 
     57 CA         39.1700    3.8700  126.2200 C.3       5 GLY6        0.0000 
     58 DU         38.6900   -0.0200  124.0200 H         6 CUB7        0.0000 
     59 DU         41.4000    1.9500  124.0200 H         6 CUB7        0.0000 
     60 DU         40.5200    3.1600  124.1200 H         6 CUB7        0.0000 
     61 DU         40.3400    1.1300  124.6900 H         6 CUB7        0.0000 
     62 DU         39.2800    0.3000  125.3600 H         6 CUB7        0.0000 
     63 DU         38.2200   -0.5200  126.0300 H         6 CUB7        0.0000 
     64 DU         37.3400    0.6900  126.1200 H         6 CUB7        0.0000 
     65 DU         43.2300    5.1400  124.1200 H         6 CUB7        0.0000 
     66 DU         42.3500    6.3500  124.2200 H         6 CUB7        0.0000 
     67 DU         43.0500    3.1000  124.6900 H         6 CUB7        0.0000 
     68 DU         42.1700    4.3100  124.7900 H         6 CUB7        0.0000 
     69 DU         41.9900    2.2800  125.3600 H         6 CUB7        0.0000 
     70 DU         40.9300    1.4500  126.0300 H         6 CUB7        0.0000 
     71 DU         39.8700    0.6300  126.7000 H         6 CUB7        0.0000 
     72 DU         38.9900    1.8400  126.7900 H         6 CUB7        0.0000 
     73 DU         44.8800    6.2800  124.7900 H         6 CUB7        0.0000 
     74 DU         44.7000    4.2500  125.3700 H         6 CUB7        0.0000 
     75 DU         46.5300    7.4300  125.4600 H         6 CUB7        0.0000 
@<TRIPOS>BOND
@<TRIPOS>SUBSTRUCTURE
     1 SER1        1 GROUP   
     2 ALA2        5 GROUP   
     3 LYS4        9 GROUP   
     4 PHE5       19 GROUP   
     5 GLY6       41 GROUP   
     6 CUB7       58 GROUP   
@<TRIPOS>SET

