#    Name: 6nfn_2_BCG_CAVITY_N1_4
#    Modification time : Fri May 22 19:28:07 2020

@<TRIPOS>MOLECULE
6nfn_2_BCG_CAVITY_N1_4
   81     0     6     0     0
SMALL
NO_CHARGES


@<TRIPOS>ATOM
      1 OG        103.7200    8.5800  167.1200 O.3       1 SER1        0.0000 
      2 OG        102.3700    9.2900  169.2200 O.3       1 SER1        0.0000 
      3 OG        101.3100    8.4600  169.8900 O.3       1 SER1        0.0000 
      4 OG        107.7200    7.6300  168.9400 O.3       1 SER1        0.0000 
      5 N         109.5400    7.4200  164.8200 N.am      2 ALA2        0.0000 
      6 O         108.4800    6.5900  165.4900 O.2       2 ALA2        0.0000 
      7 O         107.6000    7.8000  165.5900 O.2       2 ALA2        0.0000 
      8 O         106.5400    6.9800  166.2600 O.2       2 ALA2        0.0000 
      9 O         105.9600   10.0500  169.1300 O.2       2 ALA2        0.0000 
     10 O         105.0800   11.2600  169.2200 O.2       2 ALA2        0.0000 
     11 O          99.9600    9.1700  171.9900 O.2       2 ALA2        0.0000 
     12 O         106.5500   10.3700  170.4700 O.2       2 ALA2        0.0000 
     13 NZ        103.9000   10.6100  166.5400 N.4       3 LYS4        0.0000 
     14 NZ        109.2500    8.9500  166.2600 N.4       3 LYS4        0.0000 
     15 NZ        103.4300   10.1100  168.5500 N.4       3 LYS4        0.0000 
     16 NZ        101.4900   10.5000  169.3100 N.4       3 LYS4        0.0000 
     17 NZ        102.2600   12.8600  170.0800 N.4       3 LYS4        0.0000 
     18 NZ        102.0800   10.8200  170.6500 N.4       3 LYS4        0.0000 
     19 NZ        101.2000   12.0300  170.7500 N.4       3 LYS4        0.0000 
     20 NZ        101.9700   14.3900  171.5200 N.4       3 LYS4        0.0000 
     21 NZ        100.9100   13.5700  172.1800 N.4       3 LYS4        0.0000 
     22 NZ        103.4400   13.5100  172.7600 N.4       3 LYS4        0.0000 
     23 NZ        102.3800   12.6800  173.4300 N.4       3 LYS4        0.0000 
     24 NZ        101.5000   13.8900  173.5200 N.4       3 LYS4        0.0000 
     25 NZ        100.4400   13.0700  174.1900 N.4       3 LYS4        0.0000 
     26 NZ        104.0300   13.8300  174.1000 N.4       3 LYS4        0.0000 
     27 NZ        101.0300   13.3900  175.5300 N.4       3 LYS4        0.0000 
     28 CZ        104.1900    9.0800  165.1100 C.ar      4 PHE5        0.0000 
     29 CZ        108.6600    8.6300  164.9200 C.ar      4 PHE5        0.0000 
     30 CZ        106.7200    9.0100  165.6800 C.ar      4 PHE5        0.0000 
     31 CZ        105.8400   10.2200  165.7800 C.ar      4 PHE5        0.0000 
     32 CZ        105.6600    8.1900  166.3500 C.ar      4 PHE5        0.0000 
     33 CZ        104.6000    7.3600  167.0200 C.ar      4 PHE5        0.0000 
     34 CZ        107.3100    9.3400  167.0200 C.ar      4 PHE5        0.0000 
     35 CZ        106.4300   10.5500  167.1200 C.ar      4 PHE5        0.0000 
     36 CZ        108.0100    6.0900  167.5000 C.ar      4 PHE5        0.0000 
     37 CZ        107.1300    7.3000  167.6000 C.ar      4 PHE5        0.0000 
     38 CZ        105.3700    9.7200  167.7900 C.ar      4 PHE5        0.0000 
     39 CZ        104.4900   10.9300  167.8800 C.ar      4 PHE5        0.0000 
     40 CZ        105.1900    7.6900  168.3600 C.ar      4 PHE5        0.0000 
     41 CZ        103.2500    8.0800  169.1200 C.ar      4 PHE5        0.0000 
     42 CZ        107.9000    9.6600  168.3600 C.ar      4 PHE5        0.0000 
     43 CZ        105.7800    8.0100  169.7000 C.ar      4 PHE5        0.0000 
     44 CZ        104.0200   10.4400  169.8900 C.ar      4 PHE5        0.0000 
     45 CZ        103.1400   11.6500  169.9900 C.ar      4 PHE5        0.0000 
     46 CZ        103.8400    8.4000  170.4600 C.ar      4 PHE5        0.0000 
     47 CZ        102.7800    7.5800  171.1300 C.ar      4 PHE5        0.0000 
     48 CZ        104.6100   10.7600  171.2300 C.ar      4 PHE5        0.0000 
     49 CZ        103.7300   11.9700  171.3300 C.ar      4 PHE5        0.0000 
     50 CZ        102.8500   13.1800  171.4200 C.ar      4 PHE5        0.0000 
     51 CZ        104.3200   12.2900  172.6700 C.ar      4 PHE5        0.0000 
     52 CA        100.4300    9.6700  169.9800 C.3       5 GLY6        0.0000 
     53 CA        101.9000    8.7900  171.2300 C.3       5 GLY6        0.0000 
     54 CA        101.0200   10.0000  171.3200 C.3       5 GLY6        0.0000 
     55 CA        100.1400   11.2100  171.4200 C.3       5 GLY6        0.0000 
     56 CA         99.0800   10.3800  172.0900 C.3       5 GLY6        0.0000 
     57 CA        102.4900    9.1100  172.5700 C.3       5 GLY6        0.0000 
     58 CA         99.8500   12.7400  172.8500 C.3       5 GLY6        0.0000 
     59 CA        100.5500    9.5000  173.3300 C.3       5 GLY6        0.0000 
     60 CA         99.6700   10.7100  173.4300 C.3       5 GLY6        0.0000 
     61 CA         99.4900    8.6700  174.0000 C.3       5 GLY6        0.0000 
     62 CA         98.6100    9.8800  174.0900 C.3       5 GLY6        0.0000 
     63 CA        101.1400    9.8200  174.6700 C.3       5 GLY6        0.0000 
     64 CA        100.2600   11.0300  174.7600 C.3       5 GLY6        0.0000 
     65 CA         99.3800   12.2400  174.8600 C.3       5 GLY6        0.0000 
     66 CA         99.2000   10.2100  175.4300 C.3       5 GLY6        0.0000 
     67 DU        104.7800    9.4000  166.4500 H         6 CUB7        0.0000 
     68 DU        108.1900    8.1300  166.9300 H         6 CUB7        0.0000 
     69 DU        106.2500    8.5100  167.6900 H         6 CUB7        0.0000 
     70 DU        104.3100    8.9000  168.4500 H         6 CUB7        0.0000 
     71 DU        106.8400    8.8400  169.0300 H         6 CUB7        0.0000 
     72 DU        104.9000    9.2200  169.7900 H         6 CUB7        0.0000 
     73 DU        102.9600    9.6100  170.5600 H         6 CUB7        0.0000 
     74 DU        103.5500    9.9400  171.9000 H         6 CUB7        0.0000 
     75 DU        102.6700   11.1500  171.9900 H         6 CUB7        0.0000 
     76 DU        101.7900   12.3600  172.0900 H         6 CUB7        0.0000 
     77 DU        101.6100   10.3200  172.6600 H         6 CUB7        0.0000 
     78 DU        100.7300   11.5300  172.7600 H         6 CUB7        0.0000 
     79 DU        103.2600   11.4700  173.3300 H         6 CUB7        0.0000 
     80 DU        102.2000   10.6500  174.0000 H         6 CUB7        0.0000 
     81 DU        101.3200   11.8600  174.1000 H         6 CUB7        0.0000 
@<TRIPOS>BOND
@<TRIPOS>SUBSTRUCTURE
     1 SER1        1 GROUP   
     2 ALA2        5 GROUP   
     3 LYS4       13 GROUP   
     4 PHE5       28 GROUP   
     5 GLY6       52 GROUP   
     6 CUB7       67 GROUP   
@<TRIPOS>SET

