#    Name: 6nfn_1_BCG
#    Modification time : Fri May 22 19:28:00 2020

@<TRIPOS>MOLECULE
6nfn_1_BCG
   21    23     1     0     0
SMALL
NO_CHARGES


@<TRIPOS>ATOM
      1 C1         57.0060    1.5640   87.1770 C.3       1 BCG301      0.0000 
      2 C2         56.1160    1.9960   88.3350 C.3       1 BCG301      0.0000 
      3 C3         55.2300    3.1720   87.9160 C.3       1 BCG301      0.0000 
      4 C4         56.0500    4.2190   87.1760 C.3       1 BCG301      0.0000 
      5 C5         56.9380    3.5800   86.1130 C.3       1 BCG301      0.0000 
      6 C6         56.1590    2.6380   85.1730 C.3       1 BCG301      0.0000 
      7 C7         56.2930    1.2490   85.8390 C.3       1 BCG301      0.0000 
      8 C8         53.5300    3.2160   89.5870 C.2       1 BCG301      0.0000 
      9 C9         53.0070    3.9800   90.7470 C.ar      1 BCG301      0.0000 
     10 C10        53.6830    5.0990   91.2140 C.ar      1 BCG301      0.0000 
     11 C11        53.1910    5.8060   92.2970 C.ar      1 BCG301      0.0000 
     12 C12        52.0280    5.4060   92.9160 C.ar      1 BCG301      0.0000 
     13 C13        51.3530    4.2970   92.4590 C.ar      1 BCG301      0.0000 
     14 C14        51.8370    3.5820   91.3770 C.ar      1 BCG301      0.0000 
     15 C15        56.9540    2.3140   89.5690 C.2       1 BCG301      0.0000 
     16 C16        58.9650    2.2520   85.9160 C.3       1 BCG301      0.0000 
     17 N1         57.8850    2.6900   86.8030 N.4       1 BCG301      0.0000 
     18 O1         54.6440    3.7750   89.0850 O.3       1 BCG301      0.0000 
     19 O2         53.0140    2.2260   89.1370 O.2       1 BCG301      0.0000 
     20 O3         56.6230    1.8280   90.6230 O.co2     1 BCG301      0.0000 
     21 O4         57.9290    3.0170   89.4440 O.co2     1 BCG301      0.0000 
@<TRIPOS>BOND
     1    1    2 1    
     2    1    7 1    
     3    1   17 1    
     4    2    3 1    
     5    2   15 1    
     6    3    4 1    
     7    3   18 1    
     8    4    5 1    
     9    5    6 1    
    10    5   17 1    
    11    6    7 1    
    12    8    9 1    
    13    8   18 1    
    14    8   19 2    
    15    9   10 ar   
    16    9   14 ar   
    17   10   11 ar   
    18   11   12 ar   
    19   12   13 ar   
    20   13   14 ar   
    21   15   20 ar   
    22   15   21 ar   
    23   16   17 1    
@<TRIPOS>SUBSTRUCTURE
     1 BCG301      1 GROUP   
@<TRIPOS>SET

