#    Name: 6pus_3_APR
#    Modification time : Fri May 22 19:32:52 2020

@<TRIPOS>MOLECULE
6pus_3_APR
   36    39     1     0     0
SMALL
NO_CHARGES


@<TRIPOS>ATOM
      1 N1        128.8660  117.2110  123.7230 N.ar      1 APR1601     0.0000 
      2 C2        130.0000  116.5630  124.0170 C.ar      1 APR1601     0.0000 
      3 N3        130.9550  116.2860  123.1190 N.ar      1 APR1601     0.0000 
      4 C4        130.8170  116.6610  121.8350 C.ar      1 APR1601     0.0000 
      5 C5        129.6100  117.3720  121.4330 C.ar      1 APR1601     0.0000 
      6 C6        128.6070  117.6380  122.4760 C.ar      1 APR1601     0.0000 
      7 N6        127.4630  118.2930  122.1870 N.pl3     1 APR1601     0.0000 
      8 N7        129.7290  117.6240  120.1220 N.2       1 APR1601     0.0000 
      9 C8        130.9210  117.1280  119.7210 C.2       1 APR1601     0.0000 
     10 N9        131.5520  116.5420  120.7430 N.pl3     1 APR1601     0.0000 
     11 C1'       132.8620  115.8910  120.6650 C.3       1 APR1601     0.0000 
     12 C2'       132.9150  115.1140  119.3710 C.3       1 APR1601     0.0000 
     13 O2'       132.7900  113.7230  119.6460 O.3       1 APR1601     0.0000 
     14 C3'       134.2810  115.3880  118.8020 C.3       1 APR1601     0.0000 
     15 O3'       135.0520  114.1930  118.8880 O.3       1 APR1601     0.0000 
     16 O4'       133.8790  116.8780  120.5870 O.3       1 APR1601     0.0000 
     17 C4'       134.8970  116.4340  119.7010 C.3       1 APR1601     0.0000 
     18 C5'       135.3560  117.6210  118.8900 C.3       1 APR1601     0.0000 
     19 O5'       135.2610  118.7390  119.7560 O.3       1 APR1601     0.0000 
     20 PA        135.7100  120.1780  119.2330 P.3       1 APR1601     0.0000 
     21 O1A       136.7660  120.7350  120.1360 O.co2     1 APR1601     0.0000 
     22 O2A       135.9470  120.1130  117.7520 O.co2     1 APR1601     0.0000 
     23 O3A       134.3540  120.9510  119.5400 O.3       1 APR1601     0.0000 
     24 PB        133.3020  121.0960  118.3530 P.3       1 APR1601     0.0000 
     25 O1B       133.1250  119.7450  117.7100 O.co2     1 APR1601     0.0000 
     26 O2B       133.6970  122.3070  117.5520 O.co2     1 APR1601     0.0000 
     27 O5D       131.9970  121.3890  119.2280 O.3       1 APR1601     0.0000 
     28 C5D       131.5450  122.7070  119.4970 C.3       1 APR1601     0.0000 
     29 O4D       130.2490  123.6230  121.3530 O.3       1 APR1601     0.0000 
     30 O1D       128.4260  124.9790  121.9120 O.3       1 APR1601     0.0000 
     31 C1D       128.8820  123.6370  121.7560 C.3       1 APR1601     0.0000 
     32 O2D       127.1830  122.0200  121.2080 O.3       1 APR1601     0.0000 
     33 C2D       128.0960  122.9640  120.6470 C.3       1 APR1601     0.0000 
     34 O3D       128.8560  120.8430  119.7530 O.3       1 APR1601     0.0000 
     35 C3D       129.1240  122.2440  119.8060 C.3       1 APR1601     0.0000 
     36 C4D       130.4410  122.4940  120.5090 C.3       1 APR1601     0.0000 
@<TRIPOS>BOND
     1    1    2 ar   
     2    1    6 ar   
     3    2    3 ar   
     4    3    4 ar   
     5    4    5 ar   
     6    4   10 1    
     7    5    6 ar   
     8    5    8 1    
     9    6    7 1    
    10    8    9 2    
    11    9   10 1    
    12   10   11 1    
    13   11   12 1    
    14   11   16 1    
    15   12   13 1    
    16   12   14 1    
    17   14   15 1    
    18   14   17 1    
    19   16   17 1    
    20   17   18 1    
    21   18   19 1    
    22   19   20 1    
    23   20   21 ar   
    24   20   22 ar   
    25   20   23 1    
    26   23   24 1    
    27   24   25 ar   
    28   24   26 ar   
    29   24   27 1    
    30   27   28 1    
    31   28   36 1    
    32   29   31 1    
    33   29   36 1    
    34   30   31 1    
    35   31   33 1    
    36   32   33 1    
    37   33   35 1    
    38   34   35 1    
    39   35   36 1    
@<TRIPOS>SUBSTRUCTURE
     1 APR1601     1 GROUP   
@<TRIPOS>SET

