#    Name: 6pus_5_APR
#    Modification time : Fri May 22 19:33:06 2020

@<TRIPOS>MOLECULE
6pus_5_APR
   36    39     1     0     0
SMALL
NO_CHARGES


@<TRIPOS>ATOM
      1 N1        204.9970  128.8680  123.7370 N.ar      1 APR1601     0.0000 
      2 C2        205.6450  130.0020  124.0310 C.ar      1 APR1601     0.0000 
      3 N3        205.9220  130.9570  123.1330 N.ar      1 APR1601     0.0000 
      4 C4        205.5470  130.8180  121.8480 C.ar      1 APR1601     0.0000 
      5 C5        204.8370  129.6110  121.4460 C.ar      1 APR1601     0.0000 
      6 C6        204.5700  128.6080  122.4890 C.ar      1 APR1601     0.0000 
      7 N6        203.9160  127.4640  122.2000 N.pl3     1 APR1601     0.0000 
      8 N7        204.5850  129.7300  120.1350 N.2       1 APR1601     0.0000 
      9 C8        205.0810  130.9220  119.7340 C.2       1 APR1601     0.0000 
     10 N9        205.6670  131.5530  120.7560 N.pl3     1 APR1601     0.0000 
     11 C1'       206.3180  132.8630  120.6780 C.3       1 APR1601     0.0000 
     12 C2'       207.0950  132.9160  119.3850 C.3       1 APR1601     0.0000 
     13 O2'       208.4860  132.7910  119.6600 O.3       1 APR1601     0.0000 
     14 C3'       206.8210  134.2820  118.8150 C.3       1 APR1601     0.0000 
     15 O3'       208.0160  135.0530  118.9020 O.3       1 APR1601     0.0000 
     16 O4'       205.3300  133.8800  120.6000 O.3       1 APR1601     0.0000 
     17 C4'       205.7750  134.8980  119.7140 C.3       1 APR1601     0.0000 
     18 C5'       204.5880  135.3570  118.9030 C.3       1 APR1601     0.0000 
     19 O5'       203.4700  135.2620  119.7680 O.3       1 APR1601     0.0000 
     20 PA        202.0310  135.7110  119.2450 P.3       1 APR1601     0.0000 
     21 O1A       201.4730  136.7670  120.1470 O.co2     1 APR1601     0.0000 
     22 O2A       202.0960  135.9480  117.7640 O.co2     1 APR1601     0.0000 
     23 O3A       201.2580  134.3550  119.5520 O.3       1 APR1601     0.0000 
     24 PB        201.1130  133.3030  118.3650 P.3       1 APR1601     0.0000 
     25 O1B       202.4640  133.1260  117.7220 O.co2     1 APR1601     0.0000 
     26 O2B       199.9020  133.6970  117.5630 O.co2     1 APR1601     0.0000 
     27 O5D       200.8200  131.9980  119.2400 O.3       1 APR1601     0.0000 
     28 C5D       199.5020  131.5460  119.5080 C.3       1 APR1601     0.0000 
     29 O4D       198.5860  130.2500  121.3640 O.3       1 APR1601     0.0000 
     30 O1D       197.2300  128.4270  121.9230 O.3       1 APR1601     0.0000 
     31 C1D       198.5720  128.8830  121.7680 C.3       1 APR1601     0.0000 
     32 O2D       200.1890  127.1840  121.2200 O.3       1 APR1601     0.0000 
     33 C2D       199.2450  128.0970  120.6590 C.3       1 APR1601     0.0000 
     34 O3D       201.3660  128.8570  119.7650 O.3       1 APR1601     0.0000 
     35 C3D       199.9650  129.1250  119.8180 C.3       1 APR1601     0.0000 
     36 C4D       199.7150  130.4420  120.5210 C.3       1 APR1601     0.0000 
@<TRIPOS>BOND
     1    1    2 ar   
     2    1    6 ar   
     3    2    3 ar   
     4    3    4 ar   
     5    4    5 ar   
     6    4   10 1    
     7    5    6 ar   
     8    5    8 1    
     9    6    7 1    
    10    8    9 2    
    11    9   10 1    
    12   10   11 1    
    13   11   12 1    
    14   11   16 1    
    15   12   13 1    
    16   12   14 1    
    17   14   15 1    
    18   14   17 1    
    19   16   17 1    
    20   17   18 1    
    21   18   19 1    
    22   19   20 1    
    23   20   21 ar   
    24   20   22 ar   
    25   20   23 1    
    26   23   24 1    
    27   24   25 ar   
    28   24   26 ar   
    29   24   27 1    
    30   27   28 1    
    31   28   36 1    
    32   29   31 1    
    33   29   36 1    
    34   30   31 1    
    35   31   33 1    
    36   32   33 1    
    37   33   35 1    
    38   34   35 1    
    39   35   36 1    
@<TRIPOS>SUBSTRUCTURE
     1 APR1601     1 GROUP   
@<TRIPOS>SET

