#    Name: 6pus_6_APR
#    Modification time : Fri May 22 19:33:24 2020

@<TRIPOS>MOLECULE
6pus_6_APR
   36    39     1     0     0
SMALL
NO_CHARGES


@<TRIPOS>ATOM
      1 N1        183.5280  115.3560   99.8880 N.ar      1 APR1602     0.0000 
      2 C2        184.0950  114.9260  101.0260 C.ar      1 APR1602     0.0000 
      3 N3        185.0430  113.9820  101.0680 N.ar      1 APR1602     0.0000 
      4 C4        185.4870  113.4050   99.9350 C.ar      1 APR1602     0.0000 
      5 C5        184.9220  113.8190   98.6510 C.ar      1 APR1602     0.0000 
      6 C6        183.8820  114.8610   98.6890 C.ar      1 APR1602     0.0000 
      7 N6        183.3060  115.3040   97.5490 N.pl3     1 APR1602     0.0000 
      8 N7        185.5350  113.0940   97.7020 N.2       1 APR1602     0.0000 
      9 C8        186.4180  112.2850   98.3330 C.2       1 APR1602     0.0000 
     10 N9        186.3850  112.4710   99.6600 N.pl3     1 APR1602     0.0000 
     11 C1'       187.2180  111.7700  100.6590 C.3       1 APR1602     0.0000 
     12 C2'       186.6480  110.4040  100.9670 C.3       1 APR1602     0.0000 
     13 O2'       185.9410  110.4640  102.2040 O.3       1 APR1602     0.0000 
     14 C3'       187.8570  109.5100  101.1150 C.3       1 APR1602     0.0000 
     15 O3'       188.0390  109.2190  102.4990 O.3       1 APR1602     0.0000 
     16 O4'       188.5250  111.5510  100.1340 O.3       1 APR1602     0.0000 
     17 C4'       189.0440  110.3170  100.6240 C.3       1 APR1602     0.0000 
     18 C5'       189.7790  109.5910   99.5090 C.3       1 APR1602     0.0000 
     19 O5'       188.8980  109.5230   98.3960 O.3       1 APR1602     0.0000 
     20 PA        188.5840  108.0950   97.7380 P.3       1 APR1602     0.0000 
     21 O1A       189.2110  107.0440   98.6140 O.co2     1 APR1602     0.0000 
     22 O2A       188.9280  108.1570   96.2710 O.co2     1 APR1602     0.0000 
     23 O3A       186.9820  108.0900   97.8820 O.3       1 APR1602     0.0000 
     24 PB        186.0980  106.7460   97.8700 P.3       1 APR1602     0.0000 
     25 O1B       184.6680  107.1360   97.5870 O.co2     1 APR1602     0.0000 
     26 O2B       186.7710  105.7190   96.9950 O.co2     1 APR1602     0.0000 
     27 O5D       186.1480  106.2380   99.3950 O.3       1 APR1602     0.0000 
     28 C5D       186.8890  105.0730   99.7410 C.3       1 APR1602     0.0000 
     29 O4D       187.1740  103.4310  101.4760 O.3       1 APR1602     0.0000 
     30 O1D       189.0180  102.6730  102.6990 O.3       1 APR1602     0.0000 
     31 C1D       187.8290  103.4650  102.7410 C.3       1 APR1602     0.0000 
     32 O2D       187.9710  105.2400  104.3680 O.3       1 APR1602     0.0000 
     33 C2D       188.1730  104.9200  102.9940 C.3       1 APR1602     0.0000 
     34 O3D       186.1820  106.2450  102.9950 O.3       1 APR1602     0.0000 
     35 C3D       187.2020  105.7120  102.1510 C.3       1 APR1602     0.0000 
     36 C4D       186.6030  104.7070  101.1860 C.3       1 APR1602     0.0000 
@<TRIPOS>BOND
     1    1    2 ar   
     2    1    6 ar   
     3    2    3 ar   
     4    3    4 ar   
     5    4    5 ar   
     6    4   10 1    
     7    5    6 ar   
     8    5    8 1    
     9    6    7 1    
    10    8    9 2    
    11    9   10 1    
    12   10   11 1    
    13   11   12 1    
    14   11   16 1    
    15   12   13 1    
    16   12   14 1    
    17   14   15 1    
    18   14   17 1    
    19   16   17 1    
    20   17   18 1    
    21   18   19 1    
    22   19   20 1    
    23   20   21 ar   
    24   20   22 ar   
    25   20   23 1    
    26   23   24 1    
    27   24   25 ar   
    28   24   26 ar   
    29   24   27 1    
    30   27   28 1    
    31   28   36 1    
    32   29   31 1    
    33   29   36 1    
    34   30   31 1    
    35   31   33 1    
    36   32   33 1    
    37   33   35 1    
    38   34   35 1    
    39   35   36 1    
@<TRIPOS>SUBSTRUCTURE
     1 APR1602     1 GROUP   
@<TRIPOS>SET

