#    Name: 6pus_2_APR_CAVITY_N1_4
#    Modification time : Fri May 22 19:32:40 2020

@<TRIPOS>MOLECULE
6pus_2_APR_CAVITY_N1_4
   74     0     7     0     0
SMALL
NO_CHARGES


@<TRIPOS>ATOM
      1 OG        138.6100  210.1200   96.3400 O.3       1 SER1        0.0000 
      2 OG        135.8500  211.1200   99.7600 O.3       1 SER1        0.0000 
      3 OG        137.2300  212.7300   99.7400 O.3       1 SER1        0.0000 
      4 OG        136.6100  211.8800  100.8100 O.3       1 SER1        0.0000 
      5 N         137.7700  203.9100  101.4400 N.am      2 ALA2        0.0000 
      6 O         139.5300  203.7900  100.2600 O.2       2 ALA2        0.0000 
      7 O         140.9100  205.4000  100.2400 O.2       2 ALA2        0.0000 
      8 O         140.2900  204.5500  101.3000 O.2       2 ALA2        0.0000 
      9 OD1       135.4700  208.6300   97.5400 O.co2     3 ASP3        0.0000 
     10 OD1       133.9600  211.3400   98.8300 O.co2     3 ASP3        0.0000 
     11 OD1       135.1000  210.3600   98.7100 O.co2     3 ASP3        0.0000 
     12 OD1       134.4800  209.5100   99.7800 O.co2     3 ASP3        0.0000 
     13 OD1       138.1000  211.9500   95.3900 O.co2     3 ASP3        0.0000 
     14 OD1       136.8500  210.2400   97.5300 O.co2     3 ASP3        0.0000 
     15 OD1       136.2300  209.3900   98.5900 O.co2     3 ASP3        0.0000 
     16 OD1       137.1000  212.8300   97.6300 O.co2     3 ASP3        0.0000 
     17 OD1       136.4800  211.9700   98.6900 O.co2     3 ASP3        0.0000 
     18 OD1       138.2300  211.8500   97.5100 O.co2     3 ASP3        0.0000 
     19 NZ        134.8500  207.7800   98.6100 N.4       4 LYS4        0.0000 
     20 NZ        137.9900  209.2700   97.4100 N.4       4 LYS4        0.0000 
     21 NZ        137.3700  208.4200   98.4800 N.4       4 LYS4        0.0000 
     22 NZ        139.1200  208.3000   97.2900 N.4       4 LYS4        0.0000 
     23 NZ        138.5000  207.4400   98.3600 N.4       4 LYS4        0.0000 
     24 CZ        137.6100  211.0000   98.5800 C.ar      5 PHE5        0.0000 
     25 CZ        136.9900  210.1500   99.6400 C.ar      5 PHE5        0.0000 
     26 CZ        136.3700  209.2900  100.7100 C.ar      5 PHE5        0.0000 
     27 CZ        139.3700  210.8800   97.3900 C.ar      5 PHE5        0.0000 
     28 CZ        138.7500  210.0300   98.4600 C.ar      5 PHE5        0.0000 
     29 CZ        138.1300  209.1700   99.5200 C.ar      5 PHE5        0.0000 
     30 CZ        137.5000  208.3200  100.5900 C.ar      5 PHE5        0.0000 
     31 CZ        139.8800  209.0500   98.3400 C.ar      5 PHE5        0.0000 
     32 CZ        138.6400  207.3500  100.4700 C.ar      5 PHE5        0.0000 
     33 CZ        138.0200  206.4900  101.5400 C.ar      5 PHE5        0.0000 
     34 CZ        138.9900  212.6100   98.5600 C.ar      5 PHE5        0.0000 
     35 CZ        137.6400  208.2300  102.7100 C.ar      5 PHE5        0.0000 
     36 CZ        137.0200  207.3700  103.7700 C.ar      5 PHE5        0.0000 
     37 CZ        138.7800  207.2500  102.5900 C.ar      5 PHE5        0.0000 
     38 CZ        138.1600  206.4000  103.6500 C.ar      5 PHE5        0.0000 
     39 CZ        139.9100  206.2800  102.4700 C.ar      5 PHE5        0.0000 
     40 CZ        139.2900  205.4300  103.5400 C.ar      5 PHE5        0.0000 
     41 CZ        138.9100  207.1600  104.7000 C.ar      5 PHE5        0.0000 
     42 CA        133.7200  208.7500   98.7300 C.3       6 GLY6        0.0000 
     43 CA        134.2300  206.9200   99.6800 C.3       6 GLY6        0.0000 
     44 CA        135.9900  206.8000   98.4900 C.3       6 GLY6        0.0000 
     45 CA        133.3400  210.4800   99.8900 C.3       6 GLY6        0.0000 
     46 CA        132.7200  209.6300  100.9600 C.3       6 GLY6        0.0000 
     47 CA        133.8500  208.6600  100.8400 C.3       6 GLY6        0.0000 
     48 CA        134.9900  207.6800  100.7200 C.3       6 GLY6        0.0000 
     49 CA        134.3700  206.8300  101.7900 C.3       6 GLY6        0.0000 
     50 CA        136.7500  207.5600   99.5400 C.3       6 GLY6        0.0000 
     51 CA        136.1200  206.7100  100.6100 C.3       6 GLY6        0.0000 
     52 CA        135.5000  205.8600  101.6700 C.3       6 GLY6        0.0000 
     53 CA        137.8800  206.5900   99.4200 C.3       6 GLY6        0.0000 
     54 CA        137.2600  205.7400  100.4900 C.3       6 GLY6        0.0000 
     55 CA        136.6400  204.8800  101.5600 C.3       6 GLY6        0.0000 
     56 CA        139.6400  206.4700   98.2400 C.3       6 GLY6        0.0000 
     57 CA        139.0200  205.6200   99.3100 C.3       6 GLY6        0.0000 
     58 CA        138.4000  204.7600  100.3700 C.3       6 GLY6        0.0000 
     59 CA        132.8600  209.5300  103.0700 C.3       6 GLY6        0.0000 
     60 CA        134.6100  209.4100  101.8900 C.3       6 GLY6        0.0000 
     61 CA        133.9900  208.5600  102.9600 C.3       6 GLY6        0.0000 
     62 CA        140.4000  207.2300   99.2900 C.3       6 GLY6        0.0000 
     63 CA        139.7800  206.3700  100.3600 C.3       6 GLY6        0.0000 
     64 CA        139.1500  205.5200  101.4200 C.3       6 GLY6        0.0000 
     65 DU        135.6100  208.5400   99.6600 H         7 CUB7        0.0000 
     66 DU        135.2300  210.2700  100.8200 H         7 CUB7        0.0000 
     67 DU        135.7500  208.4400  101.7700 H         7 CUB7        0.0000 
     68 DU        135.1300  207.5900  102.8400 H         7 CUB7        0.0000 
     69 DU        136.8800  207.4700  101.6600 H         7 CUB7        0.0000 
     70 DU        136.2600  206.6100  102.7200 H         7 CUB7        0.0000 
     71 DU        135.6400  205.7600  103.7900 H         7 CUB7        0.0000 
     72 DU        137.4000  205.6400  102.6100 H         7 CUB7        0.0000 
     73 DU        136.7800  204.7900  103.6700 H         7 CUB7        0.0000 
     74 DU        138.5300  204.6700  102.4900 H         7 CUB7        0.0000 
@<TRIPOS>BOND
@<TRIPOS>SUBSTRUCTURE
     1 SER1        1 GROUP   
     2 ALA2        5 GROUP   
     3 ASP3        9 GROUP   
     4 LYS4       19 GROUP   
     5 PHE5       24 GROUP   
     6 GLY6       42 GROUP   
     7 CUB7       65 GROUP   
@<TRIPOS>SET

