#    Name: 6pus_2_APR
#    Modification time : Fri May 22 19:32:39 2020

@<TRIPOS>MOLECULE
6pus_2_APR
   36    39     1     0     0
SMALL
NO_CHARGES


@<TRIPOS>ATOM
      1 N1        138.7020  206.8400   99.8650 N.ar      1 APR1602     0.0000 
      2 C2        138.1340  207.2700  101.0020 C.ar      1 APR1602     0.0000 
      3 N3        137.1870  208.2140  101.0440 N.ar      1 APR1602     0.0000 
      4 C4        136.7430  208.7910   99.9110 C.ar      1 APR1602     0.0000 
      5 C5        137.3080  208.3770   98.6270 C.ar      1 APR1602     0.0000 
      6 C6        138.3480  207.3340   98.6650 C.ar      1 APR1602     0.0000 
      7 N6        138.9250  206.8910   97.5260 N.pl3     1 APR1602     0.0000 
      8 N7        136.6960  209.1010   97.6780 N.2       1 APR1602     0.0000 
      9 C8        135.8130  209.9110   98.3080 C.2       1 APR1602     0.0000 
     10 N9        135.8450  209.7250   99.6350 N.pl3     1 APR1602     0.0000 
     11 C1'       135.0120  210.4260  100.6340 C.3       1 APR1602     0.0000 
     12 C2'       135.5820  211.7920  100.9420 C.3       1 APR1602     0.0000 
     13 O2'       136.2890  211.7320  102.1790 O.3       1 APR1602     0.0000 
     14 C3'       134.3730  212.6860  101.0890 C.3       1 APR1602     0.0000 
     15 O3'       134.1910  212.9770  102.4730 O.3       1 APR1602     0.0000 
     16 O4'       133.7050  210.6450  100.1090 O.3       1 APR1602     0.0000 
     17 C4'       133.1860  211.8790  100.5980 C.3       1 APR1602     0.0000 
     18 C5'       132.4520  212.6050   99.4830 C.3       1 APR1602     0.0000 
     19 O5'       133.3330  212.6730   98.3700 O.3       1 APR1602     0.0000 
     20 PA        133.6470  214.1010   97.7120 P.3       1 APR1602     0.0000 
     21 O1A       133.0200  215.1520   98.5880 O.co2     1 APR1602     0.0000 
     22 O2A       133.3040  214.0390   96.2450 O.co2     1 APR1602     0.0000 
     23 O3A       135.2490  214.1060   97.8570 O.3       1 APR1602     0.0000 
     24 PB        136.1330  215.4500   97.8450 P.3       1 APR1602     0.0000 
     25 O1B       137.5630  215.0590   97.5620 O.co2     1 APR1602     0.0000 
     26 O2B       135.4610  216.4770   96.9690 O.co2     1 APR1602     0.0000 
     27 O5D       136.0830  215.9580   99.3700 O.3       1 APR1602     0.0000 
     28 C5D       135.3420  217.1230   99.7150 C.3       1 APR1602     0.0000 
     29 O4D       135.0570  218.7650  101.4500 O.3       1 APR1602     0.0000 
     30 O1D       133.2120  219.5230  102.6720 O.3       1 APR1602     0.0000 
     31 C1D       134.4010  218.7310  102.7150 C.3       1 APR1602     0.0000 
     32 O2D       134.2580  216.9570  104.3420 O.3       1 APR1602     0.0000 
     33 C2D       134.0570  217.2760  102.9680 C.3       1 APR1602     0.0000 
     34 O3D       136.0480  215.9510  102.9700 O.3       1 APR1602     0.0000 
     35 C3D       135.0280  216.4840  102.1250 C.3       1 APR1602     0.0000 
     36 C4D       135.6280  217.4890  101.1600 C.3       1 APR1602     0.0000 
@<TRIPOS>BOND
     1    1    2 ar   
     2    1    6 ar   
     3    2    3 ar   
     4    3    4 ar   
     5    4    5 ar   
     6    4   10 1    
     7    5    6 ar   
     8    5    8 1    
     9    6    7 1    
    10    8    9 2    
    11    9   10 1    
    12   10   11 1    
    13   11   12 1    
    14   11   16 1    
    15   12   13 1    
    16   12   14 1    
    17   14   15 1    
    18   14   17 1    
    19   16   17 1    
    20   17   18 1    
    21   18   19 1    
    22   19   20 1    
    23   20   21 ar   
    24   20   22 ar   
    25   20   23 1    
    26   23   24 1    
    27   24   25 ar   
    28   24   26 ar   
    29   24   27 1    
    30   27   28 1    
    31   28   36 1    
    32   29   31 1    
    33   29   36 1    
    34   30   31 1    
    35   31   33 1    
    36   32   33 1    
    37   33   35 1    
    38   34   35 1    
    39   35   36 1    
@<TRIPOS>SUBSTRUCTURE
     1 APR1602     1 GROUP   
@<TRIPOS>SET

