#    Name: 6pus_1_APR
#    Modification time : Fri May 22 19:32:23 2020

@<TRIPOS>MOLECULE
6pus_1_APR
   36    39     1     0     0
SMALL
NO_CHARGES


@<TRIPOS>ATOM
      1 N1        117.2240  193.3330  123.7080 N.ar      1 APR1601     0.0000 
      2 C2        116.5760  192.1990  124.0020 C.ar      1 APR1601     0.0000 
      3 N3        116.2990  191.2440  123.1040 N.ar      1 APR1601     0.0000 
      4 C4        116.6740  191.3820  121.8200 C.ar      1 APR1601     0.0000 
      5 C5        117.3850  192.5890  121.4180 C.ar      1 APR1601     0.0000 
      6 C6        117.6510  193.5920  122.4610 C.ar      1 APR1601     0.0000 
      7 N6        118.3060  194.7360  122.1720 N.pl3     1 APR1601     0.0000 
      8 N7        117.6370  192.4700  120.1070 N.2       1 APR1601     0.0000 
      9 C8        117.1410  191.2780  119.7060 C.2       1 APR1601     0.0000 
     10 N9        116.5550  190.6470  120.7280 N.pl3     1 APR1601     0.0000 
     11 C1'       115.9040  189.3370  120.6500 C.3       1 APR1601     0.0000 
     12 C2'       115.1270  189.2840  119.3560 C.3       1 APR1601     0.0000 
     13 O2'       113.7360  189.4090  119.6310 O.3       1 APR1601     0.0000 
     14 C3'       115.4010  187.9180  118.7870 C.3       1 APR1601     0.0000 
     15 O3'       114.2060  187.1470  118.8730 O.3       1 APR1601     0.0000 
     16 O4'       116.8910  188.3200  120.5720 O.3       1 APR1601     0.0000 
     17 C4'       116.4470  187.3020  119.6860 C.3       1 APR1601     0.0000 
     18 C5'       117.6340  186.8430  118.8750 C.3       1 APR1601     0.0000 
     19 O5'       118.7520  186.9380  119.7410 O.3       1 APR1601     0.0000 
     20 PA        120.1910  186.4890  119.2180 P.3       1 APR1601     0.0000 
     21 O1A       120.7480  185.4330  120.1210 O.co2     1 APR1601     0.0000 
     22 O2A       120.1260  186.2520  117.7370 O.co2     1 APR1601     0.0000 
     23 O3A       120.9640  187.8450  119.5250 O.3       1 APR1601     0.0000 
     24 PB        121.1090  188.8970  118.3380 P.3       1 APR1601     0.0000 
     25 O1B       119.7580  189.0740  117.6950 O.co2     1 APR1601     0.0000 
     26 O2B       122.3200  188.5020  117.5370 O.co2     1 APR1601     0.0000 
     27 O5D       121.4020  190.2020  119.2130 O.3       1 APR1601     0.0000 
     28 C5D       122.7200  190.6540  119.4820 C.3       1 APR1601     0.0000 
     29 O4D       123.6360  191.9500  121.3380 O.3       1 APR1601     0.0000 
     30 O1D       124.9920  193.7730  121.8970 O.3       1 APR1601     0.0000 
     31 C1D       123.6500  193.3170  121.7410 C.3       1 APR1601     0.0000 
     32 O2D       122.0330  195.0160  121.1930 O.3       1 APR1601     0.0000 
     33 C2D       122.9770  194.1030  120.6320 C.3       1 APR1601     0.0000 
     34 O3D       120.8560  193.3430  119.7380 O.3       1 APR1601     0.0000 
     35 C3D       122.2570  193.0750  119.7910 C.3       1 APR1601     0.0000 
     36 C4D       122.5070  191.7580  120.4940 C.3       1 APR1601     0.0000 
@<TRIPOS>BOND
     1    1    2 ar   
     2    1    6 ar   
     3    2    3 ar   
     4    3    4 ar   
     5    4    5 ar   
     6    4   10 1    
     7    5    6 ar   
     8    5    8 1    
     9    6    7 1    
    10    8    9 2    
    11    9   10 1    
    12   10   11 1    
    13   11   12 1    
    14   11   16 1    
    15   12   13 1    
    16   12   14 1    
    17   14   15 1    
    18   14   17 1    
    19   16   17 1    
    20   17   18 1    
    21   18   19 1    
    22   19   20 1    
    23   20   21 ar   
    24   20   22 ar   
    25   20   23 1    
    26   23   24 1    
    27   24   25 ar   
    28   24   26 ar   
    29   24   27 1    
    30   27   28 1    
    31   28   36 1    
    32   29   31 1    
    33   29   36 1    
    34   30   31 1    
    35   31   33 1    
    36   32   33 1    
    37   33   35 1    
    38   34   35 1    
    39   35   36 1    
@<TRIPOS>SUBSTRUCTURE
     1 APR1601     1 GROUP   
@<TRIPOS>SET

