#    Name: 6pus_7_APR
#    Modification time : Fri May 22 19:33:37 2020

@<TRIPOS>MOLECULE
6pus_7_APR
   36    39     1     0     0
SMALL
NO_CHARGES


@<TRIPOS>ATOM
      1 N1        193.3310  205.0020  123.7340 N.ar      1 APR1601     0.0000 
      2 C2        192.1970  205.6500  124.0280 C.ar      1 APR1601     0.0000 
      3 N3        191.2420  205.9270  123.1300 N.ar      1 APR1601     0.0000 
      4 C4        191.3810  205.5520  121.8460 C.ar      1 APR1601     0.0000 
      5 C5        192.5880  204.8410  121.4440 C.ar      1 APR1601     0.0000 
      6 C6        193.5910  204.5750  122.4870 C.ar      1 APR1601     0.0000 
      7 N6        194.7350  203.9210  122.1980 N.pl3     1 APR1601     0.0000 
      8 N7        192.4690  204.5900  120.1330 N.2       1 APR1601     0.0000 
      9 C8        191.2770  205.0860  119.7320 C.2       1 APR1601     0.0000 
     10 N9        190.6460  205.6710  120.7540 N.pl3     1 APR1601     0.0000 
     11 C1'       189.3360  206.3220  120.6760 C.3       1 APR1601     0.0000 
     12 C2'       189.2830  207.0990  119.3820 C.3       1 APR1601     0.0000 
     13 O2'       189.4080  208.4900  119.6580 O.3       1 APR1601     0.0000 
     14 C3'       187.9170  206.8250  118.8130 C.3       1 APR1601     0.0000 
     15 O3'       187.1460  208.0200  118.8990 O.3       1 APR1601     0.0000 
     16 O4'       188.3190  205.3350  120.5980 O.3       1 APR1601     0.0000 
     17 C4'       187.3010  205.7790  119.7120 C.3       1 APR1601     0.0000 
     18 C5'       186.8420  204.5920  118.9000 C.3       1 APR1601     0.0000 
     19 O5'       186.9370  203.4740  119.7660 O.3       1 APR1601     0.0000 
     20 PA        186.4890  202.0350  119.2430 P.3       1 APR1601     0.0000 
     21 O1A       185.4330  201.4780  120.1450 O.co2     1 APR1601     0.0000 
     22 O2A       186.2520  202.1000  117.7620 O.co2     1 APR1601     0.0000 
     23 O3A       187.8450  201.2620  119.5500 O.3       1 APR1601     0.0000 
     24 PB        188.8970  201.1180  118.3630 P.3       1 APR1601     0.0000 
     25 O1B       189.0740  202.4690  117.7200 O.co2     1 APR1601     0.0000 
     26 O2B       188.5020  199.9070  117.5610 O.co2     1 APR1601     0.0000 
     27 O5D       190.2020  200.8250  119.2380 O.3       1 APR1601     0.0000 
     28 C5D       190.6540  199.5070  119.5070 C.3       1 APR1601     0.0000 
     29 O4D       191.9500  198.5900  121.3630 O.3       1 APR1601     0.0000 
     30 O1D       193.7730  197.2340  121.9220 O.3       1 APR1601     0.0000 
     31 C1D       193.3170  198.5760  121.7660 C.3       1 APR1601     0.0000 
     32 O2D       195.0160  200.1940  121.2190 O.3       1 APR1601     0.0000 
     33 C2D       194.1030  199.2500  120.6570 C.3       1 APR1601     0.0000 
     34 O3D       193.3430  201.3710  119.7640 O.3       1 APR1601     0.0000 
     35 C3D       193.0750  199.9700  119.8160 C.3       1 APR1601     0.0000 
     36 C4D       191.7580  199.7190  120.5190 C.3       1 APR1601     0.0000 
@<TRIPOS>BOND
     1    1    2 ar   
     2    1    6 ar   
     3    2    3 ar   
     4    3    4 ar   
     5    4    5 ar   
     6    4   10 1    
     7    5    6 ar   
     8    5    8 1    
     9    6    7 1    
    10    8    9 2    
    11    9   10 1    
    12   10   11 1    
    13   11   12 1    
    14   11   16 1    
    15   12   13 1    
    16   12   14 1    
    17   14   15 1    
    18   14   17 1    
    19   16   17 1    
    20   17   18 1    
    21   18   19 1    
    22   19   20 1    
    23   20   21 ar   
    24   20   22 ar   
    25   20   23 1    
    26   23   24 1    
    27   24   25 ar   
    28   24   26 ar   
    29   24   27 1    
    30   27   28 1    
    31   28   36 1    
    32   29   31 1    
    33   29   36 1    
    34   30   31 1    
    35   31   33 1    
    36   32   33 1    
    37   33   35 1    
    38   34   35 1    
    39   35   36 1    
@<TRIPOS>SUBSTRUCTURE
     1 APR1601     1 GROUP   
@<TRIPOS>SET

