#    Name: 6pus_6_APR_CAVITY_N1_6
#    Modification time : Fri May 22 19:33:25 2020

@<TRIPOS>MOLECULE
6pus_6_APR_CAVITY_N1_6
   55     0     6     0     0
SMALL
NO_CHARGES


@<TRIPOS>ATOM
      1 OG        183.9800  108.4200   94.1700 O.3       1 SER1        0.0000 
      2 OG        181.8500  110.2700   96.5200 O.3       1 SER1        0.0000 
      3 OG        183.6100  110.1500   95.3300 O.3       1 SER1        0.0000 
      4 OG        182.9900  109.3000   96.4000 O.3       1 SER1        0.0000 
      5 OG        183.2300  111.8800   96.5000 O.3       1 SER1        0.0000 
      6 OG        182.6400  108.2600  101.6900 O.3       1 SER1        0.0000 
      7 OG        183.7700  107.2800  101.5800 O.3       1 SER1        0.0000 
      8 N         180.6000  104.3500   95.2700 N.am      2 ALA2        0.0000 
      9 N         181.1200  102.5200   96.2200 N.am      2 ALA2        0.0000 
     10 N         179.6100  105.2200   97.5000 N.am      2 ALA2        0.0000 
     11 N         181.3600  105.1000   96.3200 N.am      2 ALA2        0.0000 
     12 N         180.4700  108.6600   96.5300 N.am      2 ALA2        0.0000 
     13 N         182.2300  108.5400   95.3500 N.am      2 ALA2        0.0000 
     14 N         181.6100  107.6900   96.4200 N.am      2 ALA2        0.0000 
     15 N         180.9800  106.8400   97.4800 N.am      2 ALA2        0.0000 
     16 N         180.3600  105.9800   98.5500 N.am      2 ALA2        0.0000 
     17 N         183.3600  107.5700   95.2300 N.am      2 ALA2        0.0000 
     18 OD1       184.7400  109.1800   95.2100 O.co2     3 ASP3        0.0000 
     19 OD1       184.3600  110.9100   96.3800 O.co2     3 ASP3        0.0000 
     20 OD1       183.7400  110.0600   97.4500 O.co2     3 ASP3        0.0000 
     21 OD1       184.8800  109.0900   97.3300 O.co2     3 ASP3        0.0000 
     22 OD1       185.1200  111.6700   97.4300 O.co2     3 ASP3        0.0000 
     23 CZ        181.2300  109.4200   97.5800 C.ar      4 PHE5        0.0000 
     24 CZ        182.6100  111.0300   97.5600 C.ar      4 PHE5        0.0000 
     25 CZ        181.9900  110.1800   98.6300 C.ar      4 PHE5        0.0000 
     26 CZ        181.3700  109.3300   99.7000 C.ar      4 PHE5        0.0000 
     27 CZ        183.1200  109.2100   98.5100 C.ar      4 PHE5        0.0000 
     28 CZ        182.5000  108.3500   99.5800 C.ar      4 PHE5        0.0000 
     29 CZ        181.5000  109.2300  101.8100 C.ar      4 PHE5        0.0000 
     30 CZ        184.5000  110.8200   98.5000 C.ar      4 PHE5        0.0000 
     31 CZ        183.8800  109.9600   99.5600 C.ar      4 PHE5        0.0000 
     32 CA        180.1200  103.4000   98.4500 C.3       5 GLY6        0.0000 
     33 CA        181.2500  102.4200   98.3300 C.3       5 GLY6        0.0000 
     34 CA        179.7400  105.1300   99.6100 C.3       5 GLY6        0.0000 
     35 CA        181.5000  105.0100   98.4300 C.3       5 GLY6        0.0000 
     36 CA        180.8800  104.1600   99.5000 C.3       5 GLY6        0.0000 
     37 CA        182.6300  104.0400   98.3100 C.3       5 GLY6        0.0000 
     38 CA        183.1500  102.2100   99.2600 C.3       5 GLY6        0.0000 
     39 CA        180.6100  108.5700   98.6500 C.3       5 GLY6        0.0000 
     40 CA        179.9900  107.7100   99.7100 C.3       5 GLY6        0.0000 
     41 CA        181.1200  106.7400   99.6000 C.3       5 GLY6        0.0000 
     42 CA        180.5000  105.8900  100.6600 C.3       5 GLY6        0.0000 
     43 CA        182.2600  105.7700   99.4800 C.3       5 GLY6        0.0000 
     44 CA        181.8800  107.5000  100.6400 C.3       5 GLY6        0.0000 
     45 CA        181.2600  106.6500  101.7100 C.3       5 GLY6        0.0000 
     46 CA        183.0200  106.5300  100.5300 C.3       5 GLY6        0.0000 
     47 DU        180.7400  104.2500   97.3800 H         6 CUB7        0.0000 
     48 DU        181.8800  103.2800   97.2600 H         6 CUB7        0.0000 
     49 DU        182.3900  101.4500   98.2100 H         6 CUB7        0.0000 
     50 DU        182.1200  105.8600   97.3600 H         6 CUB7        0.0000 
     51 DU        182.3600  108.4500   97.4600 H         6 CUB7        0.0000 
     52 DU        181.7400  107.5900   98.5300 H         6 CUB7        0.0000 
     53 DU        184.1200  108.3300   96.2800 H         6 CUB7        0.0000 
     54 DU        183.5000  107.4700   97.3500 H         6 CUB7        0.0000 
     55 DU        182.8800  106.6200   98.4100 H         6 CUB7        0.0000 
@<TRIPOS>BOND
@<TRIPOS>SUBSTRUCTURE
     1 SER1        1 GROUP   
     2 ALA2        8 GROUP   
     3 ASP3       18 GROUP   
     4 PHE5       23 GROUP   
     5 GLY6       32 GROUP   
     6 CUB7       47 GROUP   
@<TRIPOS>SET

