#    Name: 6pus_6_APR_CAVITY_N1_4
#    Modification time : Fri May 22 19:33:25 2020

@<TRIPOS>MOLECULE
6pus_6_APR_CAVITY_N1_4
   29     0     6     0     0
SMALL
NO_CHARGES


@<TRIPOS>ATOM
      1 OG        183.9800  108.4200   94.1700 O.3       1 SER1        0.0000 
      2 OG        183.6100  110.1500   95.3300 O.3       1 SER1        0.0000 
      3 OG        182.9900  109.3000   96.4000 O.3       1 SER1        0.0000 
      4 OG        183.2300  111.8800   96.5000 O.3       1 SER1        0.0000 
      5 OG        183.7700  107.2800  101.5800 O.3       1 SER1        0.0000 
      6 N         182.2300  108.5400   95.3500 N.am      2 ALA2        0.0000 
      7 N         181.6100  107.6900   96.4200 N.am      2 ALA2        0.0000 
      8 N         180.9800  106.8400   97.4800 N.am      2 ALA2        0.0000 
      9 N         183.3600  107.5700   95.2300 N.am      2 ALA2        0.0000 
     10 OD1       184.7400  109.1800   95.2100 O.co2     3 ASP3        0.0000 
     11 OD1       184.3600  110.9100   96.3800 O.co2     3 ASP3        0.0000 
     12 OD1       183.7400  110.0600   97.4500 O.co2     3 ASP3        0.0000 
     13 OD1       184.8800  109.0900   97.3300 O.co2     3 ASP3        0.0000 
     14 OD1       185.1200  111.6700   97.4300 O.co2     3 ASP3        0.0000 
     15 CZ        182.6100  111.0300   97.5600 C.ar      4 PHE5        0.0000 
     16 CZ        183.1200  109.2100   98.5100 C.ar      4 PHE5        0.0000 
     17 CZ        182.5000  108.3500   99.5800 C.ar      4 PHE5        0.0000 
     18 CZ        184.5000  110.8200   98.5000 C.ar      4 PHE5        0.0000 
     19 CZ        183.8800  109.9600   99.5600 C.ar      4 PHE5        0.0000 
     20 CA        181.5000  105.0100   98.4300 C.3       5 GLY6        0.0000 
     21 CA        182.6300  104.0400   98.3100 C.3       5 GLY6        0.0000 
     22 CA        182.2600  105.7700   99.4800 C.3       5 GLY6        0.0000 
     23 CA        183.0200  106.5300  100.5300 C.3       5 GLY6        0.0000 
     24 DU        182.1200  105.8600   97.3600 H         6 CUB7        0.0000 
     25 DU        182.3600  108.4500   97.4600 H         6 CUB7        0.0000 
     26 DU        181.7400  107.5900   98.5300 H         6 CUB7        0.0000 
     27 DU        184.1200  108.3300   96.2800 H         6 CUB7        0.0000 
     28 DU        183.5000  107.4700   97.3500 H         6 CUB7        0.0000 
     29 DU        182.8800  106.6200   98.4100 H         6 CUB7        0.0000 
@<TRIPOS>BOND
@<TRIPOS>SUBSTRUCTURE
     1 SER1        1 GROUP   
     2 ALA2        6 GROUP   
     3 ASP3       10 GROUP   
     4 PHE5       15 GROUP   
     5 GLY6       20 GROUP   
     6 CUB7       24 GROUP   
@<TRIPOS>SET

