#    Name: 6iqm_3_NAD
#    Modification time : Fri May 22 19:31:16 2020

@<TRIPOS>MOLECULE
6iqm_3_NAD
   44    48     1     0     1
SMALL
NO_CHARGES


@<TRIPOS>ATOM
      1 PA         41.9870  -50.2850  -13.1450 P.3       1 NAD401      0.0000 
      2 O1A        41.4010  -50.2250  -11.8630 O.co2     1 NAD401      0.0000 
      3 O2A        42.6040  -49.1630  -13.7610 O.co2     1 NAD401      0.0000 
      4 O5B        42.9600  -51.4960  -13.0990 O.3       1 NAD401      0.0000 
      5 C5B        43.9430  -51.6080  -14.0730 C.3       1 NAD401      0.0000 
      6 C4B        45.1680  -52.1790  -13.4140 C.3       1 NAD401      0.0000 
      7 O4B        46.0290  -52.7620  -14.3600 O.3       1 NAD401      0.0000 
      8 C3B        45.9130  -51.0340  -12.7690 C.3       1 NAD401      0.0000 
      9 O3B        46.1930  -51.4190  -11.4620 O.3       1 NAD401      0.0000 
     10 C2B        47.1720  -50.8700  -13.5870 C.3       1 NAD401      0.0000 
     11 O2B        48.2880  -50.4740  -12.8220 O.3       1 NAD401      0.0000 
     12 C1B        47.3430  -52.2720  -14.1500 C.3       1 NAD401      0.0000 
     13 N9A        48.1180  -52.3240  -15.3910 N.pl3     1 NAD401      0.0000 
     14 C8A        48.0530  -51.4910  -16.4210 C.2       1 NAD401      0.0000 
     15 N7A        48.8950  -51.8780  -17.3800 N.2       1 NAD401      0.0000 
     16 C5A        49.5260  -52.9820  -16.9930 C.ar      1 NAD401      0.0000 
     17 C6A        50.5510  -53.9130  -17.5280 C.ar      1 NAD401      0.0000 
     18 N6A        51.0800  -53.6950  -18.7190 N.pl3     1 NAD401      0.0000 
     19 N1A        50.9200  -54.9470  -16.7810 N.ar      1 NAD401      0.0000 
     20 C2A        50.4000  -55.1630  -15.5700 C.ar      1 NAD401      0.0000 
     21 N3A        49.4870  -54.3710  -15.0130 N.ar      1 NAD401      0.0000 
     22 C4A        49.0200  -53.2830  -15.6550 C.ar      1 NAD401      0.0000 
     23 O3         40.8370  -50.7170  -14.1530 O.3       1 NAD401      0.0000 
     24 PN         39.6220  -51.6600  -13.8770 P.3       1 NAD401      0.0000 
     25 O1N        38.4090  -50.8830  -13.6870 O.co2     1 NAD401      0.0000 
     26 O2N        40.0310  -52.6440  -12.9290 O.co2     1 NAD401      0.0000 
     27 O5D        39.3740  -52.3980  -15.2600 O.3       1 NAD401      0.0000 
     28 C5D        40.2670  -53.3760  -15.7560 C.3       1 NAD401      0.0000 
     29 C4D        39.6560  -54.2270  -16.8900 C.3       1 NAD401      0.0000 
     30 O4D        38.4190  -54.7980  -16.4980 O.3       1 NAD401      0.0000 
     31 C3D        39.3740  -53.3830  -18.1260 C.3       1 NAD401      0.0000 
     32 O3D        39.5870  -54.1750  -19.2800 O.3       1 NAD401      0.0000 
     33 C2D        37.9250  -53.0140  -17.9340 C.3       1 NAD401      0.0000 
     34 O2D        37.2480  -52.7440  -19.1470 O.3       1 NAD401      0.0000 
     35 C1D        37.3710  -54.2510  -17.2570 C.3       1 NAD401      0.0000 
     36 N1N        36.1920  -54.0480  -16.4520 N.pl3     1 NAD401      0.0000 
     37 C2N        36.0150  -53.0170  -15.6230 C.ar      1 NAD401      0.0000 
     38 C3N        34.8610  -52.8990  -14.8540 C.ar      1 NAD401      0.0000 
     39 C7N        34.5680  -51.7440  -13.9110 C.2       1 NAD401      0.0000 
     40 O7N        33.4390  -51.5040  -13.6520 O.2       1 NAD401      0.0000 
     41 N7N        35.5290  -51.0180  -13.4390 N.am      1 NAD401      0.0000 
     42 C4N        33.8980  -53.8730  -14.9650 C.ar      1 NAD401      0.0000 
     43 C5N        34.1220  -54.9170  -15.8270 C.ar      1 NAD401      0.0000 
     44 C6N        35.2740  -54.9620  -16.5620 C.ar      1 NAD401      0.0000 
@<TRIPOS>BOND
     1    1    2 ar   
     2    1    3 ar   
     3    1    4 1    
     4    1   23 1    
     5    4    5 1    
     6    5    6 1    
     7    6    7 1    
     8    6    8 1    
     9    7   12 1    
    10    8    9 1    
    11    8   10 1    
    12   10   11 1    
    13   10   12 1    
    14   12   13 1    
    15   13   14 1    
    16   13   22 1    
    17   14   15 2    
    18   15   16 1    
    19   16   17 ar   
    20   16   22 ar   
    21   17   18 1    
    22   17   19 ar   
    23   19   20 ar   
    24   20   21 ar   
    25   21   22 ar   
    26   23   24 1    
    27   24   25 ar   
    28   24   26 ar   
    29   24   27 1    
    30   27   28 1    
    31   28   29 1    
    32   29   30 1    
    33   29   31 1    
    34   30   35 1    
    35   31   32 1    
    36   31   33 1    
    37   33   34 1    
    38   33   35 1    
    39   35   36 1    
    40   36   37 ar   
    41   36   44 ar   
    42   37   38 ar   
    43   38   39 1    
    44   38   42 ar   
    45   39   40 2    
    46   39   41 am   
    47   42   43 ar   
    48   43   44 ar   
@<TRIPOS>SUBSTRUCTURE
     1 NAD401      1 GROUP   
@<TRIPOS>SET
ATOM$ORANGE STATIC     ATOMS   COLORGROUP SYSTEM 
42 5 5 6 6 8 8 10 10 12 12 14 14 16 16 17 17 20 \
20 22 22 28 28 29 29 31 31 33 33 35 35 37 37 38 38 39 \
39 42 42 43 43 44 44 

