#    Name: 6i7c_1_IMD
#    Modification time : Fri May 22 19:30:09 2020

@<TRIPOS>MOLECULE
6i7c_1_IMD
    9     9     1     0     0
SMALL
NO_CHARGES


@<TRIPOS>ATOM
      1 N1         12.3650    2.5380   41.0710 N.pl3     1 IMD501      0.0000 
      2 C2         12.7350    1.4280   40.4140 C.2       1 IMD501      0.0000 
      3 N3         11.9000    1.2610   39.3860 N.2       1 IMD501      0.0000 
      4 C4         10.9700    2.2320   39.3990 C.2       1 IMD501      0.0000 
      5 C5         11.2580    3.0650   40.4880 C.2       1 IMD501      0.0000 
      6 H2         13.4850    0.8430   40.6480 H         1 IMD501      0.0000 
      7 HN3        11.9560    0.5410   38.7240 H         1 IMD501      0.0000 
      8 H4         10.2300    2.3370   38.7660 H         1 IMD501      0.0000 
      9 H5         10.7630    3.8630   40.7700 H         1 IMD501      0.0000 
@<TRIPOS>BOND
     1    1    2 1    
     2    1    5 1    
     3    2    3 2    
     4    2    6 1    
     5    3    4 1    
     6    3    7 1    
     7    4    5 2    
     8    4    8 1    
     9    5    9 1    
@<TRIPOS>SUBSTRUCTURE
     1 IMD501      1 GROUP   
@<TRIPOS>SET

