#    Name: 6i7c_1_IMD_CAVITY_N1_4
#    Modification time : Fri May 22 19:30:10 2020

@<TRIPOS>MOLECULE
6i7c_1_IMD_CAVITY_N1_4
   39     0     6     0     0
SMALL
NO_CHARGES


@<TRIPOS>ATOM
      1 OG         13.5900    2.5100   41.3000 O.3       1 SER1        0.0000 
      2 OG         12.0900    3.6500   42.2900 O.3       1 SER1        0.0000 
      3 OG         13.1500    3.9500   41.2700 O.3       1 SER1        0.0000 
      4 OG         14.2100    4.2400   40.2500 O.3       1 SER1        0.0000 
      5 OG         11.6500    5.0800   42.2500 O.3       1 SER1        0.0000 
      6 OG         12.7100    5.3800   41.2300 O.3       1 SER1        0.0000 
      7 OG         13.7700    5.6800   40.2100 O.3       1 SER1        0.0000 
      8 OG         13.5000    2.5400   43.4200 O.3       1 SER1        0.0000 
      9 OG         14.5600    2.8400   42.4000 O.3       1 SER1        0.0000 
     10 OG         15.6100    3.1400   41.3800 O.3       1 SER1        0.0000 
     11 OG         12.0000    3.6700   44.4100 O.3       1 SER1        0.0000 
     12 O          15.7000    3.1100   39.2600 O.2       2 ALA2        0.0000 
     13 N          15.4400   -0.0300   42.4700 N.am      2 ALA2        0.0000 
     14 OD1        12.5300    2.2100   42.3200 O.co2     3 ASP3        0.0000 
     15 OD1        14.3800   -0.3300   43.4900 O.co2     3 ASP3        0.0000 
     16 OD1        12.8800    0.8000   44.4800 O.co2     3 ASP3        0.0000 
     17 OD1        13.9400    1.1000   43.4600 O.co2     3 ASP3        0.0000 
     18 OD1        12.4400    2.2400   44.4400 O.co2     3 ASP3        0.0000 
     19 NZ         12.6200    2.1900   40.2000 N.4       4 LYS4        0.0000 
     20 NZ         13.6800    2.4900   39.1800 N.4       4 LYS4        0.0000 
     21 NZ         14.7400    2.7900   38.1600 N.4       4 LYS4        0.0000 
     22 NZ         14.0300    1.0800   41.3400 N.4       4 LYS4        0.0000 
     23 NZ         14.6500    2.8100   40.2800 N.4       4 LYS4        0.0000 
     24 CZ          9.6200    4.4600   42.1700 C.ar      5 PHE5        0.0000 
     25 CZ         10.6800    4.7500   41.1500 C.ar      5 PHE5        0.0000 
     26 CZ         11.7400    5.0500   40.1300 C.ar      5 PHE5        0.0000 
     27 CZ         11.3000    6.4900   40.1000 C.ar      5 PHE5        0.0000 
     28 CZ         12.2700    6.8100   41.2000 C.ar      5 PHE5        0.0000 
     29 CZ         15.0000    1.4000   42.4400 C.ar      5 PHE5        0.0000 
     30 CZ         16.0600    1.7000   41.4200 C.ar      5 PHE5        0.0000 
     31 CA         11.1200    3.3200   41.1900 C.3       6 GLY6        0.0000 
     32 CA         12.1800    3.6200   40.1700 C.3       6 GLY6        0.0000 
     33 CA         13.2400    3.9200   39.1500 C.3       6 GLY6        0.0000 
     34 CA          8.5700    4.1600   43.1900 C.3       6 GLY6        0.0000 
     35 CA         12.8000    5.3500   39.1100 C.3       6 GLY6        0.0000 
     36 CA         11.0300    3.3500   43.3100 C.3       6 GLY6        0.0000 
     37 CA         15.2600    4.5400   39.2200 C.3       6 GLY6        0.0000 
     38 CA         10.5900    4.7800   43.2700 C.3       6 GLY6        0.0000 
     39 CA         11.2100    6.5100   42.2200 C.3       6 GLY6        0.0000 
@<TRIPOS>BOND
@<TRIPOS>SUBSTRUCTURE
     1 SER1        1 GROUP   
     2 ALA2       12 GROUP   
     3 ASP3       14 GROUP   
     4 LYS4       19 GROUP   
     5 PHE5       24 GROUP   
     6 GLY6       31 GROUP   
@<TRIPOS>SET

