#    Name: 6qxs_1_FFO
#    Modification time : Fri May 22 19:39:26 2020

@<TRIPOS>MOLECULE
6qxs_1_FFO
   34    36     1     0     0
SMALL
NO_CHARGES


@<TRIPOS>ATOM
      1 N1         46.3820    7.0850   30.1190 N.2       1 FFO403      0.0000 
      2 C2         46.2370    8.1210   29.2400 C.2       1 FFO403      0.0000 
      3 NA2        46.2480    9.3660   29.7180 N.pl3     1 FFO403      0.0000 
      4 N3         46.0900    7.9110   27.9360 N.am      1 FFO403      0.0000 
      5 C4         46.1000    6.6210   27.4550 C.2       1 FFO403      0.0000 
      6 O4         45.9580    6.4570   26.2380 O.2       1 FFO403      0.0000 
      7 C4A        46.2380    5.5370   28.2990 C.2       1 FFO403      0.0000 
      8 N5         46.2710    4.1960   27.8100 N.am      1 FFO403      0.0000 
      9 C6         46.9410    3.1680   28.6520 C.3       1 FFO403      0.0000 
     10 C7         46.5620    3.3150   30.1300 C.3       1 FFO403      0.0000 
     11 N8         46.5470    4.7120   30.5560 N.pl3     1 FFO403      0.0000 
     12 C8A        46.3910    5.7770   29.6770 C.2       1 FFO403      0.0000 
     13 C9         48.4560    3.2410   28.3680 C.3       1 FFO403      0.0000 
     14 N10        48.6250    3.4160   26.9280 N.pl3     1 FFO403      0.0000 
     15 C11        51.4020    5.9390   25.0780 C.ar      1 FFO403      0.0000 
     16 C12        50.4460    5.2640   24.3180 C.ar      1 FFO403      0.0000 
     17 C13        49.5250    4.4270   24.9250 C.ar      1 FFO403      0.0000 
     18 C14        49.5210    4.2700   26.3170 C.ar      1 FFO403      0.0000 
     19 C15        50.4620    4.9590   27.0790 C.ar      1 FFO403      0.0000 
     20 C16        51.3890    5.7710   26.4590 C.ar      1 FFO403      0.0000 
     21 C          52.4570    6.8800   24.5580 C.2       1 FFO403      0.0000 
     22 O          53.0020    7.6660   25.3270 O.2       1 FFO403      0.0000 
     23 N          52.7880    6.8350   23.2620 N.am      1 FFO403      0.0000 
     24 CA         53.8220    7.7170   22.7270 C.3       1 FFO403      0.0000 
     25 CB         55.2260    7.1760   23.0340 C.3       1 FFO403      0.0000 
     26 CG         55.8360    6.2460   22.0060 C.3       1 FFO403      0.0000 
     27 CD         57.3470    6.1510   22.1750 C.2       1 FFO403      0.0000 
     28 OE1        57.8810    6.8420   23.0650 O.co2     1 FFO403      0.0000 
     29 OE2        58.0000    5.3970   21.4200 O.co2     1 FFO403      0.0000 
     30 CT         53.5420    8.3020   21.3200 C.2       1 FFO403      0.0000 
     31 O1         53.2150    7.5230   20.3920 O.co2     1 FFO403      0.0000 
     32 O2         53.6500    9.5400   21.2010 O.co2     1 FFO403      0.0000 
     33 C5A        45.8430    3.8760   26.5690 C.2       1 FFO403      0.0000 
     34 O5B        46.0680    2.7950   26.0580 O.2       1 FFO403      0.0000 
@<TRIPOS>BOND
     1    1    2 2    
     2    1   12 1    
     3    2    3 1    
     4    2    4 1    
     5    4    5 am   
     6    5    6 2    
     7    5    7 1    
     8    7    8 1    
     9    7   12 2    
    10    8    9 1    
    11    8   33 am   
    12    9   10 1    
    13    9   13 1    
    14   10   11 1    
    15   11   12 1    
    16   13   14 1    
    17   14   18 1    
    18   15   16 ar   
    19   15   20 ar   
    20   15   21 1    
    21   16   17 ar   
    22   17   18 ar   
    23   18   19 ar   
    24   19   20 ar   
    25   21   22 2    
    26   21   23 am   
    27   23   24 1    
    28   24   25 1    
    29   24   30 1    
    30   25   26 1    
    31   26   27 1    
    32   27   28 ar   
    33   27   29 ar   
    34   30   31 ar   
    35   30   32 ar   
    36   33   34 2    
@<TRIPOS>SUBSTRUCTURE
     1 FFO403      1 GROUP   
@<TRIPOS>SET

