#    Name: 6qxs_2_FFO
#    Modification time : Fri May 22 19:39:31 2020

@<TRIPOS>MOLECULE
6qxs_2_FFO
   34    36     1     0     0
SMALL
NO_CHARGES


@<TRIPOS>ATOM
      1 N1         47.2670  -51.4730   19.8380 N.2       1 FFO403      0.0000 
      2 C2         46.9760  -52.5610   20.6080 C.2       1 FFO403      0.0000 
      3 NA2        47.0660  -53.7690   20.0510 N.pl3     1 FFO403      0.0000 
      4 N3         46.6120  -52.4350   21.8820 N.am      1 FFO403      0.0000 
      5 C4         46.5370  -51.1900   22.4380 C.2       1 FFO403      0.0000 
      6 O4         46.1840  -51.1320   23.6190 O.2       1 FFO403      0.0000 
      7 C4A        46.8190  -50.0380   21.6910 C.2       1 FFO403      0.0000 
      8 N5         46.7670  -48.7170   22.2340 N.am      1 FFO403      0.0000 
      9 C6         47.7130  -47.7470   21.6290 C.3       1 FFO403      0.0000 
     10 C7         47.5830  -47.7340   20.1080 C.3       1 FFO403      0.0000 
     11 N8         47.5190  -49.0900   19.5800 N.pl3     1 FFO403      0.0000 
     12 C8A        47.2060  -50.1970   20.3560 C.2       1 FFO403      0.0000 
     13 C9         49.1340  -48.0960   22.1030 C.3       1 FFO403      0.0000 
     14 N10        49.1370  -48.2440   23.5530 N.pl3     1 FFO403      0.0000 
     15 C11        51.5940  -50.8010   25.7550 C.ar      1 FFO403      0.0000 
     16 C12        50.4410  -50.2690   26.3250 C.ar      1 FFO403      0.0000 
     17 C13        49.6290  -49.4220   25.5960 C.ar      1 FFO403      0.0000 
     18 C14        49.9450  -49.1010   24.2700 C.ar      1 FFO403      0.0000 
     19 C15        51.0940  -49.6380   23.6930 C.ar      1 FFO403      0.0000 
     20 C16        51.9020  -50.4760   24.4340 C.ar      1 FFO403      0.0000 
     21 C          52.5330  -51.7340   26.4680 C.2       1 FFO403      0.0000 
     22 O          53.1490  -52.5860   25.8350 O.2       1 FFO403      0.0000 
     23 N          52.7210  -51.5720   27.7820 N.am      1 FFO403      0.0000 
     24 CA         53.8060  -52.2760   28.4590 C.3       1 FFO403      0.0000 
     25 CB         55.1870  -51.6310   28.1910 C.3       1 FFO403      0.0000 
     26 CG         55.7340  -50.6720   29.2510 C.3       1 FFO403      0.0000 
     27 CD         57.2570  -50.5990   29.3990 C.2       1 FFO403      0.0000 
     28 OE1        57.9600  -51.2930   28.6380 O.co2     1 FFO403      0.0000 
     29 OE2        57.7470  -49.8570   30.2880 O.co2     1 FFO403      0.0000 
     30 CT         53.3960  -52.8130   29.8530 C.2       1 FFO403      0.0000 
     31 O1         53.1010  -51.9880   30.7400 O.co2     1 FFO403      0.0000 
     32 O2         53.3480  -54.0620   29.9970 O.co2     1 FFO403      0.0000 
     33 C5A        45.9760  -48.3950   23.3010 C.2       1 FFO403      0.0000 
     34 O5B        45.8030  -47.2560   23.7260 O.2       1 FFO403      0.0000 
@<TRIPOS>BOND
     1    1    2 2    
     2    1   12 1    
     3    2    3 1    
     4    2    4 1    
     5    4    5 am   
     6    5    6 2    
     7    5    7 1    
     8    7    8 1    
     9    7   12 2    
    10    8    9 1    
    11    8   33 am   
    12    9   10 1    
    13    9   13 1    
    14   10   11 1    
    15   11   12 1    
    16   13   14 1    
    17   14   18 1    
    18   15   16 ar   
    19   15   20 ar   
    20   15   21 1    
    21   16   17 ar   
    22   17   18 ar   
    23   18   19 ar   
    24   19   20 ar   
    25   21   22 2    
    26   21   23 am   
    27   23   24 1    
    28   24   25 1    
    29   24   30 1    
    30   25   26 1    
    31   26   27 1    
    32   27   28 ar   
    33   27   29 ar   
    34   30   31 ar   
    35   30   32 ar   
    36   33   34 2    
@<TRIPOS>SUBSTRUCTURE
     1 FFO403      1 GROUP   
@<TRIPOS>SET

