#    Name: 6pz9_1_ATP_CAVITY_N1_8
#    Modification time : Fri May 22 19:25:41 2020

@<TRIPOS>MOLECULE
6pz9_1_ATP_CAVITY_N1_8
   54     0     5     0     0
SMALL
NO_CHARGES


@<TRIPOS>ATOM
      1 OG        234.3100  137.5100  163.5500 O.3       1 SER1        0.0000 
      2 OG        232.9900  137.0300  164.0800 O.3       1 SER1        0.0000 
      3 OG        234.7600  137.8200  164.9400 O.3       1 SER1        0.0000 
      4 OG        233.4500  137.3400  165.4800 O.3       1 SER1        0.0000 
      5 OG        232.1300  136.8500  166.0100 O.3       1 SER1        0.0000 
      6 OG        235.2200  138.1300  166.3400 O.3       1 SER1        0.0000 
      7 OG        233.9100  137.6400  166.8700 O.3       1 SER1        0.0000 
      8 OG        233.0500  137.4700  168.8000 O.3       1 SER1        0.0000 
      9 OG        236.2400  137.0500  167.8500 O.3       1 SER1        0.0000 
     10 O         231.6800  136.5500  164.6200 O.2       2 ALA2        0.0000 
     11 O         230.8200  136.3700  166.5500 O.2       2 ALA2        0.0000 
     12 N         232.1900  137.2900  170.7400 N.am      2 ALA2        0.0000 
     13 N         235.9400  135.4800  169.9100 N.am      2 ALA2        0.0000 
     14 N         234.6200  135.0000  170.4400 N.am      2 ALA2        0.0000 
     15 N         232.6400  137.6000  172.1300 N.am      2 ALA2        0.0000 
     16 CZ        237.6500  135.8400  166.0400 C.ar      3 PHE5        0.0000 
     17 CZ        238.2100  134.4500  166.1700 C.ar      3 PHE5        0.0000 
     18 CZ        237.5500  137.5300  167.3200 C.ar      3 PHE5        0.0000 
     19 CZ        236.8000  135.6600  167.9800 C.ar      3 PHE5        0.0000 
     20 CA        233.1000  135.3400  162.8100 C.3       4 GLY6        0.0000 
     21 CA        234.8700  136.1300  163.6700 C.3       4 GLY6        0.0000 
     22 CA        233.5500  135.6400  164.2000 C.3       4 GLY6        0.0000 
     23 CA        235.4300  134.7400  163.7900 C.3       4 GLY6        0.0000 
     24 CA        236.6400  136.9200  164.5300 C.3       4 GLY6        0.0000 
     25 CA        238.5100  136.0200  164.1100 C.3       4 GLY6        0.0000 
     26 CA        237.2000  135.5300  164.6500 C.3       4 GLY6        0.0000 
     27 CA        239.0700  134.6300  164.2300 C.3       4 GLY6        0.0000 
     28 CA        237.7600  134.1500  164.7700 C.3       4 GLY6        0.0000 
     29 CA        237.1000  137.2300  165.9200 C.3       4 GLY6        0.0000 
     30 CA        236.9900  138.9200  167.2000 C.3       4 GLY6        0.0000 
     31 CA        235.6800  138.4300  167.7300 C.3       4 GLY6        0.0000 
     32 CA        234.3600  137.9500  168.2700 C.3       4 GLY6        0.0000 
     33 CA        234.8200  138.2600  169.6600 C.3       4 GLY6        0.0000 
     34 CA        233.5000  137.7700  170.2000 C.3       4 GLY6        0.0000 
     35 CA        235.3800  136.8700  169.7900 C.3       4 GLY6        0.0000 
     36 CA        232.7500  135.9000  170.8600 C.3       4 GLY6        0.0000 
     37 CA        231.4300  135.4200  171.3900 C.3       4 GLY6        0.0000 
     38 CA        233.3100  134.5200  170.9800 C.3       4 GLY6        0.0000 
     39 CA        233.9600  138.0800  171.6000 C.3       4 GLY6        0.0000 
     40 CA        234.5200  136.6900  171.7200 C.3       4 GLY6        0.0000 
     41 CA        233.2000  136.2100  172.2500 C.3       4 GLY6        0.0000 
     42 CA        235.0800  135.3100  171.8400 C.3       4 GLY6        0.0000 
     43 DU        235.3200  136.4300  165.0600 H         5 CUB7        0.0000 
     44 DU        234.0100  135.9500  165.6000 H         5 CUB7        0.0000 
     45 DU        232.6900  135.4700  166.1300 H         5 CUB7        0.0000 
     46 DU        235.8800  135.0500  165.1800 H         5 CUB7        0.0000 
     47 DU        232.5900  137.1600  167.4100 H         5 CUB7        0.0000 
     48 DU        231.2800  136.6800  167.9400 H         5 CUB7        0.0000 
     49 DU        235.7800  136.7400  166.4600 H         5 CUB7        0.0000 
     50 DU        234.4700  136.2600  166.9900 H         5 CUB7        0.0000 
     51 DU        236.3400  135.3600  166.5800 H         5 CUB7        0.0000 
     52 DU        231.7300  136.9800  169.3400 H         5 CUB7        0.0000 
     53 DU        234.9200  136.5600  168.3900 H         5 CUB7        0.0000 
     54 DU        234.0600  136.3900  170.3200 H         5 CUB7        0.0000 
@<TRIPOS>BOND
@<TRIPOS>SUBSTRUCTURE
     1 SER1        1 GROUP   
     2 ALA2       10 GROUP   
     3 PHE5       16 GROUP   
     4 GLY6       20 GROUP   
     5 CUB7       43 GROUP   
@<TRIPOS>SET

