#    Name: 6pz9_1_ATP_CAVITY_N1_12
#    Modification time : Fri May 22 19:25:41 2020

@<TRIPOS>MOLECULE
6pz9_1_ATP_CAVITY_N1_12
   73     0     5     0     0
SMALL
NO_CHARGES


@<TRIPOS>ATOM
      1 OG        234.3100  137.5100  163.5500 O.3       1 SER1        0.0000 
      2 OG        232.9900  137.0300  164.0800 O.3       1 SER1        0.0000 
      3 OG        234.7600  137.8200  164.9400 O.3       1 SER1        0.0000 
      4 OG        233.4500  137.3400  165.4800 O.3       1 SER1        0.0000 
      5 OG        232.1300  136.8500  166.0100 O.3       1 SER1        0.0000 
      6 OG        235.2200  138.1300  166.3400 O.3       1 SER1        0.0000 
      7 OG        233.9100  137.6400  166.8700 O.3       1 SER1        0.0000 
      8 OG        230.6100  139.7600  169.1000 O.3       1 SER1        0.0000 
      9 OG        232.4900  138.8500  168.6800 O.3       1 SER1        0.0000 
     10 OG        231.1700  138.3700  169.2200 O.3       1 SER1        0.0000 
     11 OG        233.0500  137.4700  168.8000 O.3       1 SER1        0.0000 
     12 OG        236.2400  137.0500  167.8500 O.3       1 SER1        0.0000 
     13 OG        232.9400  139.1600  170.0800 O.3       1 SER1        0.0000 
     14 O         231.6800  136.5500  164.6200 O.2       2 ALA2        0.0000 
     15 O         230.8200  136.3700  166.5500 O.2       2 ALA2        0.0000 
     16 N         229.4000  137.5800  168.3600 N.am      2 ALA2        0.0000 
     17 N         229.3000  139.2700  169.6300 N.am      2 ALA2        0.0000 
     18 N         229.8600  137.8900  169.7500 N.am      2 ALA2        0.0000 
     19 N         228.5400  137.4000  170.2900 N.am      2 ALA2        0.0000 
     20 N         231.6300  138.6800  170.6100 N.am      2 ALA2        0.0000 
     21 N         232.1900  137.2900  170.7400 N.am      2 ALA2        0.0000 
     22 N         230.8700  136.8100  171.2700 N.am      2 ALA2        0.0000 
     23 N         229.5600  136.3200  171.8100 N.am      2 ALA2        0.0000 
     24 N         235.9400  135.4800  169.9100 N.am      2 ALA2        0.0000 
     25 N         234.6200  135.0000  170.4400 N.am      2 ALA2        0.0000 
     26 N         232.6400  137.6000  172.1300 N.am      2 ALA2        0.0000 
     27 CZ        237.6500  135.8400  166.0400 C.ar      3 PHE5        0.0000 
     28 CZ        238.2100  134.4500  166.1700 C.ar      3 PHE5        0.0000 
     29 CZ        237.5500  137.5300  167.3200 C.ar      3 PHE5        0.0000 
     30 CZ        236.8000  135.6600  167.9800 C.ar      3 PHE5        0.0000 
     31 CA        233.1000  135.3400  162.8100 C.3       4 GLY6        0.0000 
     32 CA        234.8700  136.1300  163.6700 C.3       4 GLY6        0.0000 
     33 CA        233.5500  135.6400  164.2000 C.3       4 GLY6        0.0000 
     34 CA        235.4300  134.7400  163.7900 C.3       4 GLY6        0.0000 
     35 CA        231.5800  138.2400  165.8900 C.3       4 GLY6        0.0000 
     36 CA        236.6400  136.9200  164.5300 C.3       4 GLY6        0.0000 
     37 CA        238.5100  136.0200  164.1100 C.3       4 GLY6        0.0000 
     38 CA        237.2000  135.5300  164.6500 C.3       4 GLY6        0.0000 
     39 CA        239.0700  134.6300  164.2300 C.3       4 GLY6        0.0000 
     40 CA        237.7600  134.1500  164.7700 C.3       4 GLY6        0.0000 
     41 CA        232.0300  138.5500  167.2900 C.3       4 GLY6        0.0000 
     42 CA        230.7200  138.0600  167.8200 C.3       4 GLY6        0.0000 
     43 CA        229.9600  136.1900  168.4800 C.3       4 GLY6        0.0000 
     44 CA        228.6500  135.7100  169.0200 C.3       4 GLY6        0.0000 
     45 CA        237.1000  137.2300  165.9200 C.3       4 GLY6        0.0000 
     46 CA        236.9900  138.9200  167.2000 C.3       4 GLY6        0.0000 
     47 CA        235.6800  138.4300  167.7300 C.3       4 GLY6        0.0000 
     48 CA        234.3600  137.9500  168.2700 C.3       4 GLY6        0.0000 
     49 CA        234.8200  138.2600  169.6600 C.3       4 GLY6        0.0000 
     50 CA        233.5000  137.7700  170.2000 C.3       4 GLY6        0.0000 
     51 CA        235.3800  136.8700  169.7900 C.3       4 GLY6        0.0000 
     52 CA        232.7500  135.9000  170.8600 C.3       4 GLY6        0.0000 
     53 CA        231.4300  135.4200  171.3900 C.3       4 GLY6        0.0000 
     54 CA        233.3100  134.5200  170.9800 C.3       4 GLY6        0.0000 
     55 CA        233.4000  139.4700  171.4700 C.3       4 GLY6        0.0000 
     56 CA        233.9600  138.0800  171.6000 C.3       4 GLY6        0.0000 
     57 CA        234.5200  136.6900  171.7200 C.3       4 GLY6        0.0000 
     58 CA        233.2000  136.2100  172.2500 C.3       4 GLY6        0.0000 
     59 CA        235.0800  135.3100  171.8400 C.3       4 GLY6        0.0000 
     60 DU        235.3200  136.4300  165.0600 H         5 CUB7        0.0000 
     61 DU        234.0100  135.9500  165.6000 H         5 CUB7        0.0000 
     62 DU        232.6900  135.4700  166.1300 H         5 CUB7        0.0000 
     63 DU        235.8800  135.0500  165.1800 H         5 CUB7        0.0000 
     64 DU        232.5900  137.1600  167.4100 H         5 CUB7        0.0000 
     65 DU        231.2800  136.6800  167.9400 H         5 CUB7        0.0000 
     66 DU        235.7800  136.7400  166.4600 H         5 CUB7        0.0000 
     67 DU        234.4700  136.2600  166.9900 H         5 CUB7        0.0000 
     68 DU        236.3400  135.3600  166.5800 H         5 CUB7        0.0000 
     69 DU        231.7300  136.9800  169.3400 H         5 CUB7        0.0000 
     70 DU        230.4200  136.5000  169.8800 H         5 CUB7        0.0000 
     71 DU        229.1000  136.0200  170.4100 H         5 CUB7        0.0000 
     72 DU        234.9200  136.5600  168.3900 H         5 CUB7        0.0000 
     73 DU        234.0600  136.3900  170.3200 H         5 CUB7        0.0000 
@<TRIPOS>BOND
@<TRIPOS>SUBSTRUCTURE
     1 SER1        1 GROUP   
     2 ALA2       14 GROUP   
     3 PHE5       27 GROUP   
     4 GLY6       31 GROUP   
     5 CUB7       60 GROUP   
@<TRIPOS>SET

