#    Name: 6pz9_1_ATP
#    Modification time : Fri May 22 19:25:39 2020

@<TRIPOS>MOLECULE
6pz9_1_ATP
   31    33     1     0     1
SMALL
NO_CHARGES


@<TRIPOS>ATOM
      1 PG        232.9000  131.2840  159.8580 P.3       1 ATP1602     0.0000 
      2 O1G       233.1530  129.8680  159.4210 O.co2     1 ATP1602     0.0000 
      3 O2G       231.7050  131.9560  159.2340 O.co2     1 ATP1602     0.0000 
      4 O3G       233.0810  131.4620  161.3440 O.co2     1 ATP1602     0.0000 
      5 PB        234.7060  131.8030  157.8030 P.3       1 ATP1602     0.0000 
      6 O1B       234.4420  130.3670  157.4560 O.co2     1 ATP1602     0.0000 
      7 O2B       234.3240  132.9000  156.8500 O.co2     1 ATP1602     0.0000 
      8 O3B       234.1400  132.1090  159.2670 O.3       1 ATP1602     0.0000 
      9 PA        236.8060  131.0500  159.3540 P.3       1 ATP1602     0.0000 
     10 O1A       238.2080  130.6790  158.9820 O.co2     1 ATP1602     0.0000 
     11 O2A       235.8360  129.9390  159.6470 O.co2     1 ATP1602     0.0000 
     12 O3A       236.2440  131.9710  158.1710 O.3       1 ATP1602     0.0000 
     13 O5'       236.7620  131.9860  160.6590 O.3       1 ATP1602     0.0000 
     14 C5'       237.7280  131.9250  161.7070 C.3       1 ATP1602     0.0000 
     15 C4'       238.0290  130.5110  162.1840 C.3       1 ATP1602     0.0000 
     16 O4'       239.0080  130.5810  163.2190 O.3       1 ATP1602     0.0000 
     17 C3'       236.8260  129.7770  162.7410 C.3       1 ATP1602     0.0000 
     18 O3'       236.5800  128.6410  161.9120 O.3       1 ATP1602     0.0000 
     19 C2'       237.1970  129.3280  164.1280 C.3       1 ATP1602     0.0000 
     20 O2'       237.3080  127.9050  164.1120 O.3       1 ATP1602     0.0000 
     21 C1'       238.5590  129.9230  164.4000 C.3       1 ATP1602     0.0000 
     22 N9        238.3930  130.9250  165.4690 N.pl3     1 ATP1602     0.0000 
     23 C8        237.5110  131.9370  165.4920 C.2       1 ATP1602     0.0000 
     24 N7        237.6320  132.6720  166.6230 N.2       1 ATP1602     0.0000 
     25 C5        238.6150  132.1140  167.3360 C.ar      1 ATP1602     0.0000 
     26 C6        239.2680  132.3740  168.6250 C.ar      1 ATP1602     0.0000 
     27 N6        238.8810  133.4030  169.4060 N.pl3     1 ATP1602     0.0000 
     28 N1        240.2590  131.5420  168.9990 N.ar      1 ATP1602     0.0000 
     29 C2        240.6560  130.5080  168.2390 C.ar      1 ATP1602     0.0000 
     30 N3        240.1130  130.2180  167.0540 N.ar      1 ATP1602     0.0000 
     31 C4        239.1130  130.9720  166.5690 C.ar      1 ATP1602     0.0000 
@<TRIPOS>BOND
     1    1    2 ar   
     2    1    3 ar   
     3    1    4 ar   
     4    1    8 1    
     5    5    6 ar   
     6    5    7 ar   
     7    5    8 1    
     8    5   12 1    
     9    9   10 ar   
    10    9   11 ar   
    11    9   12 1    
    12    9   13 1    
    13   13   14 1    
    14   14   15 1    
    15   15   16 1    
    16   15   17 1    
    17   16   21 1    
    18   17   18 1    
    19   17   19 1    
    20   19   20 1    
    21   19   21 1    
    22   21   22 1    
    23   22   23 1    
    24   22   31 1    
    25   23   24 2    
    26   24   25 1    
    27   25   26 ar   
    28   25   31 ar   
    29   26   27 1    
    30   26   28 ar   
    31   28   29 ar   
    32   29   30 ar   
    33   30   31 ar   
@<TRIPOS>SUBSTRUCTURE
     1 ATP1602     1 GROUP   
@<TRIPOS>SET
ATOM$ORANGE STATIC     ATOMS   COLORGROUP SYSTEM 
20 14 14 15 15 17 17 19 19 21 21 23 23 25 25 26 26 29 \
29 31 31 

