#    Name: 6pz9_1_ATP_CAVITY_N1_4
#    Modification time : Fri May 22 19:25:41 2020

@<TRIPOS>MOLECULE
6pz9_1_ATP_CAVITY_N1_4
   10     0     4     0     0
SMALL
NO_CHARGES


@<TRIPOS>ATOM
      1 N         235.9400  135.4800  169.9100 N.am      1 ALA2        0.0000 
      2 CZ        237.6500  135.8400  166.0400 C.ar      2 PHE5        0.0000 
      3 CZ        238.2100  134.4500  166.1700 C.ar      2 PHE5        0.0000 
      4 CZ        236.8000  135.6600  167.9800 C.ar      2 PHE5        0.0000 
      5 CA        235.4300  134.7400  163.7900 C.3       3 GLY6        0.0000 
      6 CA        237.2000  135.5300  164.6500 C.3       3 GLY6        0.0000 
      7 CA        239.0700  134.6300  164.2300 C.3       3 GLY6        0.0000 
      8 CA        237.7600  134.1500  164.7700 C.3       3 GLY6        0.0000 
      9 DU        235.8800  135.0500  165.1800 H         4 CUB7        0.0000 
     10 DU        236.3400  135.3600  166.5800 H         4 CUB7        0.0000 
@<TRIPOS>BOND
@<TRIPOS>SUBSTRUCTURE
     1 ALA2        1 GROUP   
     2 PHE5        2 GROUP   
     3 GLY6        5 GROUP   
     4 CUB7        9 GROUP   
@<TRIPOS>SET

