#    Name: 6pz9_1_ATP_CAVITY_N1_6
#    Modification time : Fri May 22 19:25:41 2020

@<TRIPOS>MOLECULE
6pz9_1_ATP_CAVITY_N1_6
   31     0     5     0     0
SMALL
NO_CHARGES


@<TRIPOS>ATOM
      1 OG        235.2200  138.1300  166.3400 O.3       1 SER1        0.0000 
      2 OG        236.2400  137.0500  167.8500 O.3       1 SER1        0.0000 
      3 N         235.9400  135.4800  169.9100 N.am      2 ALA2        0.0000 
      4 N         234.6200  135.0000  170.4400 N.am      2 ALA2        0.0000 
      5 CZ        237.6500  135.8400  166.0400 C.ar      3 PHE5        0.0000 
      6 CZ        238.2100  134.4500  166.1700 C.ar      3 PHE5        0.0000 
      7 CZ        237.5500  137.5300  167.3200 C.ar      3 PHE5        0.0000 
      8 CZ        236.8000  135.6600  167.9800 C.ar      3 PHE5        0.0000 
      9 CA        233.1000  135.3400  162.8100 C.3       4 GLY6        0.0000 
     10 CA        234.8700  136.1300  163.6700 C.3       4 GLY6        0.0000 
     11 CA        233.5500  135.6400  164.2000 C.3       4 GLY6        0.0000 
     12 CA        235.4300  134.7400  163.7900 C.3       4 GLY6        0.0000 
     13 CA        236.6400  136.9200  164.5300 C.3       4 GLY6        0.0000 
     14 CA        238.5100  136.0200  164.1100 C.3       4 GLY6        0.0000 
     15 CA        237.2000  135.5300  164.6500 C.3       4 GLY6        0.0000 
     16 CA        239.0700  134.6300  164.2300 C.3       4 GLY6        0.0000 
     17 CA        237.7600  134.1500  164.7700 C.3       4 GLY6        0.0000 
     18 CA        237.1000  137.2300  165.9200 C.3       4 GLY6        0.0000 
     19 CA        235.3800  136.8700  169.7900 C.3       4 GLY6        0.0000 
     20 CA        233.3100  134.5200  170.9800 C.3       4 GLY6        0.0000 
     21 CA        234.5200  136.6900  171.7200 C.3       4 GLY6        0.0000 
     22 CA        235.0800  135.3100  171.8400 C.3       4 GLY6        0.0000 
     23 DU        235.3200  136.4300  165.0600 H         5 CUB7        0.0000 
     24 DU        234.0100  135.9500  165.6000 H         5 CUB7        0.0000 
     25 DU        232.6900  135.4700  166.1300 H         5 CUB7        0.0000 
     26 DU        235.8800  135.0500  165.1800 H         5 CUB7        0.0000 
     27 DU        235.7800  136.7400  166.4600 H         5 CUB7        0.0000 
     28 DU        234.4700  136.2600  166.9900 H         5 CUB7        0.0000 
     29 DU        236.3400  135.3600  166.5800 H         5 CUB7        0.0000 
     30 DU        234.9200  136.5600  168.3900 H         5 CUB7        0.0000 
     31 DU        234.0600  136.3900  170.3200 H         5 CUB7        0.0000 
@<TRIPOS>BOND
@<TRIPOS>SUBSTRUCTURE
     1 SER1        1 GROUP   
     2 ALA2        3 GROUP   
     3 PHE5        5 GROUP   
     4 GLY6        9 GROUP   
     5 CUB7       23 GROUP   
@<TRIPOS>SET

