#    Name: 6rk7_8_SAM
#    Modification time : Fri May 22 19:26:31 2020

@<TRIPOS>MOLECULE
6rk7_8_SAM
   27    29     1     0     0
SMALL
NO_CHARGES


@<TRIPOS>ATOM
      1 N           2.9350  -29.3590  -13.0870 N.4       1 SAM402      0.0000 
      2 CA          3.4890  -28.5500  -14.1230 C.3       1 SAM402      0.0000 
      3 C           2.6640  -27.2540  -14.0320 C.2       1 SAM402      0.0000 
      4 O           1.6890  -27.0840  -13.2920 O.co2     1 SAM402      0.0000 
      5 OXT         2.8520  -26.2550  -14.7180 O.co2     1 SAM402      0.0000 
      6 CB          3.3170  -29.6080  -15.2560 C.3       1 SAM402      0.0000 
      7 CG          2.8880  -28.9460  -16.5480 C.3       1 SAM402      0.0000 
      8 SD          1.9880  -29.6670  -17.8290 S.3       1 SAM402      0.0000 
      9 CE          2.9910  -31.0390  -18.0570 C.3       1 SAM402      0.0000 
     10 C5'         2.2710  -28.1370  -18.6970 C.3       1 SAM402      0.0000 
     11 C4'         1.9760  -28.1810  -20.1680 C.3       1 SAM402      0.0000 
     12 O4'         2.5350  -29.3430  -20.6930 O.3       1 SAM402      0.0000 
     13 C3'         0.4840  -28.3810  -20.4080 C.3       1 SAM402      0.0000 
     14 O3'        -0.2570  -27.2180  -20.1420 O.3       1 SAM402      0.0000 
     15 C2'         0.4820  -28.9640  -21.8040 C.3       1 SAM402      0.0000 
     16 O2'         0.3610  -28.0160  -22.7250 O.3       1 SAM402      0.0000 
     17 C1'         1.8750  -29.5830  -21.9330 C.3       1 SAM402      0.0000 
     18 N9          1.9000  -31.0560  -22.1170 N.pl3     1 SAM402      0.0000 
     19 C8          2.6180  -31.7260  -23.0570 C.2       1 SAM402      0.0000 
     20 N7          2.4750  -33.0710  -22.9370 N.2       1 SAM402      0.0000 
     21 C5          1.6970  -33.1560  -21.7820 C.ar      1 SAM402      0.0000 
     22 C6          1.2040  -34.2590  -21.0160 C.ar      1 SAM402      0.0000 
     23 N6          1.5130  -35.4180  -21.4350 N.pl3     1 SAM402      0.0000 
     24 N1          0.4040  -34.1220  -19.9180 N.ar      1 SAM402      0.0000 
     25 C2          0.1640  -32.8220  -19.5770 C.ar      1 SAM402      0.0000 
     26 N3          0.5940  -31.7250  -20.2320 N.ar      1 SAM402      0.0000 
     27 C4          1.3390  -31.8750  -21.3310 C.ar      1 SAM402      0.0000 
@<TRIPOS>BOND
     1    1    2 1    
     2    2    3 1    
     3    2    6 1    
     4    3    4 ar   
     5    3    5 ar   
     6    6    7 1    
     7    7    8 1    
     8    8    9 1    
     9    8   10 1    
    10   10   11 1    
    11   11   12 1    
    12   11   13 1    
    13   12   17 1    
    14   13   14 1    
    15   13   15 1    
    16   15   16 1    
    17   15   17 1    
    18   17   18 1    
    19   18   19 1    
    20   18   27 1    
    21   19   20 2    
    22   20   21 1    
    23   21   22 ar   
    24   21   27 ar   
    25   22   23 1    
    26   22   24 ar   
    27   24   25 ar   
    28   25   26 ar   
    29   26   27 ar   
@<TRIPOS>SUBSTRUCTURE
     1 SAM402      1 GROUP   
@<TRIPOS>SET

