#    Name: 6u2x_5_NAD
#    Modification time : Fri May 22 19:32:33 2020

@<TRIPOS>MOLECULE
6u2x_5_NAD
   27    29     1     0     1
SMALL
NO_CHARGES


@<TRIPOS>ATOM
      1 PA         23.6230   86.4780   32.4440 P.3       1 NAD601      0.0000 
      2 O1A        23.2470   85.0250   32.1740 O.co2     1 NAD601      0.0000 
      3 O2A        24.9570   86.5620   33.1430 O.co2     1 NAD601      0.0000 
      4 O5B        23.6160   87.3000   31.0440 O.3       1 NAD601      0.0000 
      5 C5B        24.3010   88.5480   30.9170 C.3       1 NAD601      0.0000 
      6 C4B        25.1820   88.4680   29.6360 C.3       1 NAD601      0.0000 
      7 O4B        26.1730   87.6360   29.8310 O.3       1 NAD601      0.0000 
      8 C3B        24.3710   87.9120   28.4600 C.3       1 NAD601      0.0000 
      9 O3B        24.6920   88.5950   27.3410 O.3       1 NAD601      0.0000 
     10 C2B        24.8730   86.4610   28.3240 C.3       1 NAD601      0.0000 
     11 O2B        24.6340   85.9330   26.9420 O.3       1 NAD601      0.0000 
     12 C1B        26.1270   86.6020   28.5910 C.3       1 NAD601      0.0000 
     13 N9A        26.7430   85.3950   29.0030 N.pl3     1 NAD601      0.0000 
     14 C8A        26.1590   84.2840   29.5050 C.2       1 NAD601      0.0000 
     15 N7A        27.1520   83.3880   29.7720 N.2       1 NAD601      0.0000 
     16 C5A        28.3440   83.9640   29.4400 C.ar      1 NAD601      0.0000 
     17 C6A        29.6490   83.5110   29.5100 C.ar      1 NAD601      0.0000 
     18 N6A        30.0440   82.2240   29.9840 N.pl3     1 NAD601      0.0000 
     19 N1A        30.6660   84.2960   29.1180 N.ar      1 NAD601      0.0000 
     20 C2A        30.3960   85.5490   28.6470 C.ar      1 NAD601      0.0000 
     21 N3A        29.1080   85.9990   28.5710 N.ar      1 NAD601      0.0000 
     22 C4A        28.0890   85.1970   28.9650 C.ar      1 NAD601      0.0000 
     23 O3         22.5750   87.1860   33.4190 O.3       1 NAD601      0.0000 
     24 PN         21.0400   87.4520   33.0460 P.3       1 NAD601      0.0000 
     25 O1N        20.9520   88.4000   31.8490 O.3       1 NAD601      0.0000 
     26 O2N        20.3820   86.1130   32.7230 O.co2     1 NAD601      0.0000 
     27 O5D        20.3680   88.0980   34.3460 O.co2     1 NAD601      0.0000 
@<TRIPOS>BOND
     1    1    2 ar   
     2    1    3 ar   
     3    1    4 1    
     4    1   23 1    
     5    4    5 1    
     6    5    6 1    
     7    6    7 1    
     8    6    8 1    
     9    7   12 1    
    10    8    9 1    
    11    8   10 1    
    12   10   11 1    
    13   10   12 1    
    14   12   13 1    
    15   13   14 1    
    16   13   22 1    
    17   14   15 2    
    18   15   16 1    
    19   16   17 ar   
    20   16   22 ar   
    21   17   18 1    
    22   17   19 ar   
    23   19   20 ar   
    24   20   21 ar   
    25   21   22 ar   
    26   23   24 1    
    27   24   25 1    
    28   24   26 ar   
    29   24   27 ar   
@<TRIPOS>SUBSTRUCTURE
     1 NAD601      1 GROUP   
@<TRIPOS>SET
ATOM$ORANGE STATIC     ATOMS   COLORGROUP SYSTEM 
20 5 5 6 6 8 8 10 10 12 12 14 14 16 16 17 17 20 \
20 22 22 

