#    Name: 6u2x_8_NAD
#    Modification time : Fri May 22 19:32:42 2020

@<TRIPOS>MOLECULE
6u2x_8_NAD
   27    29     1     0     1
SMALL
NO_CHARGES


@<TRIPOS>ATOM
      1 PA         43.9340  149.5430   56.9810 P.3       1 NAD601      0.0000 
      2 O1A        43.1910  149.5930   55.6640 O.co2     1 NAD601      0.0000 
      3 O2A        43.9940  150.9230   57.6070 O.co2     1 NAD601      0.0000 
      4 O5B        45.4530  149.0300   56.7360 O.3       1 NAD601      0.0000 
      5 C5B        45.6970  147.6660   56.4090 C.3       1 NAD601      0.0000 
      6 C4B        47.0670  147.6000   55.6780 C.3       1 NAD601      0.0000 
      7 O4B        47.0120  148.3430   54.6040 O.3       1 NAD601      0.0000 
      8 C3B        48.1680  148.1850   56.5630 C.3       1 NAD601      0.0000 
      9 O3B        49.3070  147.4460   56.4500 O.3       1 NAD601      0.0000 
     10 C2B        48.3410  149.6150   55.9890 C.3       1 NAD601      0.0000 
     11 O2B        49.6790  150.1960   56.2850 O.3       1 NAD601      0.0000 
     12 C1B        48.1560  149.4730   54.7200 C.3       1 NAD601      0.0000 
     13 N9A        47.6910  150.6860   54.1650 N.pl3     1 NAD601      0.0000 
     14 C8A        47.1400  151.7170   54.8400 C.2       1 NAD601      0.0000 
     15 N7A        46.8320  152.6910   53.9550 N.2       1 NAD601      0.0000 
     16 C5A        47.1960  152.2610   52.7230 C.ar      1 NAD601      0.0000 
     17 C6A        47.0980  152.8550   51.4790 C.ar      1 NAD601      0.0000 
     18 N6A        46.5500  154.1540   51.2050 N.pl3     1 NAD601      0.0000 
     19 N1A        47.5360  152.1980   50.4010 N.ar      1 NAD601      0.0000 
     20 C2A        48.0670  150.9480   50.5410 C.ar      1 NAD601      0.0000 
     21 N3A        48.1670  150.3530   51.7600 N.ar      1 NAD601      0.0000 
     22 C4A        47.7260  151.0210   52.8550 C.ar      1 NAD601      0.0000 
     23 O3         43.1530  148.5140   57.9510 O.3       1 NAD601      0.0000 
     24 PN         43.2000  148.4620   59.5600 P.3       1 NAD601      0.0000 
     25 O1N        44.4970  147.8000   59.9910 O.3       1 NAD601      0.0000 
     26 O2N        43.1130  149.8580   60.1600 O.co2     1 NAD601      0.0000 
     27 O5D        41.9590  147.6000   60.0590 O.co2     1 NAD601      0.0000 
@<TRIPOS>BOND
     1    1    2 ar   
     2    1    3 ar   
     3    1    4 1    
     4    1   23 1    
     5    4    5 1    
     6    5    6 1    
     7    6    7 1    
     8    6    8 1    
     9    7   12 1    
    10    8    9 1    
    11    8   10 1    
    12   10   11 1    
    13   10   12 1    
    14   12   13 1    
    15   13   14 1    
    16   13   22 1    
    17   14   15 2    
    18   15   16 1    
    19   16   17 ar   
    20   16   22 ar   
    21   17   18 1    
    22   17   19 ar   
    23   19   20 ar   
    24   20   21 ar   
    25   21   22 ar   
    26   23   24 1    
    27   24   25 1    
    28   24   26 ar   
    29   24   27 ar   
@<TRIPOS>SUBSTRUCTURE
     1 NAD601      1 GROUP   
@<TRIPOS>SET
ATOM$ORANGE STATIC     ATOMS   COLORGROUP SYSTEM 
20 5 5 6 6 8 8 10 10 12 12 14 14 16 16 17 17 20 \
20 22 22 

