#    Name: 6u2x_6_NAD
#    Modification time : Fri May 22 19:32:37 2020

@<TRIPOS>MOLECULE
6u2x_6_NAD
   27    29     1     0     1
SMALL
NO_CHARGES


@<TRIPOS>ATOM
      1 PA         58.8630   87.1430   43.3940 P.3       1 NAD601      0.0000 
      2 O1A        57.5960   87.0290   42.5810 O.co2     1 NAD601      0.0000 
      3 O2A        59.5060   85.7830   43.6260 O.co2     1 NAD601      0.0000 
      4 O5B        58.5180   87.7310   44.8690 O.3       1 NAD601      0.0000 
      5 C5B        58.1480   89.0910   45.0390 C.3       1 NAD601      0.0000 
      6 C4B        57.2870   89.1090   46.3300 C.3       1 NAD601      0.0000 
      7 O4B        56.2790   88.2840   46.1740 O.3       1 NAD601      0.0000 
      8 C3B        58.1030   88.5800   47.5120 C.3       1 NAD601      0.0000 
      9 O3B        57.7760   89.2750   48.6290 O.3       1 NAD601      0.0000 
     10 C2B        57.6190   87.1250   47.6610 C.3       1 NAD601      0.0000 
     11 O2B        57.8510   86.6720   49.0630 O.3       1 NAD601      0.0000 
     12 C1B        56.3550   87.2130   47.3640 C.3       1 NAD601      0.0000 
     13 N9A        55.8490   85.9880   46.8840 N.pl3     1 NAD601      0.0000 
     14 C8A        56.5670   84.9610   46.3670 C.2       1 NAD601      0.0000 
     15 N7A        55.6970   83.9700   46.0350 N.2       1 NAD601      0.0000 
     16 C5A        54.4470   84.4000   46.3480 C.ar      1 NAD601      0.0000 
     17 C6A        53.2120   83.7910   46.2150 C.ar      1 NAD601      0.0000 
     18 N6A        53.0280   82.4780   45.6750 N.pl3     1 NAD601      0.0000 
     19 N1A        52.0930   84.4310   46.6040 N.ar      1 NAD601      0.0000 
     20 C2A        52.1840   85.6850   47.1240 C.ar      1 NAD601      0.0000 
     21 N3A        53.3990   86.2920   47.2700 N.ar      1 NAD601      0.0000 
     22 C4A        54.5340   85.6390   46.8790 C.ar      1 NAD601      0.0000 
     23 O3         59.7830   88.2050   42.6270 O.3       1 NAD601      0.0000 
     24 PN         61.3800   88.1630   42.4670 P.3       1 NAD601      0.0000 
     25 O1N        61.7900   88.1510   40.9200 O.3       1 NAD601      0.0000 
     26 O2N        61.9120   89.4210   43.1240 O.co2     1 NAD601      0.0000 
     27 O5D        61.9150   86.9180   43.1720 O.co2     1 NAD601      0.0000 
@<TRIPOS>BOND
     1    1    2 ar   
     2    1    3 ar   
     3    1    4 1    
     4    1   23 1    
     5    4    5 1    
     6    5    6 1    
     7    6    7 1    
     8    6    8 1    
     9    7   12 1    
    10    8    9 1    
    11    8   10 1    
    12   10   11 1    
    13   10   12 1    
    14   12   13 1    
    15   13   14 1    
    16   13   22 1    
    17   14   15 2    
    18   15   16 1    
    19   16   17 ar   
    20   16   22 ar   
    21   17   18 1    
    22   17   19 ar   
    23   19   20 ar   
    24   20   21 ar   
    25   21   22 ar   
    26   23   24 1    
    27   24   25 1    
    28   24   26 ar   
    29   24   27 ar   
@<TRIPOS>SUBSTRUCTURE
     1 NAD601      1 GROUP   
@<TRIPOS>SET
ATOM$ORANGE STATIC     ATOMS   COLORGROUP SYSTEM 
20 5 5 6 6 8 8 10 10 12 12 14 14 16 16 17 17 20 \
20 22 22 

