#    Name: 6mvf_1_FMN
#    Modification time : Fri May 22 19:26:10 2020

@<TRIPOS>MOLECULE
6mvf_1_FMN
   31    33     1     0     1
SMALL
NO_CHARGES


@<TRIPOS>ATOM
      1 N1        100.0350   33.4570   82.7420 N.2       1 FMN801      0.0000 
      2 C2        100.8550   34.4050   82.2820 C.2       1 FMN801      0.0000 
      3 O2        101.7050   34.9240   83.0080 O.2       1 FMN801      0.0000 
      4 N3        100.8270   34.8300   81.0380 N.am      1 FMN801      0.0000 
      5 C4         99.9890   34.3800   80.1570 C.2       1 FMN801      0.0000 
      6 O4         99.9700   34.7800   79.0040 O.2       1 FMN801      0.0000 
      7 C4A        99.0720   33.3790   80.5810 C.2       1 FMN801      0.0000 
      8 N5         98.2390   32.9140   79.6940 N.2       1 FMN801      0.0000 
      9 C5A        97.3630   31.9840   80.0150 C.ar      1 FMN801      0.0000 
     10 C6         96.4970   31.5240   79.0570 C.ar      1 FMN801      0.0000 
     11 C7         95.5860   30.5780   79.3650 C.ar      1 FMN801      0.0000 
     12 C7M        94.6590   30.0850   78.3240 C.3       1 FMN801      0.0000 
     13 C8         95.5470   30.0330   80.7160 C.ar      1 FMN801      0.0000 
     14 C8M        94.5590   28.9750   81.0590 C.3       1 FMN801      0.0000 
     15 C9         96.4180   30.5010   81.6750 C.ar      1 FMN801      0.0000 
     16 C9A        97.3280   31.4690   81.3780 C.ar      1 FMN801      0.0000 
     17 N10        98.2270   31.9200   82.3320 N.pl3     1 FMN801      0.0000 
     18 C10        99.1290   32.9110   81.9500 C.2       1 FMN801      0.0000 
     19 C1'        98.0870   31.3690   83.6730 C.3       1 FMN801      0.0000 
     20 C2'        99.1500   30.5200   84.3280 C.3       1 FMN801      0.0000 
     21 O2'        98.8050   29.2350   83.8780 O.3       1 FMN801      0.0000 
     22 C3'        99.0290   30.4710   85.8350 C.3       1 FMN801      0.0000 
     23 O3'        98.2640   31.5690   86.2820 O.3       1 FMN801      0.0000 
     24 C4'       100.3420   30.5800   86.5770 C.3       1 FMN801      0.0000 
     25 O4'       101.0860   31.5940   85.9190 O.3       1 FMN801      0.0000 
     26 C5'       101.1270   29.2710   86.6740 C.3       1 FMN801      0.0000 
     27 O5'       102.1150   29.1820   85.6630 O.3       1 FMN801      0.0000 
     28 P         102.8590   27.8400   85.2680 P.3       1 FMN801      0.0000 
     29 O1P       104.1820   28.3400   84.8450 O.co2     1 FMN801      0.0000 
     30 O2P       102.8390   27.0030   86.5130 O.co2     1 FMN801      0.0000 
     31 O3P       102.1140   27.1530   84.1740 O.co2     1 FMN801      0.0000 
@<TRIPOS>BOND
     1    1    2 1    
     2    1   18 2    
     3    2    3 2    
     4    2    4 am   
     5    4    5 am   
     6    5    6 2    
     7    5    7 1    
     8    7    8 2    
     9    7   18 1    
    10    8    9 1    
    11    9   10 ar   
    12    9   16 ar   
    13   10   11 ar   
    14   11   12 1    
    15   11   13 ar   
    16   13   14 1    
    17   13   15 ar   
    18   15   16 ar   
    19   16   17 1    
    20   17   18 1    
    21   17   19 1    
    22   19   20 1    
    23   20   21 1    
    24   20   22 1    
    25   22   23 1    
    26   22   24 1    
    27   24   25 1    
    28   24   26 1    
    29   26   27 1    
    30   27   28 1    
    31   28   29 ar   
    32   28   30 ar   
    33   28   31 ar   
@<TRIPOS>SUBSTRUCTURE
     1 FMN801      1 GROUP   
@<TRIPOS>SET
ATOM$ORANGE STATIC     ATOMS   COLORGROUP SYSTEM 
34 2 2 5 5 7 7 9 9 10 10 11 11 12 12 13 13 14 \
14 15 15 16 16 18 18 19 19 20 20 22 22 24 24 26 26 

