#    Name: 6bon_1_COA
#    Modification time : Fri May 22 19:27:22 2020

@<TRIPOS>MOLECULE
6bon_1_COA
   48    50     1     0     1
SMALL
NO_CHARGES


@<TRIPOS>ATOM
      1 N1A         9.4870  -11.8230   31.6990 N.ar      1 COA501      0.0000 
      2 C2A         9.7860  -11.9390   30.3950 C.ar      1 COA501      0.0000 
      3 N3A         9.1870  -11.2330   29.4250 N.ar      1 COA501      0.0000 
      4 C4A         8.2310  -10.3330   29.7240 C.ar      1 COA501      0.0000 
      5 C5A         7.8480  -10.1410   31.1250 C.ar      1 COA501      0.0000 
      6 C6A         8.5530  -10.9600   32.1260 C.ar      1 COA501      0.0000 
      7 N6A         8.2640  -10.8480   33.4290 N.pl3     1 COA501      0.0000 
      8 N7A         6.9050   -9.1940   31.1400 N.2       1 COA501      0.0000 
      9 C8A         6.6920   -8.8290   29.8560 C.2       1 COA501      0.0000 
     10 N9A         7.4860   -9.5060   29.0190 N.pl3     1 COA501      0.0000 
     11 C1B         7.5230   -9.3820   27.5550 C.3       1 COA501      0.0000 
     12 C2B         6.2170   -9.8550   26.9300 C.3       1 COA501      0.0000 
     13 O2B         6.0980  -11.2670   26.8010 O.3       1 COA501      0.0000 
     14 C3B         6.2740   -9.1580   25.6020 C.3       1 COA501      0.0000 
     15 O3B         7.1480   -9.9160   24.7890 O.3       1 COA501      0.0000 
     16 P3B         6.7580  -10.5110   23.3720 P.3       1 COA501      0.0000 
     17 O7A         8.1050  -10.9020   22.8260 O.co2     1 COA501      0.0000 
     18 O8A         5.8370  -11.6560   23.7000 O.co2     1 COA501      0.0000 
     19 O9A         6.0950   -9.3590   22.6740 O.co2     1 COA501      0.0000 
     20 C4B         6.9030   -7.8090   25.9350 C.3       1 COA501      0.0000 
     21 O4B         7.6410   -8.0240   27.1410 O.3       1 COA501      0.0000 
     22 C5B         5.8940   -6.6870   26.1570 C.3       1 COA501      0.0000 
     23 O5B         4.9490   -7.0680   27.1490 O.3       1 COA501      0.0000 
     24 P1A         4.3030   -6.1430   28.2950 P.3       1 COA501      0.0000 
     25 O1A         3.4300   -5.0930   27.6780 O.co2     1 COA501      0.0000 
     26 O2A         5.3220   -5.6980   29.2940 O.co2     1 COA501      0.0000 
     27 O3A         3.4480   -7.2560   29.0680 O.3       1 COA501      0.0000 
     28 P2A         1.8590   -7.4850   29.0690 P.3       1 COA501      0.0000 
     29 O4A         1.1920   -6.3350   29.7480 O.co2     1 COA501      0.0000 
     30 O5A         1.3660   -7.9310   27.7320 O.co2     1 COA501      0.0000 
     31 O6A         1.7550   -8.7420   30.0350 O.3       1 COA501      0.0000 
     32 CBP         2.3760   -9.9870   31.9760 C.3       1 COA501      0.0000 
     33 CCP         1.9500   -8.6320   31.4360 C.3       1 COA501      0.0000 
     34 CDP         2.1250   -9.9970   33.4580 C.3       1 COA501      0.0000 
     35 CEP         1.5360  -11.0720   31.3030 C.3       1 COA501      0.0000 
     36 CAP         3.8770  -10.1550   31.7300 C.3       1 COA501      0.0000 
     37 OAP         4.6240   -9.2460   32.5590 O.3       1 COA501      0.0000 
     38 C9P         4.4490  -11.5650   31.8150 C.2       1 COA501      0.0000 
     39 O9P         3.9480  -12.4550   31.1560 O.2       1 COA501      0.0000 
     40 N8P         5.3290  -11.9280   32.7260 N.am      1 COA501      0.0000 
     41 C7P         4.9320  -12.0600   34.1170 C.3       1 COA501      0.0000 
     42 C6P         4.4530  -13.4690   34.4510 C.3       1 COA501      0.0000 
     43 C5P         3.6690  -13.3160   35.7190 C.2       1 COA501      0.0000 
     44 O5P         4.2730  -13.0720   36.7460 O.2       1 COA501      0.0000 
     45 N4P         2.3500  -13.3080   35.6260 N.am      1 COA501      0.0000 
     46 C3P         1.5270  -12.7200   36.6660 C.3       1 COA501      0.0000 
     47 C2P         1.4340  -11.2200   36.4280 C.3       1 COA501      0.0000 
     48 S1P         0.6300  -10.4610   37.8410 S.3       1 COA501      0.0000 
@<TRIPOS>BOND
     1    1    2 ar   
     2    1    6 ar   
     3    2    3 ar   
     4    3    4 ar   
     5    4    5 ar   
     6    4   10 1    
     7    5    6 ar   
     8    5    8 1    
     9    6    7 1    
    10    8    9 2    
    11    9   10 1    
    12   10   11 1    
    13   11   12 1    
    14   11   21 1    
    15   12   13 1    
    16   12   14 1    
    17   14   15 1    
    18   14   20 1    
    19   15   16 1    
    20   16   17 ar   
    21   16   18 ar   
    22   16   19 ar   
    23   20   21 1    
    24   20   22 1    
    25   22   23 1    
    26   23   24 1    
    27   24   25 ar   
    28   24   26 ar   
    29   24   27 1    
    30   27   28 1    
    31   28   29 ar   
    32   28   30 ar   
    33   28   31 1    
    34   31   33 1    
    35   32   33 1    
    36   32   34 1    
    37   32   35 1    
    38   32   36 1    
    39   36   37 1    
    40   36   38 1    
    41   38   39 2    
    42   38   40 am   
    43   40   41 1    
    44   41   42 1    
    45   42   43 1    
    46   43   44 2    
    47   43   45 am   
    48   45   46 1    
    49   46   47 1    
    50   47   48 1    
@<TRIPOS>SUBSTRUCTURE
     1 COA501      1 GROUP   
@<TRIPOS>SET
ATOM$ORANGE STATIC     ATOMS   COLORGROUP SYSTEM 
42 2 2 4 4 5 5 6 6 9 9 11 11 12 12 14 14 20 \
20 22 22 32 32 33 33 34 34 35 35 36 36 38 38 41 41 42 \
42 43 43 46 46 47 47 

