#    Name: 6bs4_2_ADP
#    Modification time : Fri May 22 19:34:37 2020

@<TRIPOS>MOLECULE
6bs4_2_ADP
   39    41     1     0     1
SMALL
NO_CHARGES


@<TRIPOS>ATOM
      1 PB        -56.2330   45.8830   21.8750 P.3       1 ADP401      0.0000 
      2 O1B       -56.9010   46.4380   20.6950 O.co2     1 ADP401      0.0000 
      3 O2B       -54.9140   45.1460   21.5900 O.co2     1 ADP401      0.0000 
      4 O3B       -57.1270   44.9630   22.6990 O.co2     1 ADP401      0.0000 
      5 PA        -56.0230   47.5900   24.2920 P.3       1 ADP401      0.0000 
      6 O1A       -57.4430   47.8570   24.5980 O.co2     1 ADP401      0.0000 
      7 O2A       -55.3760   46.6200   25.2920 O.co2     1 ADP401      0.0000 
      8 O3A       -55.8060   47.1210   22.7840 O.3       1 ADP401      0.0000 
      9 O5'       -55.1920   48.9390   24.2880 O.3       1 ADP401      0.0000 
     10 C5'       -53.8300   49.0640   23.8410 C.3       1 ADP401      0.0000 
     11 C4'       -53.1480   50.0580   24.7470 C.3       1 ADP401      0.0000 
     12 O4'       -53.6220   51.3790   24.4090 O.3       1 ADP401      0.0000 
     13 C3'       -53.4360   49.8730   26.2380 C.3       1 ADP401      0.0000 
     14 O3'       -52.2740   50.1910   27.0040 O.3       1 ADP401      0.0000 
     15 C2'       -54.5460   50.8960   26.5070 C.3       1 ADP401      0.0000 
     16 O2'       -54.4480   51.3590   27.8560 O.3       1 ADP401      0.0000 
     17 C1'       -54.1380   52.0220   25.5610 C.3       1 ADP401      0.0000 
     18 N9        -55.2430   52.8810   25.1310 N.pl3     1 ADP401      0.0000 
     19 C8        -56.3820   52.4760   24.4800 C.2       1 ADP401      0.0000 
     20 N7        -57.1900   53.4590   24.1510 N.2       1 ADP401      0.0000 
     21 C5        -56.5360   54.5910   24.6150 C.ar      1 ADP401      0.0000 
     22 C6        -56.8760   55.9610   24.5860 C.ar      1 ADP401      0.0000 
     23 N6        -57.9750   56.4450   23.9770 N.pl3     1 ADP401      0.0000 
     24 N1        -56.0210   56.8340   25.1740 N.ar      1 ADP401      0.0000 
     25 C2        -54.9080   56.3590   25.7590 C.ar      1 ADP401      0.0000 
     26 N3        -54.4760   55.0920   25.8360 N.ar      1 ADP401      0.0000 
     27 C4        -55.3380   54.2510   25.2290 C.ar      1 ADP401      0.0000 
     28 H5'1      -53.8030   49.3730   22.7970 H         1 ADP401      0.0000 
     29 H5'2      -53.4240   48.0560   23.9110 H         1 ADP401      0.0000 
     30 H4'       -52.0830   50.0980   24.5230 H         1 ADP401      0.0000 
     31 H3'       -53.7380   48.8530   26.4730 H         1 ADP401      0.0000 
     32 HO3'      -52.4170   49.8050   27.9080 H         1 ADP401      0.0000 
     33 H2'       -55.5370   50.4970   26.2970 H         1 ADP401      0.0000 
     34 HO2'      -54.6750   50.5690   28.4130 H         1 ADP401      0.0000 
     35 H1'       -53.3520   52.6530   25.9740 H         1 ADP401      0.0000 
     36 H8        -56.5980   51.4330   24.2570 H         1 ADP401      0.0000 
     37 HN61      -58.1800   57.4400   23.9810 H         1 ADP401      0.0000 
     38 HN62      -58.6100   55.8070   23.5090 H         1 ADP401      0.0000 
     39 H2        -54.2860   57.1210   26.2240 H         1 ADP401      0.0000 
@<TRIPOS>BOND
     1    1    2 ar   
     2    1    3 ar   
     3    1    4 ar   
     4    1    8 1    
     5    5    6 ar   
     6    5    7 ar   
     7    5    8 1    
     8    5    9 1    
     9    9   10 1    
    10   10   11 1    
    11   10   28 1    
    12   10   29 1    
    13   11   12 1    
    14   11   13 1    
    15   11   30 1    
    16   12   17 1    
    17   13   14 1    
    18   13   15 1    
    19   13   31 1    
    20   14   32 1    
    21   15   16 1    
    22   15   17 1    
    23   15   33 1    
    24   16   34 1    
    25   17   18 1    
    26   17   35 1    
    27   18   19 1    
    28   18   27 1    
    29   19   20 2    
    30   19   36 1    
    31   20   21 1    
    32   21   22 ar   
    33   21   27 ar   
    34   22   23 1    
    35   22   24 ar   
    36   23   37 1    
    37   23   38 1    
    38   24   25 ar   
    39   25   26 ar   
    40   25   39 1    
    41   26   27 ar   
@<TRIPOS>SUBSTRUCTURE
     1 ADP401      1 GROUP   
@<TRIPOS>SET
ATOM$ORANGE STATIC     ATOMS   COLORGROUP SYSTEM 
20 10 10 11 11 13 13 15 15 17 17 19 19 21 21 22 22 25 \
25 27 27 

