#    Name: 6bs4_2_ADP_CAVITY_N1_4
#    Modification time : Fri May 22 19:34:38 2020

@<TRIPOS>MOLECULE
6bs4_2_ADP_CAVITY_N1_4
   73     0     6     0     0
SMALL
NO_CHARGES


@<TRIPOS>ATOM
      1 OG        -55.7300   47.6800   24.7600 O.3       1 SER1        0.0000 
      2 OG        -56.1500   49.7300   25.1400 O.3       1 SER1        0.0000 
      3 OG        -55.3400   50.9200   25.5400 O.3       1 SER1        0.0000 
      4 OG        -56.5800   51.7700   25.5100 O.3       1 SER1        0.0000 
      5 OG        -56.3300   52.0900   24.0700 O.3       1 SER1        0.0000 
      6 OG        -57.8200   52.6200   25.4800 O.3       1 SER1        0.0000 
      7 N         -53.1800   48.6600   22.3000 N.am      2 ALA2        0.0000 
      8 O         -54.4200   49.5100   22.2700 O.2       2 ALA2        0.0000 
      9 N         -50.8900   49.3200   21.2800 N.am      2 ALA2        0.0000 
     10 N         -52.3700   49.8600   22.7000 N.am      2 ALA2        0.0000 
     11 N         -52.1200   50.1700   21.2600 N.am      2 ALA2        0.0000 
     12 O         -56.0800   52.4000   22.6200 O.2       2 ALA2        0.0000 
     13 O         -57.5700   52.9400   24.0400 O.2       2 ALA2        0.0000 
     14 O         -54.7800   51.8000   27.3800 O.2       2 ALA2        0.0000 
     15 N         -57.9900   54.9800   24.4100 N.am      2 ALA2        0.0000 
     16 O         -53.9700   53.0000   27.7900 O.2       2 ALA2        0.0000 
     17 N         -57.1800   56.1800   24.8100 N.am      2 ALA2        0.0000 
     18 N         -52.9100   54.5100   26.7400 N.am      2 ALA2        0.0000 
     19 N         -54.1400   55.3600   26.7100 N.am      2 ALA2        0.0000 
     20 O         -55.1300   56.5200   25.2400 O.2       2 ALA2        0.0000 
     21 N         -52.1000   55.7100   27.1400 N.am      2 ALA2        0.0000 
     22 OD1       -53.8600   50.3900   24.1200 O.co2     3 ASP3        0.0000 
     23 OD1       -53.6100   50.7100   22.6800 O.co2     3 ASP3        0.0000 
     24 OD1       -55.0900   51.2400   24.0900 O.co2     3 ASP3        0.0000 
     25 OD1       -54.8500   51.5500   22.6500 O.co2     3 ASP3        0.0000 
     26 OD1       -51.8100   50.7400   24.5500 O.co2     3 ASP3        0.0000 
     27 OD1       -51.5600   51.0500   23.1000 O.co2     3 ASP3        0.0000 
     28 OD1       -51.3100   51.3700   21.6600 O.co2     3 ASP3        0.0000 
     29 OD1       -53.0500   51.5900   24.5200 O.co2     3 ASP3        0.0000 
     30 OD1       -54.2800   52.4300   24.4900 O.co2     3 ASP3        0.0000 
     31 OD1       -55.5200   53.2800   24.4700 O.co2     3 ASP3        0.0000 
     32 OD1       -53.7200   53.3100   26.3400 O.co2     3 ASP3        0.0000 
     33 OD1       -54.7100   54.4800   24.8700 O.co2     3 ASP3        0.0000 
     34 OD1       -53.9000   55.6700   25.2700 O.co2     3 ASP3        0.0000 
     35 OD1       -51.0400   57.2200   26.1000 O.co2     3 ASP3        0.0000 
     36 NZ        -50.3200   50.2000   23.1300 N.4       4 LYS4        0.0000 
     37 NZ        -52.3100   50.1100   27.4400 N.4       4 LYS4        0.0000 
     38 NZ        -52.0600   50.4200   25.9900 N.4       4 LYS4        0.0000 
     39 NZ        -53.5400   50.9500   27.4100 N.4       4 LYS4        0.0000 
     40 NZ        -53.2900   51.2700   25.9700 N.4       4 LYS4        0.0000 
     41 NZ        -51.2500   51.6200   26.3900 N.4       4 LYS4        0.0000 
     42 NZ        -52.4800   52.4700   26.3700 N.4       4 LYS4        0.0000 
     43 NZ        -51.6700   53.6600   26.7700 N.4       4 LYS4        0.0000 
     44 NZ        -50.8600   54.8600   27.1700 N.4       4 LYS4        0.0000 
     45 CA        -51.2700   46.0800   20.5100 C.3       5 GLY6        0.0000 
     46 CA        -54.0000   47.4700   21.9000 C.3       5 GLY6        0.0000 
     47 CA        -55.4800   48.0000   23.3200 C.3       5 GLY6        0.0000 
     48 CA        -51.9500   47.8100   22.3300 C.3       5 GLY6        0.0000 
     49 CA        -51.7000   48.1300   20.8800 C.3       5 GLY6        0.0000 
     50 CA        -55.1700   48.5600   26.6100 C.3       5 GLY6        0.0000 
     51 CA        -54.9200   48.8800   25.1600 C.3       5 GLY6        0.0000 
     52 CA        -54.6700   49.1900   23.7200 C.3       5 GLY6        0.0000 
     53 CA        -55.5900   50.6100   26.9800 C.3       5 GLY6        0.0000 
     54 CA        -55.7700   52.9700   25.9100 C.3       5 GLY6        0.0000 
     55 CA        -57.0000   53.8200   25.8900 C.3       5 GLY6        0.0000 
     56 CA        -56.7600   54.1300   24.4400 C.3       5 GLY6        0.0000 
     57 CA        -58.2400   54.6600   25.8600 C.3       5 GLY6        0.0000 
     58 CA        -54.9600   54.1600   26.3100 C.3       5 GLY6        0.0000 
     59 CA        -56.1900   55.0100   26.2900 C.3       5 GLY6        0.0000 
     60 CA        -55.9400   55.3300   24.8400 C.3       5 GLY6        0.0000 
     61 CA        -57.4300   55.8600   26.2600 C.3       5 GLY6        0.0000 
     62 CA        -53.1600   54.1900   28.1900 C.3       5 GLY6        0.0000 
     63 CA        -55.3800   56.2100   26.6900 C.3       5 GLY6        0.0000 
     64 DU        -54.2400   47.1500   23.3500 H         6 CUB7        0.0000 
     65 DU        -52.2000   47.5000   23.7700 H         6 CUB7        0.0000 
     66 DU        -53.4300   48.3500   23.7500 H         6 CUB7        0.0000 
     67 DU        -51.1400   49.0100   22.7300 H         6 CUB7        0.0000 
     68 DU        -53.1200   48.9100   27.0400 H         6 CUB7        0.0000 
     69 DU        -52.8700   49.2300   25.5900 H         6 CUB7        0.0000 
     70 DU        -52.6200   49.5400   24.1500 H         6 CUB7        0.0000 
     71 DU        -54.1100   50.0700   25.5700 H         6 CUB7        0.0000 
     72 DU        -50.5700   49.8900   24.5800 H         6 CUB7        0.0000 
     73 DU        -54.5300   52.1200   25.9400 H         6 CUB7        0.0000 
@<TRIPOS>BOND
@<TRIPOS>SUBSTRUCTURE
     1 SER1        1 GROUP   
     2 ALA2        7 GROUP   
     3 ASP3       22 GROUP   
     4 LYS4       36 GROUP   
     5 GLY6       45 GROUP   
     6 CUB7       64 GROUP   
@<TRIPOS>SET

