#    Name: 6bs4_1_AGS
#    Modification time : Fri May 22 19:34:27 2020

@<TRIPOS>MOLECULE
6bs4_1_AGS
   31    33     1     0     0
SMALL
NO_CHARGES


@<TRIPOS>ATOM
      1 PG        -46.0920   41.1900   12.3810 P.3       1 AGS401      0.0000 
      2 S1G       -47.9400   41.5650   12.1770 S.2       1 AGS401      0.0000 
      3 O2G       -45.7150   40.4870   13.7400 O.3       1 AGS401      0.0000 
      4 O3G       -45.3180   40.3100   11.3400 O.3       1 AGS401      0.0000 
      5 PB        -43.8330   43.0520   12.3460 P.3       1 AGS401      0.0000 
      6 O1B       -43.1240   42.9230   13.6440 O.co2     1 AGS401      0.0000 
      7 O2B       -43.2500   42.3240   11.1170 O.co2     1 AGS401      0.0000 
      8 O3B       -45.3550   42.6020   12.4460 O.3       1 AGS401      0.0000 
      9 PA        -43.9280   45.3910   10.5860 P.3       1 AGS401      0.0000 
     10 O1A       -42.5680   45.4990   10.0000 O.co2     1 AGS401      0.0000 
     11 O2A       -44.9550   44.7160    9.6400 O.co2     1 AGS401      0.0000 
     12 O3A       -43.9650   44.5900   11.9600 O.3       1 AGS401      0.0000 
     13 O5'       -44.4610   46.7890   11.1440 O.3       1 AGS401      0.0000 
     14 C5'       -45.7820   47.0480   11.6730 C.3       1 AGS401      0.0000 
     15 C4'       -46.3120   48.3170   11.0460 C.3       1 AGS401      0.0000 
     16 O4'       -45.5020   49.4410   11.4570 O.3       1 AGS401      0.0000 
     17 C3'       -46.3310   48.3520    9.5150 C.3       1 AGS401      0.0000 
     18 O3'       -47.4540   49.0820    9.0410 O.3       1 AGS401      0.0000 
     19 C2'       -45.0260   49.0770    9.1730 C.3       1 AGS401      0.0000 
     20 O2'       -45.0270   49.6700    7.8800 O.3       1 AGS401      0.0000 
     21 C1'       -44.9280   50.0800   10.3250 C.3       1 AGS401      0.0000 
     22 N9        -43.5660   50.4990   10.6690 N.pl3     1 AGS401      0.0000 
     23 C8        -42.4900   49.6980   10.9610 C.2       1 AGS401      0.0000 
     24 N7        -41.3940   50.3580   11.2600 N.2       1 AGS401      0.0000 
     25 C5        -41.7740   51.6890   11.1580 C.ar      1 AGS401      0.0000 
     26 C6        -41.0670   52.9020   11.3300 C.ar      1 AGS401      0.0000 
     27 N6        -39.7770   52.9820   11.6820 N.pl3     1 AGS401      0.0000 
     28 N1        -41.7410   54.0550   11.1250 N.ar      1 AGS401      0.0000 
     29 C2        -43.0300   53.9970   10.7670 C.ar      1 AGS401      0.0000 
     30 N3        -43.7980   52.9200   10.5760 N.ar      1 AGS401      0.0000 
     31 C4        -43.1110   51.7900   10.7910 C.ar      1 AGS401      0.0000 
@<TRIPOS>BOND
     1    1    2 2    
     2    1    3 1    
     3    1    4 1    
     4    1    8 1    
     5    5    6 ar   
     6    5    7 ar   
     7    5    8 1    
     8    5   12 1    
     9    9   10 ar   
    10    9   11 ar   
    11    9   12 1    
    12    9   13 1    
    13   13   14 1    
    14   14   15 1    
    15   15   16 1    
    16   15   17 1    
    17   16   21 1    
    18   17   18 1    
    19   17   19 1    
    20   19   20 1    
    21   19   21 1    
    22   21   22 1    
    23   22   23 1    
    24   22   31 1    
    25   23   24 2    
    26   24   25 1    
    27   25   26 ar   
    28   25   31 ar   
    29   26   27 1    
    30   26   28 ar   
    31   28   29 ar   
    32   29   30 ar   
    33   30   31 ar   
@<TRIPOS>SUBSTRUCTURE
     1 AGS401      1 GROUP   
@<TRIPOS>SET

