#    Name: 6dd6_2_FAD
#    Modification time : Fri May 22 19:24:29 2020

@<TRIPOS>MOLECULE
6dd6_2_FAD
   53    58     1     0     1
SMALL
NO_CHARGES


@<TRIPOS>ATOM
      1 PA         22.0150   17.7500   46.6640 P.3       1 FAD601      0.0000 
      2 O1A        22.6850   16.9930   45.5400 O.co2     1 FAD601      0.0000 
      3 O2A        22.5180   19.1220   47.0330 O.co2     1 FAD601      0.0000 
      4 O5B        20.4400   17.7690   46.3280 O.3       1 FAD601      0.0000 
      5 C5B        19.6280   18.9100   46.5800 C.3       1 FAD601      0.0000 
      6 C4B        18.5210   18.5190   47.5360 C.3       1 FAD601      0.0000 
      7 O4B        17.6260   17.6660   46.8380 O.3       1 FAD601      0.0000 
      8 C3B        18.9990   17.6540   48.7070 C.3       1 FAD601      0.0000 
      9 O3B        19.3490   18.3810   49.8850 O.3       1 FAD601      0.0000 
     10 C2B        17.8300   16.7920   49.0470 C.3       1 FAD601      0.0000 
     11 O2B        16.9640   17.5130   49.8950 O.3       1 FAD601      0.0000 
     12 C1B        17.0920   16.7030   47.7530 C.3       1 FAD601      0.0000 
     13 N9A        17.2090   15.3790   47.1310 N.pl3     1 FAD601      0.0000 
     14 C8A        18.1200   15.0550   46.1980 C.2       1 FAD601      0.0000 
     15 N7A        17.9510   13.7740   45.7760 N.2       1 FAD601      0.0000 
     16 C5A        16.9050   13.2710   46.4540 C.ar      1 FAD601      0.0000 
     17 C6A        16.2000   11.9750   46.4730 C.ar      1 FAD601      0.0000 
     18 N6A        16.6290   10.9960   45.6630 N.pl3     1 FAD601      0.0000 
     19 N1A        15.1570   11.8010   47.3170 N.ar      1 FAD601      0.0000 
     20 C2A        14.7730   12.8240   48.1110 C.ar      1 FAD601      0.0000 
     21 N3A        15.3580   14.0540   48.1540 N.ar      1 FAD601      0.0000 
     22 C4A        16.4190   14.3280   47.3540 C.ar      1 FAD601      0.0000 
     23 N1         18.0520   11.5320   50.9690 N.2       1 FAD601      0.0000 
     24 C2         17.7440   11.8710   52.2440 C.2       1 FAD601      0.0000 
     25 O2         17.3750   13.0350   52.4930 O.2       1 FAD601      0.0000 
     26 N3         17.8210   11.0000   53.2590 N.am      1 FAD601      0.0000 
     27 C4         18.1770    9.7210   53.0560 C.2       1 FAD601      0.0000 
     28 O4         18.2300    8.8870   53.9660 O.2       1 FAD601      0.0000 
     29 C4X        18.5220    9.2600   51.6970 C.2       1 FAD601      0.0000 
     30 N5         18.8990    7.9750   51.4740 N.2       1 FAD601      0.0000 
     31 C5X        19.2350    7.5850   50.2290 C.ar      1 FAD601      0.0000 
     32 C6         19.6340    6.2720   49.9650 C.ar      1 FAD601      0.0000 
     33 C7         19.9570    5.8900   48.6690 C.ar      1 FAD601      0.0000 
     34 C7M        20.3850    4.4860   48.3680 C.3       1 FAD601      0.0000 
     35 C8         19.9050    6.8790   47.5700 C.ar      1 FAD601      0.0000 
     36 C8M        20.2590    6.5030   46.1490 C.3       1 FAD601      0.0000 
     37 C9         19.5030    8.1830   47.8380 C.ar      1 FAD601      0.0000 
     38 C9A        19.1660    8.5830   49.1170 C.ar      1 FAD601      0.0000 
     39 N10        18.7880    9.9240   49.3440 N.pl3     1 FAD601      0.0000 
     40 C10        18.4540   10.2900   50.6450 C.2       1 FAD601      0.0000 
     41 C1'        18.7110   10.9060   48.2530 C.3       1 FAD601      0.0000 
     42 C2'        20.0030   11.6710   48.0120 C.3       1 FAD601      0.0000 
     43 O2'        21.1230   10.7760   47.8330 O.3       1 FAD601      0.0000 
     44 C3'        20.2290   12.6520   49.1540 C.3       1 FAD601      0.0000 
     45 O3'        19.1440   13.5810   49.1960 O.3       1 FAD601      0.0000 
     46 C4'        21.4770   13.4980   48.9960 C.3       1 FAD601      0.0000 
     47 O4'        22.6510   12.7150   49.1720 O.3       1 FAD601      0.0000 
     48 C5'        21.4660   14.6350   50.0010 C.3       1 FAD601      0.0000 
     49 O5'        22.6730   15.3340   49.7260 O.3       1 FAD601      0.0000 
     50 P          22.6480   16.8750   49.3900 P.3       1 FAD601      0.0000 
     51 O1P        21.8360   17.6290   50.3950 O.co2     1 FAD601      0.0000 
     52 O2P        24.0910   17.1870   49.2080 O.co2     1 FAD601      0.0000 
     53 O3P        21.8840   16.8170   47.9810 O.3       1 FAD601      0.0000 
@<TRIPOS>BOND
     1    1    2 ar   
     2    1    3 ar   
     3    1    4 1    
     4    1   53 1    
     5    4    5 1    
     6    5    6 1    
     7    6    7 1    
     8    6    8 1    
     9    7   12 1    
    10    8    9 1    
    11    8   10 1    
    12   10   11 1    
    13   10   12 1    
    14   12   13 1    
    15   13   14 1    
    16   13   22 1    
    17   14   15 2    
    18   15   16 1    
    19   16   17 ar   
    20   16   22 ar   
    21   17   18 1    
    22   17   19 ar   
    23   19   20 ar   
    24   20   21 ar   
    25   21   22 ar   
    26   23   24 1    
    27   23   40 2    
    28   24   25 2    
    29   24   26 am   
    30   26   27 am   
    31   27   28 2    
    32   27   29 1    
    33   29   30 2    
    34   29   40 1    
    35   30   31 1    
    36   31   32 ar   
    37   31   38 ar   
    38   32   33 ar   
    39   33   34 1    
    40   33   35 ar   
    41   35   36 1    
    42   35   37 ar   
    43   37   38 ar   
    44   38   39 1    
    45   39   40 1    
    46   39   41 1    
    47   41   42 1    
    48   42   43 1    
    49   42   44 1    
    50   44   45 1    
    51   44   46 1    
    52   46   47 1    
    53   46   48 1    
    54   48   49 1    
    55   49   50 1    
    56   50   51 ar   
    57   50   52 ar   
    58   50   53 1    
@<TRIPOS>SUBSTRUCTURE
     1 FAD601      1 GROUP   
@<TRIPOS>SET
ATOM$ORANGE STATIC     ATOMS   COLORGROUP SYSTEM 
54 5 5 6 6 8 8 10 10 12 12 14 14 16 16 17 17 20 \
20 22 22 24 24 27 27 29 29 31 31 32 32 33 33 34 34 35 \
35 36 36 37 37 38 38 40 40 41 41 42 42 44 44 46 46 48 \
48 

