#    Name: 5yzi_2_NAP
#    Modification time : Fri May 22 19:24:47 2020

@<TRIPOS>MOLECULE
5yzi_2_NAP
   48    52     1     0     1
SMALL
NO_CHARGES


@<TRIPOS>ATOM
      1 PA         17.2530  -14.7060   22.0990 P.3       1 NAP503      0.0000 
      2 O1A        16.3420  -13.5200   21.8800 O.co2     1 NAP503      0.0000 
      3 O2A        18.5970  -14.7770   21.4170 O.co2     1 NAP503      0.0000 
      4 O5B        16.4510  -16.0420   21.7220 O.3       1 NAP503      0.0000 
      5 C5B        15.1300  -16.2180   22.2230 C.3       1 NAP503      0.0000 
      6 C4B        14.3690  -17.0680   21.2270 C.3       1 NAP503      0.0000 
      7 O4B        14.2700  -16.3460   19.9990 O.3       1 NAP503      0.0000 
      8 C3B        15.1350  -18.3320   20.8870 C.3       1 NAP503      0.0000 
      9 O3B        14.8190  -19.3990   21.7870 O.3       1 NAP503      0.0000 
     10 C2B        14.7200  -18.6060   19.4560 C.3       1 NAP503      0.0000 
     11 O2B        13.4300  -19.2140   19.4020 O.3       1 NAP503      0.0000 
     12 C1B        14.4920  -17.2140   18.8800 C.3       1 NAP503      0.0000 
     13 N9A        15.6480  -16.7100   18.0830 N.pl3     1 NAP503      0.0000 
     14 C8A        16.4240  -15.6560   18.4080 C.2       1 NAP503      0.0000 
     15 N7A        17.3850  -15.4410   17.4710 N.2       1 NAP503      0.0000 
     16 C5A        17.2260  -16.3720   16.5120 C.ar      1 NAP503      0.0000 
     17 C6A        17.9010  -16.7170   15.2390 C.ar      1 NAP503      0.0000 
     18 N6A        18.9650  -16.0050   14.7980 N.pl3     1 NAP503      0.0000 
     19 N1A        17.4200  -17.7660   14.5360 N.ar      1 NAP503      0.0000 
     20 C2A        16.3640  -18.4830   14.9630 C.ar      1 NAP503      0.0000 
     21 N3A        15.7060  -18.2270   16.1070 N.ar      1 NAP503      0.0000 
     22 C4A        16.0780  -17.2010   16.9130 C.ar      1 NAP503      0.0000 
     23 O3         17.4720  -14.9410   23.6780 O.3       1 NAP503      0.0000 
     24 PN         18.1630  -13.8320   24.6130 P.3       1 NAP503      0.0000 
     25 O1N        18.2880  -12.5520   23.8200 O.co2     1 NAP503      0.0000 
     26 O2N        17.4630  -13.8170   25.9510 O.co2     1 NAP503      0.0000 
     27 O5D        19.6290  -14.4740   24.7910 O.3       1 NAP503      0.0000 
     28 C5D        20.2280  -14.5580   26.0760 C.3       1 NAP503      0.0000 
     29 C4D        21.4390  -13.6460   26.0960 C.3       1 NAP503      0.0000 
     30 O4D        21.5340  -12.9060   24.8740 O.3       1 NAP503      0.0000 
     31 C3D        21.2900  -12.6350   27.2180 C.3       1 NAP503      0.0000 
     32 O3D        22.2470  -12.9140   28.2420 O.3       1 NAP503      0.0000 
     33 C2D        21.5680  -11.2830   26.5950 C.3       1 NAP503      0.0000 
     34 O2D        22.6290  -10.6470   27.3000 O.3       1 NAP503      0.0000 
     35 C1D        22.0030  -11.5850   25.1700 C.3       1 NAP503      0.0000 
     36 N1N        21.5040  -10.5680   24.2330 N.pl3     1 NAP503      0.0000 
     37 C2N        22.3600  -10.0180   23.3580 C.ar      1 NAP503      0.0000 
     38 C3N        21.9490   -9.0530   22.4460 C.ar      1 NAP503      0.0000 
     39 C7N        22.9320   -8.4560   21.4750 C.2       1 NAP503      0.0000 
     40 O7N        24.1280   -8.6500   21.6270 O.2       1 NAP503      0.0000 
     41 N7N        22.4760   -7.7180   20.4640 N.am      1 NAP503      0.0000 
     42 C4N        20.6170   -8.6560   22.4480 C.ar      1 NAP503      0.0000 
     43 C5N        19.7450   -9.2360   23.3630 C.ar      1 NAP503      0.0000 
     44 C6N        20.2160  -10.1990   24.2510 C.ar      1 NAP503      0.0000 
     45 P2B        13.1120  -20.7500   19.7670 P.3       1 NAP503      0.0000 
     46 O1X        12.2700  -20.6310   21.0150 O.co2     1 NAP503      0.0000 
     47 O2X        12.3680  -21.2690   18.5580 O.co2     1 NAP503      0.0000 
     48 O3X        14.4720  -21.3760   19.9650 O.co2     1 NAP503      0.0000 
@<TRIPOS>BOND
     1    1    2 ar   
     2    1    3 ar   
     3    1    4 1    
     4    1   23 1    
     5    4    5 1    
     6    5    6 1    
     7    6    7 1    
     8    6    8 1    
     9    7   12 1    
    10    8    9 1    
    11    8   10 1    
    12   10   11 1    
    13   10   12 1    
    14   11   45 1    
    15   12   13 1    
    16   13   14 1    
    17   13   22 1    
    18   14   15 2    
    19   15   16 1    
    20   16   17 ar   
    21   16   22 ar   
    22   17   18 1    
    23   17   19 ar   
    24   19   20 ar   
    25   20   21 ar   
    26   21   22 ar   
    27   23   24 1    
    28   24   25 ar   
    29   24   26 ar   
    30   24   27 1    
    31   27   28 1    
    32   28   29 1    
    33   29   30 1    
    34   29   31 1    
    35   30   35 1    
    36   31   32 1    
    37   31   33 1    
    38   33   34 1    
    39   33   35 1    
    40   35   36 1    
    41   36   37 ar   
    42   36   44 ar   
    43   37   38 ar   
    44   38   39 1    
    45   38   42 ar   
    46   39   40 2    
    47   39   41 am   
    48   42   43 ar   
    49   43   44 ar   
    50   45   46 ar   
    51   45   47 ar   
    52   45   48 ar   
@<TRIPOS>SUBSTRUCTURE
     1 NAP503      1 GROUP   
@<TRIPOS>SET
ATOM$ORANGE STATIC     ATOMS   COLORGROUP SYSTEM 
42 5 5 6 6 8 8 10 10 12 12 14 14 16 16 17 17 20 \
20 22 22 28 28 29 29 31 31 33 33 35 35 37 37 38 38 39 \
39 42 42 43 43 44 44 

