#    Name: 5yzi_1_NAP
#    Modification time : Fri May 22 19:24:35 2020

@<TRIPOS>MOLECULE
5yzi_1_NAP
   48    52     1     0     1
SMALL
NO_CHARGES


@<TRIPOS>ATOM
      1 PA         -6.3260    7.3200   22.0490 P.3       1 NAP502      0.0000 
      2 O1A        -7.4200    8.3420   22.1960 O.co2     1 NAP502      0.0000 
      3 O2A        -6.5060    5.9600   22.6750 O.co2     1 NAP502      0.0000 
      4 O5B        -5.9400    7.1240   20.5130 O.3       1 NAP502      0.0000 
      5 C5B        -6.9250    7.3850   19.5560 C.3       1 NAP502      0.0000 
      6 C4B        -6.5380    6.7070   18.2680 C.3       1 NAP502      0.0000 
      7 O4B        -6.5070    5.2860   18.4490 O.3       1 NAP502      0.0000 
      8 C3B        -7.7160    7.0230   17.3840 C.3       1 NAP502      0.0000 
      9 O3B        -7.3310    8.0860   16.5090 O.3       1 NAP502      0.0000 
     10 C2B        -8.0170    5.7040   16.7130 C.3       1 NAP502      0.0000 
     11 O2B        -7.1120    5.5610   15.6330 O.3       1 NAP502      0.0000 
     12 C1B        -7.6090    4.6880   17.7510 C.3       1 NAP502      0.0000 
     13 N9A        -8.7320    4.4440   18.7040 N.pl3     1 NAP502      0.0000 
     14 C8A        -8.6480    4.5730   20.0480 C.2       1 NAP502      0.0000 
     15 N7A        -9.8240    4.2740   20.6550 N.2       1 NAP502      0.0000 
     16 C5A       -10.6950    3.9310   19.6900 C.ar      1 NAP502      0.0000 
     17 C6A       -12.1140    3.5080   19.6590 C.ar      1 NAP502      0.0000 
     18 N6A       -12.8180    3.3890   20.8150 N.pl3     1 NAP502      0.0000 
     19 N1A       -12.6720    3.2450   18.4540 N.ar      1 NAP502      0.0000 
     20 C2A       -11.9630    3.3660   17.3150 C.ar      1 NAP502      0.0000 
     21 N3A       -10.6710    3.7510   17.2680 N.ar      1 NAP502      0.0000 
     22 C4A        -9.9810    4.0390   18.4060 C.ar      1 NAP502      0.0000 
     23 O3         -4.8990    7.9100   22.4950 O.3       1 NAP502      0.0000 
     24 PN         -4.2920    9.2680   21.8800 P.3       1 NAP502      0.0000 
     25 O1N        -5.0650    9.7440   20.6740 O.co2     1 NAP502      0.0000 
     26 O2N        -2.7930    9.1820   21.7940 O.co2     1 NAP502      0.0000 
     27 O5D        -4.5810   10.1660   23.1730 O.3       1 NAP502      0.0000 
     28 C5D        -5.6600   11.0770   23.1730 C.3       1 NAP502      0.0000 
     29 C4D        -5.9240   11.6380   24.5630 C.3       1 NAP502      0.0000 
     30 O4D        -6.4530   10.6180   25.4150 O.3       1 NAP502      0.0000 
     31 C3D        -4.6700   12.1850   25.2240 C.3       1 NAP502      0.0000 
     32 O3D        -5.0050   13.4650   25.7640 O.3       1 NAP502      0.0000 
     33 C2D        -4.3530   11.2080   26.3470 C.3       1 NAP502      0.0000 
     34 O2D        -3.8640   11.8640   27.5220 O.3       1 NAP502      0.0000 
     35 C1D        -5.6920   10.5530   26.6300 C.3       1 NAP502      0.0000 
     36 N1N        -5.5580    9.1630   27.0820 N.pl3     1 NAP502      0.0000 
     37 C2N        -6.2970    8.7610   28.1300 C.ar      1 NAP502      0.0000 
     38 C3N        -6.2430    7.4580   28.6000 C.ar      1 NAP502      0.0000 
     39 C7N        -7.0880    7.0650   29.7810 C.2       1 NAP502      0.0000 
     40 O7N        -7.5840    7.9430   30.4600 O.2       1 NAP502      0.0000 
     41 N7N        -7.2870    5.7800   30.0650 N.am      1 NAP502      0.0000 
     42 C4N        -5.4110    6.5530   27.9590 C.ar      1 NAP502      0.0000 
     43 C5N        -4.6590    6.9880   26.8720 C.ar      1 NAP502      0.0000 
     44 C6N        -4.7500    8.3090   26.4420 C.ar      1 NAP502      0.0000 
     45 P2B        -7.5490    6.1180   14.1950 P.3       1 NAP502      0.0000 
     46 O1X        -7.1560    7.5760   14.2870 O.co2     1 NAP502      0.0000 
     47 O2X        -9.0360    5.8680   14.1460 O.co2     1 NAP502      0.0000 
     48 O3X        -6.7540    5.2650   13.2300 O.co2     1 NAP502      0.0000 
@<TRIPOS>BOND
     1    1    2 ar   
     2    1    3 ar   
     3    1    4 1    
     4    1   23 1    
     5    4    5 1    
     6    5    6 1    
     7    6    7 1    
     8    6    8 1    
     9    7   12 1    
    10    8    9 1    
    11    8   10 1    
    12   10   11 1    
    13   10   12 1    
    14   11   45 1    
    15   12   13 1    
    16   13   14 1    
    17   13   22 1    
    18   14   15 2    
    19   15   16 1    
    20   16   17 ar   
    21   16   22 ar   
    22   17   18 1    
    23   17   19 ar   
    24   19   20 ar   
    25   20   21 ar   
    26   21   22 ar   
    27   23   24 1    
    28   24   25 ar   
    29   24   26 ar   
    30   24   27 1    
    31   27   28 1    
    32   28   29 1    
    33   29   30 1    
    34   29   31 1    
    35   30   35 1    
    36   31   32 1    
    37   31   33 1    
    38   33   34 1    
    39   33   35 1    
    40   35   36 1    
    41   36   37 ar   
    42   36   44 ar   
    43   37   38 ar   
    44   38   39 1    
    45   38   42 ar   
    46   39   40 2    
    47   39   41 am   
    48   42   43 ar   
    49   43   44 ar   
    50   45   46 ar   
    51   45   47 ar   
    52   45   48 ar   
@<TRIPOS>SUBSTRUCTURE
     1 NAP502      1 GROUP   
@<TRIPOS>SET
ATOM$ORANGE STATIC     ATOMS   COLORGROUP SYSTEM 
42 5 5 6 6 8 8 10 10 12 12 14 14 16 16 17 17 20 \
20 22 22 28 28 29 29 31 31 33 33 35 35 37 37 38 38 39 \
39 42 42 43 43 44 44 

