#    Name: 5ygq_1_FAD
#    Modification time : Fri May 22 19:17:10 2020

@<TRIPOS>MOLECULE
5ygq_1_FAD
   53    58     1     0     1
SMALL
NO_CHARGES


@<TRIPOS>ATOM
      1 PA         13.5380   15.4480   22.6280 P.3       1 FAD401      0.0000 
      2 O1A        14.9220   16.0110   22.2570 O.co2     1 FAD401      0.0000 
      3 O2A        13.0640   14.2490   21.8890 O.co2     1 FAD401      0.0000 
      4 O5B        13.4650   15.3100   24.1960 O.3       1 FAD401      0.0000 
      5 C5B        12.5930   14.3210   24.6990 C.3       1 FAD401      0.0000 
      6 C4B        12.9590   14.0190   26.1180 C.3       1 FAD401      0.0000 
      7 O4B        11.7830   13.5470   26.7550 O.3       1 FAD401      0.0000 
      8 C3B        13.9690   12.9400   26.2480 C.3       1 FAD401      0.0000 
      9 O3B        15.0300   13.4400   27.0820 O.3       1 FAD401      0.0000 
     10 C2B        13.2240   11.7550   26.9390 C.3       1 FAD401      0.0000 
     11 O2B        14.0610   11.0270   27.8800 O.3       1 FAD401      0.0000 
     12 C1B        12.1050   12.4680   27.6410 C.3       1 FAD401      0.0000 
     13 N9A        10.8820   11.6880   27.9390 N.pl3     1 FAD401      0.0000 
     14 C8A         9.9860   11.1500   27.0870 C.2       1 FAD401      0.0000 
     15 N7A         8.9520   10.5680   27.7100 N.2       1 FAD401      0.0000 
     16 C5A         9.2050   10.7870   29.0350 C.ar      1 FAD401      0.0000 
     17 C6A         8.6300   10.3310   30.2880 C.ar      1 FAD401      0.0000 
     18 N6A         7.4830    9.6360   30.3280 N.pl3     1 FAD401      0.0000 
     19 N1A         9.2250   10.6950   31.4170 N.ar      1 FAD401      0.0000 
     20 C2A        10.3510   11.3840   31.4360 C.ar      1 FAD401      0.0000 
     21 N3A        10.9950   11.7490   30.3460 N.ar      1 FAD401      0.0000 
     22 C4A        10.4690   11.4660   29.1590 C.ar      1 FAD401      0.0000 
     23 N1         16.4210   18.8680   14.3600 N.2       1 FAD401      0.0000 
     24 C2         16.6660   20.0320   13.7680 C.2       1 FAD401      0.0000 
     25 O2         15.7520   20.8830   13.7780 O.2       1 FAD401      0.0000 
     26 N3         17.8180   20.2700   13.1190 N.am      1 FAD401      0.0000 
     27 C4         18.8120   19.3710   13.0220 C.2       1 FAD401      0.0000 
     28 O4         19.8740   19.6240   12.3960 O.2       1 FAD401      0.0000 
     29 C4X        18.5830   18.0650   13.6860 C.2       1 FAD401      0.0000 
     30 N5         19.5090   17.0920   13.6900 N.2       1 FAD401      0.0000 
     31 C5X        19.3110   15.9400   14.3440 C.ar      1 FAD401      0.0000 
     32 C6         20.3280   14.9790   14.2800 C.ar      1 FAD401      0.0000 
     33 C7         20.1730   13.7830   14.9200 C.ar      1 FAD401      0.0000 
     34 C7M        21.2800   12.7260   14.8790 C.3       1 FAD401      0.0000 
     35 C8         18.8870   13.4940   15.6260 C.ar      1 FAD401      0.0000 
     36 C8M        18.7480   12.1260   16.3000 C.3       1 FAD401      0.0000 
     37 C9         17.8650   14.4200   15.6870 C.ar      1 FAD401      0.0000 
     38 C9A        18.0330   15.6760   15.0950 C.ar      1 FAD401      0.0000 
     39 N10        17.0650   16.6940   15.0990 N.pl3     1 FAD401      0.0000 
     40 C10        17.2960   17.8650   14.3760 C.2       1 FAD401      0.0000 
     41 C1'        15.7730   16.5340   15.7170 C.3       1 FAD401      0.0000 
     42 C2'        15.7140   17.2070   17.0190 C.3       1 FAD401      0.0000 
     43 O2'        16.7540   16.5800   17.7930 O.3       1 FAD401      0.0000 
     44 C3'        14.3090   16.9920   17.5600 C.3       1 FAD401      0.0000 
     45 O3'        13.3320   17.5570   16.6680 O.3       1 FAD401      0.0000 
     46 C4'        14.2490   17.5610   18.9730 C.3       1 FAD401      0.0000 
     47 O4'        15.1740   16.8830   19.8750 O.3       1 FAD401      0.0000 
     48 C5'        12.8530   17.4630   19.5580 C.3       1 FAD401      0.0000 
     49 O5'        13.0290   17.8480   20.8900 O.3       1 FAD401      0.0000 
     50 P          11.7750   17.7210   21.8970 P.3       1 FAD401      0.0000 
     51 O1P        10.4760   17.4920   21.2030 O.co2     1 FAD401      0.0000 
     52 O2P        11.9680   18.6860   23.0450 O.co2     1 FAD401      0.0000 
     53 O3P        12.1330   16.2670   22.5600 O.3       1 FAD401      0.0000 
@<TRIPOS>BOND
     1    1    2 ar   
     2    1    3 ar   
     3    1    4 1    
     4    1   53 1    
     5    4    5 1    
     6    5    6 1    
     7    6    7 1    
     8    6    8 1    
     9    7   12 1    
    10    8    9 1    
    11    8   10 1    
    12   10   11 1    
    13   10   12 1    
    14   12   13 1    
    15   13   14 1    
    16   13   22 1    
    17   14   15 2    
    18   15   16 1    
    19   16   17 ar   
    20   16   22 ar   
    21   17   18 1    
    22   17   19 ar   
    23   19   20 ar   
    24   20   21 ar   
    25   21   22 ar   
    26   23   24 1    
    27   23   40 2    
    28   24   25 2    
    29   24   26 am   
    30   26   27 am   
    31   27   28 2    
    32   27   29 1    
    33   29   30 2    
    34   29   40 1    
    35   30   31 1    
    36   31   32 ar   
    37   31   38 ar   
    38   32   33 ar   
    39   33   34 1    
    40   33   35 ar   
    41   35   36 1    
    42   35   37 ar   
    43   37   38 ar   
    44   38   39 1    
    45   39   40 1    
    46   39   41 1    
    47   41   42 1    
    48   42   43 1    
    49   42   44 1    
    50   44   45 1    
    51   44   46 1    
    52   46   47 1    
    53   46   48 1    
    54   48   49 1    
    55   49   50 1    
    56   50   51 ar   
    57   50   52 ar   
    58   50   53 1    
@<TRIPOS>SUBSTRUCTURE
     1 FAD401      1 GROUP   
@<TRIPOS>SET
ATOM$ORANGE STATIC     ATOMS   COLORGROUP SYSTEM 
54 5 5 6 6 8 8 10 10 12 12 14 14 16 16 17 17 20 \
20 22 22 24 24 27 27 29 29 31 31 32 32 33 33 34 34 35 \
35 36 36 37 37 38 38 40 40 41 41 42 42 44 44 46 46 48 \
48 

