#    Name: 5ygq_2_FAD_CAVITY_N1_ALL
#    Modification time : Fri May 22 19:17:22 2020

@<TRIPOS>MOLECULE
5ygq_2_FAD_CAVITY_N1_ALL
   80     0     6     0     0
SMALL
NO_CHARGES


@<TRIPOS>ATOM
      1 OG          8.8800   41.6600   16.7500 O.3       1 SER1        0.0000 
      2 OG          6.2700   42.8700   15.0300 O.3       1 SER1        0.0000 
      3 OG          9.1800   43.0300   17.2700 O.3       1 SER1        0.0000 
      4 OG          8.0200   43.8700   15.7100 O.3       1 SER1        0.0000 
      5 OG          8.0700   45.7000   19.5300 O.3       1 SER1        0.0000 
      6 OG          8.6400   47.5400   18.6500 O.3       1 SER1        0.0000 
      7 N           7.3400   38.3700    8.9400 N.am      2 ALA2        0.0000 
      8 N           8.8100   38.9100   11.0100 N.am      2 ALA2        0.0000 
      9 O           7.6400   39.7500    9.4500 O.2       2 ALA2        0.0000 
     10 N           9.0900   39.3700    9.6100 N.am      2 ALA2        0.0000 
     11 N           8.2000   40.6700    6.6500 N.am      2 ALA2        0.0000 
     12 O           7.9400   41.1200    9.9700 O.2       2 ALA2        0.0000 
     13 N           8.7700   42.5100    5.7600 N.am      2 ALA2        0.0000 
     14 N           9.0500   42.9700    4.3600 N.am      2 ALA2        0.0000 
     15 O           7.9700   42.0400   11.8800 O.2       2 ALA2        0.0000 
     16 O           8.2500   42.5000   10.4800 O.2       2 ALA2        0.0000 
     17 O           8.5200   42.9600    9.0800 O.2       2 ALA2        0.0000 
     18 O           9.9700   42.5900    9.2400 O.2       2 ALA2        0.0000 
     19 O          10.2400   43.0500    7.8400 O.2       2 ALA2        0.0000 
     20 N           7.9100   44.7200    4.7200 N.am      2 ALA2        0.0000 
     21 N           6.5500   43.3300   13.6300 N.am      2 ALA2        0.0000 
     22 N           7.9900   42.9600   13.7900 N.am      2 ALA2        0.0000 
     23 N           8.2900   44.3300   14.3100 N.am      2 ALA2        0.0000 
     24 N           5.7100   46.4600   14.5000 N.am      2 ALA2        0.0000 
     25 N           7.4500   47.4600   15.1700 N.am      2 ALA2        0.0000 
     26 NZ          7.3700   39.2900   10.8500 N.4       3 LYS4        0.0000 
     27 NZ          7.3900   40.2000   12.7700 N.4       3 LYS4        0.0000 
     28 NZ          7.6700   40.6600   11.3700 N.4       3 LYS4        0.0000 
     29 NZ          7.4200   41.1200   14.6800 N.4       3 LYS4        0.0000 
     30 NZ          7.6900   41.5800   13.2800 N.4       3 LYS4        0.0000 
     31 NZ          9.3500   44.3500    4.8800 N.4       3 LYS4        0.0000 
     32 NZ         10.7900   43.9700    5.0400 N.4       3 LYS4        0.0000 
     33 NZ          5.1100   43.7100   13.4700 N.4       3 LYS4        0.0000 
     34 CZ          7.4400   42.0300   16.5900 C.ar      4 PHE5        0.0000 
     35 CZ          7.7200   42.4900   15.1900 C.ar      4 PHE5        0.0000 
     36 CZ          7.7400   43.4100   17.1100 C.ar      4 PHE5        0.0000 
     37 CZ          5.1300   44.6200   15.3800 C.ar      4 PHE5        0.0000 
     38 CZ          6.5700   44.2500   15.5400 C.ar      4 PHE5        0.0000 
     39 CZ          8.0400   44.7900   17.6200 C.ar      4 PHE5        0.0000 
     40 CZ          9.4900   44.4100   17.7800 C.ar      4 PHE5        0.0000 
     41 CZ          5.4300   46.0000   15.9000 C.ar      4 PHE5        0.0000 
     42 CZ          6.8700   45.6200   16.0600 C.ar      4 PHE5        0.0000 
     43 CZ          8.3200   45.2500   16.2200 C.ar      4 PHE5        0.0000 
     44 CZ          8.5900   45.7100   14.8200 C.ar      4 PHE5        0.0000 
     45 CZ          6.9000   46.5400   17.9700 C.ar      4 PHE5        0.0000 
     46 CZ          8.3400   46.1600   18.1300 C.ar      4 PHE5        0.0000 
     47 CZ          9.7900   45.7900   18.2900 C.ar      4 PHE5        0.0000 
     48 CZ          8.6200   46.6300   16.7300 C.ar      4 PHE5        0.0000 
     49 CZ          8.8900   47.0900   15.3300 C.ar      4 PHE5        0.0000 
     50 CZ          8.9200   48.0000   17.2500 C.ar      4 PHE5        0.0000 
     51 CZ         10.3600   47.6300   17.4100 C.ar      4 PHE5        0.0000 
     52 CA          7.6200   38.8300    7.5400 C.3       5 GLY6        0.0000 
     53 CA          9.0600   38.4600    7.7000 C.3       5 GLY6        0.0000 
     54 CA          7.9200   40.2100    8.0500 C.3       5 GLY6        0.0000 
     55 CA          9.3600   39.8300    8.2100 C.3       5 GLY6        0.0000 
     56 CA          9.6400   40.3000    6.8100 C.3       5 GLY6        0.0000 
     57 CA          8.8400   39.8300   12.9300 C.3       5 GLY6        0.0000 
     58 CA          9.1100   40.2900   11.5300 C.3       5 GLY6        0.0000 
     59 CA          6.5000   41.5000    9.8000 C.3       5 GLY6        0.0000 
     60 CA          9.3900   40.7500   10.1300 C.3       5 GLY6        0.0000 
     61 CA          8.2200   41.5900    8.5700 C.3       5 GLY6        0.0000 
     62 CA          9.6600   41.2100    8.7300 C.3       5 GLY6        0.0000 
     63 CA          8.5000   42.0500    7.1600 C.3       5 GLY6        0.0000 
     64 CA          9.9400   41.6700    7.3300 C.3       5 GLY6        0.0000 
     65 CA         10.2200   42.1300    5.9300 C.3       5 GLY6        0.0000 
     66 CA          8.8600   40.7400   14.8400 C.3       5 GLY6        0.0000 
     67 CA          9.1400   41.2000   13.4400 C.3       5 GLY6        0.0000 
     68 CA          9.4100   41.6700   12.0400 C.3       5 GLY6        0.0000 
     69 CA          9.6900   42.1300   10.6400 C.3       5 GLY6        0.0000 
     70 CA          8.8000   43.4200    7.6800 C.3       5 GLY6        0.0000 
     71 CA          7.6300   44.2600    6.1200 C.3       5 GLY6        0.0000 
     72 CA          9.0700   43.8900    6.2800 C.3       5 GLY6        0.0000 
     73 CA          9.7100   43.0400   12.5500 C.3       5 GLY6        0.0000 
     74 CA          9.2100   43.9500   19.1800 C.3       5 GLY6        0.0000 
     75 CA          9.5100   45.3300   19.6900 C.3       5 GLY6        0.0000 
     76 CA         10.0900   47.1700   18.8100 C.3       5 GLY6        0.0000 
     77 CA         10.6600   49.0000   17.9200 C.3       5 GLY6        0.0000 
     78 CA          9.5000   49.8400   16.3600 C.3       5 GLY6        0.0000 
     79 DU          7.1700   47.0000   16.5700 H         6 CUB7        0.0000 
     80 DU          9.2200   49.3800   17.7600 H         6 CUB7        0.0000 
@<TRIPOS>BOND
@<TRIPOS>SUBSTRUCTURE
     1 SER1        1 GROUP   
     2 ALA2        7 GROUP   
     3 LYS4       26 GROUP   
     4 PHE5       34 GROUP   
     5 GLY6       52 GROUP   
     6 CUB7       79 GROUP   
@<TRIPOS>SET

