#    Name: 6smn_7_MTX_CAVITY_N1_6
#    Modification time : Fri May 22 19:27:14 2020

@<TRIPOS>MOLECULE
6smn_7_MTX_CAVITY_N1_6
   73     0     6     0     0
SMALL
NO_CHARGES


@<TRIPOS>ATOM
      1 OG          8.9000    4.5400   25.8100 O.3       1 SER1        0.0000 
      2 OG          7.6100    5.1800   26.2300 O.3       1 SER1        0.0000 
      3 OG          8.4400    5.5900   28.1400 O.3       1 SER1        0.0000 
      4 OG          8.3700    6.3200   26.8400 O.3       1 SER1        0.0000 
      5 OG          6.8700    9.1600   23.3500 O.3       1 SER1        0.0000 
      6 OG          6.6200    8.0000   29.6000 O.3       1 SER1        0.0000 
      7 OG          5.3600   13.7600   27.7400 O.3       1 SER1        0.0000 
      8 N           5.6300    3.9400   27.3600 N.am      2 ALA2        0.0000 
      9 N           4.2700    5.3100   26.4800 N.am      2 ALA2        0.0000 
     10 N           2.9800    5.9400   26.9100 N.am      2 ALA2        0.0000 
     11 N           1.6900    6.5800   27.3400 N.am      2 ALA2        0.0000 
     12 N           6.3900    5.0800   27.9700 N.am      2 ALA2        0.0000 
     13 N           6.3200    5.8100   26.6600 N.am      2 ALA2        0.0000 
     14 N           5.0300    6.4500   27.0900 N.am      2 ALA2        0.0000 
     15 N           3.7400    7.0800   27.5100 N.am      2 ALA2        0.0000 
     16 N           2.4500    7.7200   27.9400 N.am      2 ALA2        0.0000 
     17 N           5.8600    6.8600   29.0000 N.am      2 ALA2        0.0000 
     18 N           5.7900    7.5900   27.6900 N.am      2 ALA2        0.0000 
     19 N           4.5700    7.4900   29.4200 N.am      2 ALA2        0.0000 
     20 N           4.5000    8.2300   28.1200 N.am      2 ALA2        0.0000 
     21 N           3.2800    8.1300   29.8500 N.am      2 ALA2        0.0000 
     22 N           1.7100   11.7000   25.0600 N.am      2 ALA2        0.0000 
     23 N           3.9700   10.0000   29.1500 N.am      2 ALA2        0.0000 
     24 OD1         1.0200    9.8200   25.7600 O.co2     3 ASP3        0.0000 
     25 OD1         0.9500   10.5600   24.4500 O.co2     3 ASP3        0.0000 
     26 OD1         1.7800   10.9700   26.3600 O.co2     3 ASP3        0.0000 
     27 CZ          2.2400    9.9200   24.0300 C.ar      4 PHE5        0.0000 
     28 CZ          2.1700   10.6600   22.7200 C.ar      4 PHE5        0.0000 
     29 CZ          5.5800    9.8000   23.7700 C.ar      4 PHE5        0.0000 
     30 CZ          4.2900   10.4300   24.2000 C.ar      4 PHE5        0.0000 
     31 CZ          3.0000   11.0700   24.6300 C.ar      4 PHE5        0.0000 
     32 CZ          6.4100   10.2000   25.6800 C.ar      4 PHE5        0.0000 
     33 CZ          5.1200   10.8400   26.1100 C.ar      4 PHE5        0.0000 
     34 CZ          3.8300   11.4700   26.5400 C.ar      4 PHE5        0.0000 
     35 CZ          3.7600   12.2100   25.2300 C.ar      4 PHE5        0.0000 
     36 CZ          5.8800   11.9800   26.7100 C.ar      4 PHE5        0.0000 
     37 CZ          4.5900   12.6200   27.1400 C.ar      4 PHE5        0.0000 
     38 CZ          4.5200   13.3500   25.8300 C.ar      4 PHE5        0.0000 
     39 CA          6.9200    3.3000   26.9400 C.3       5 GLY6        0.0000 
     40 CA          7.6800    4.4400   27.5400 C.3       5 GLY6        0.0000 
     41 CA          2.3800    8.4500   26.6400 C.3       5 GLY6        0.0000 
     42 CA          1.1600    8.3500   28.3700 C.3       5 GLY6        0.0000 
     43 CA          0.8800   11.2900   23.1500 C.3       5 GLY6        0.0000 
     44 CA          7.1500    6.2200   28.5700 C.3       5 GLY6        0.0000 
     45 CA          1.8500   10.2300   27.6700 C.3       5 GLY6        0.0000 
     46 CA          7.9100    7.3600   29.1700 C.3       5 GLY6        0.0000 
     47 CA          7.8400    8.1000   27.8700 C.3       5 GLY6        0.0000 
     48 CA          7.7700    8.8300   26.5600 C.3       5 GLY6        0.0000 
     49 CA          7.3200    9.8800   28.9000 C.3       5 GLY6        0.0000 
     50 CA          7.2400   10.6100   27.5900 C.3       5 GLY6        0.0000 
     51 DU          2.9100    6.6800   25.6100 H         6 CUB7        0.0000 
     52 DU          4.9600    7.1800   25.7800 H         6 CUB7        0.0000 
     53 DU          4.8900    7.9200   24.4800 H         6 CUB7        0.0000 
     54 DU          3.6700    7.8200   26.2100 H         6 CUB7        0.0000 
     55 DU          3.6000    8.5500   24.9000 H         6 CUB7        0.0000 
     56 DU          2.3100    9.1900   25.3300 H         6 CUB7        0.0000 
     57 DU          7.0800    6.9600   27.2600 H         6 CUB7        0.0000 
     58 DU          7.0100    7.6900   25.9600 H         6 CUB7        0.0000 
     59 DU          6.9400    8.4300   24.6500 H         6 CUB7        0.0000 
     60 DU          5.7200    8.3300   26.3800 H         6 CUB7        0.0000 
     61 DU          5.6500    9.0600   25.0800 H         6 CUB7        0.0000 
     62 DU          4.4300    8.9600   26.8100 H         6 CUB7        0.0000 
     63 DU          4.3600    9.7000   25.5100 H         6 CUB7        0.0000 
     64 DU          3.2100    8.8600   28.5400 H         6 CUB7        0.0000 
     65 DU          3.1400    9.6000   27.2400 H         6 CUB7        0.0000 
     66 DU          3.0700   10.3300   25.9300 H         6 CUB7        0.0000 
     67 DU          6.5500    8.7300   28.2900 H         6 CUB7        0.0000 
     68 DU          6.4800    9.4700   26.9900 H         6 CUB7        0.0000 
     69 DU          5.2600    9.3700   28.7200 H         6 CUB7        0.0000 
     70 DU          3.9000   10.7400   27.8400 H         6 CUB7        0.0000 
     71 DU          4.6600   11.8800   28.4400 H         6 CUB7        0.0000 
     72 DU          6.7200   12.3900   28.6200 H         6 CUB7        0.0000 
     73 DU          6.6500   13.1300   27.3100 H         6 CUB7        0.0000 
@<TRIPOS>BOND
@<TRIPOS>SUBSTRUCTURE
     1 SER1        1 GROUP   
     2 ALA2        8 GROUP   
     3 ASP3       24 GROUP   
     4 PHE5       27 GROUP   
     5 GLY6       39 GROUP   
     6 CUB7       51 GROUP   
@<TRIPOS>SET

