#    Name: 6smn_4_MTX
#    Modification time : Fri May 22 19:26:49 2020

@<TRIPOS>MOLECULE
6smn_4_MTX
   33    35     1     0     0
SMALL
NO_CHARGES


@<TRIPOS>ATOM
      1 N1         38.8380  -17.9860   -3.7220 N.ar      1 MTX2404     0.0000 
      2 C2         39.9850  -18.5470   -3.2620 C.ar      1 MTX2404     0.0000 
      3 NA2        40.7540  -19.4700   -4.1190 N.pl3     1 MTX2404     0.0000 
      4 N3         40.4320  -18.2560   -1.9910 N.ar      1 MTX2404     0.0000 
      5 C4         39.7430  -17.4190   -1.2030 C.ar      1 MTX2404     0.0000 
      6 NA4        40.2440  -17.1100    0.1780 N.pl3     1 MTX2404     0.0000 
      7 C4A        38.5810  -16.8470   -1.6630 C.ar      1 MTX2404     0.0000 
      8 N5         37.8850  -16.0100   -0.8800 N.ar      1 MTX2404     0.0000 
      9 C6         36.7520  -15.4510   -1.3220 C.ar      1 MTX2404     0.0000 
     10 C7         36.3050  -15.7470   -2.6000 C.ar      1 MTX2404     0.0000 
     11 N8         36.9940  -16.5760   -3.3790 N.ar      1 MTX2404     0.0000 
     12 C8A        38.1350  -17.1360   -2.9280 C.ar      1 MTX2404     0.0000 
     13 C9         35.9080  -14.4460   -0.4220 C.3       1 MTX2404     0.0000 
     14 N10        34.5100  -14.7970   -0.3840 N.pl3     1 MTX2404     0.0000 
     15 CM         34.0640  -15.7290    0.5310 C.3       1 MTX2404     0.0000 
     16 C11        31.7800  -13.1280   -3.2490 C.ar      1 MTX2404     0.0000 
     17 C12        31.2990  -13.8700   -2.1760 C.ar      1 MTX2404     0.0000 
     18 C13        32.1810  -14.4020   -1.2410 C.ar      1 MTX2404     0.0000 
     19 C14        33.5510  -14.2050   -1.3860 C.ar      1 MTX2404     0.0000 
     20 C15        34.0270  -13.4770   -2.4570 C.ar      1 MTX2404     0.0000 
     21 C16        33.1360  -12.9390   -3.4040 C.ar      1 MTX2404     0.0000 
     22 C          30.8020  -12.5550   -4.3080 C.2       1 MTX2404     0.0000 
     23 O          29.9480  -13.2540   -4.6670 O.2       1 MTX2404     0.0000 
     24 N          30.9550  -11.1970   -4.8560 N.am      1 MTX2404     0.0000 
     25 CA         30.1050  -10.5860   -5.8730 C.3       1 MTX2404     0.0000 
     26 CT         30.4330   -9.0720   -5.9950 C.2       1 MTX2404     0.0000 
     27 O1         29.5390   -8.2000   -5.7880 O.co2     1 MTX2404     0.0000 
     28 O2         31.5910   -8.7020   -6.3110 O.co2     1 MTX2404     0.0000 
     29 CB         28.5970  -10.7810   -5.7120 C.3       1 MTX2404     0.0000 
     30 CG         28.1030  -10.7460   -4.2450 C.3       1 MTX2404     0.0000 
     31 CD         27.0680   -9.5400   -4.0240 C.2       1 MTX2404     0.0000 
     32 OE1        26.8560   -8.6980   -4.9440 O.co2     1 MTX2404     0.0000 
     33 OE2        26.4470   -9.4340   -2.8990 O.co2     1 MTX2404     0.0000 
@<TRIPOS>BOND
     1    1    2 ar   
     2    1   12 ar   
     3    2    3 1    
     4    2    4 ar   
     5    4    5 ar   
     6    5    6 1    
     7    5    7 ar   
     8    7    8 ar   
     9    7   12 ar   
    10    8    9 ar   
    11    9   10 ar   
    12    9   13 1    
    13   10   11 ar   
    14   11   12 ar   
    15   13   14 1    
    16   14   15 1    
    17   14   19 1    
    18   16   17 ar   
    19   16   21 ar   
    20   16   22 1    
    21   17   18 ar   
    22   18   19 ar   
    23   19   20 ar   
    24   20   21 ar   
    25   22   23 2    
    26   22   24 am   
    27   24   25 1    
    28   25   26 1    
    29   25   29 1    
    30   26   27 ar   
    31   26   28 ar   
    32   29   30 1    
    33   30   31 1    
    34   31   32 ar   
    35   31   33 ar   
@<TRIPOS>SUBSTRUCTURE
     1 MTX2404     1 GROUP   
@<TRIPOS>SET

