#    Name: 6smn_6_MTX
#    Modification time : Fri May 22 19:27:02 2020

@<TRIPOS>MOLECULE
6smn_6_MTX
   33    35     1     0     0
SMALL
NO_CHARGES


@<TRIPOS>ATOM
      1 N1         33.2600   30.3060    3.2410 N.ar      1 MTX603      0.0000 
      2 C2         32.0000   30.8210    3.1960 C.ar      1 MTX603      0.0000 
      3 NA2        31.6940   31.9650    2.3160 N.pl3     1 MTX603      0.0000 
      4 N3         31.0020   30.2740    3.9730 N.ar      1 MTX603      0.0000 
      5 C4         31.2710   29.2310    4.7780 C.ar      1 MTX603      0.0000 
      6 NA4        30.1710   28.6510    5.6140 N.pl3     1 MTX603      0.0000 
      7 C4A        32.5450   28.7030    4.8290 C.ar      1 MTX603      0.0000 
      8 N5         32.8230   27.6590    5.6310 N.ar      1 MTX603      0.0000 
      9 C6         34.0610   27.1460    5.6840 C.ar      1 MTX603      0.0000 
     10 C7         35.0540   27.7030    4.8940 C.ar      1 MTX603      0.0000 
     11 N8         34.7850   28.7350    4.0980 N.ar      1 MTX603      0.0000 
     12 C8A        33.5370   29.2500    4.0510 C.ar      1 MTX603      0.0000 
     13 C9         34.4170   25.9010    6.6150 C.3       1 MTX603      0.0000 
     14 N10        35.5680   26.1130    7.4700 N.pl3     1 MTX603      0.0000 
     15 CM         35.3800   26.5860    8.7540 C.3       1 MTX603      0.0000 
     16 C11        39.5710   25.1980    6.1390 C.ar      1 MTX603      0.0000 
     17 C12        39.3380   25.6090    7.4480 C.ar      1 MTX603      0.0000 
     18 C13        38.0440   25.8950    7.8790 C.ar      1 MTX603      0.0000 
     19 C14        36.9700   25.7900    6.9990 C.ar      1 MTX603      0.0000 
     20 C15        37.2050   25.3940    5.6970 C.ar      1 MTX603      0.0000 
     21 C16        38.5120   25.1040    5.2610 C.ar      1 MTX603      0.0000 
     22 C          41.0140   24.9010    5.6390 C.2       1 MTX603      0.0000 
     23 O          41.8530   25.6480    5.9430 O.2       1 MTX603      0.0000 
     24 N          41.3370   23.7370    4.7950 N.am      1 MTX603      0.0000 
     25 CA         42.6750   23.4480    4.2860 C.3       1 MTX603      0.0000 
     26 CT         42.6760   22.1220    3.4800 C.2       1 MTX603      0.0000 
     27 O1         42.1320   22.0760    2.3400 O.co2     1 MTX603      0.0000 
     28 O2         43.2210   21.0870    3.9400 O.co2     1 MTX603      0.0000 
     29 CB         43.7890   23.4100    5.3290 C.3       1 MTX603      0.0000 
     30 CG         43.3330   22.8580    6.7010 C.3       1 MTX603      0.0000 
     31 CD         44.2280   21.5940    7.1210 C.2       1 MTX603      0.0000 
     32 OE1        44.3890   21.3100    8.3440 O.co2     1 MTX603      0.0000 
     33 OE2        44.7860   20.8650    6.2140 O.co2     1 MTX603      0.0000 
@<TRIPOS>BOND
     1    1    2 ar   
     2    1   12 ar   
     3    2    3 1    
     4    2    4 ar   
     5    4    5 ar   
     6    5    6 1    
     7    5    7 ar   
     8    7    8 ar   
     9    7   12 ar   
    10    8    9 ar   
    11    9   10 ar   
    12    9   13 1    
    13   10   11 ar   
    14   11   12 ar   
    15   13   14 1    
    16   14   15 1    
    17   14   19 1    
    18   16   17 ar   
    19   16   21 ar   
    20   16   22 1    
    21   17   18 ar   
    22   18   19 ar   
    23   19   20 ar   
    24   20   21 ar   
    25   22   23 2    
    26   22   24 am   
    27   24   25 1    
    28   25   26 1    
    29   25   29 1    
    30   26   27 ar   
    31   26   28 ar   
    32   29   30 1    
    33   30   31 1    
    34   31   32 ar   
    35   31   33 ar   
@<TRIPOS>SUBSTRUCTURE
     1 MTX603      1 GROUP   
@<TRIPOS>SET

