#    Name: 6smn_7_MTX
#    Modification time : Fri May 22 19:27:13 2020

@<TRIPOS>MOLECULE
6smn_7_MTX
   33    35     1     0     0
SMALL
NO_CHARGES


@<TRIPOS>ATOM
      1 N1          2.2710    9.6480   23.8580 N.ar      1 MTX617      0.0000 
      2 C2          1.6620   10.6270   24.5770 C.ar      1 MTX617      0.0000 
      3 NA2         0.2020   10.8310   24.4580 N.pl3     1 MTX617      0.0000 
      4 N3          2.4060   11.4330   25.4140 N.ar      1 MTX617      0.0000 
      5 C4          3.7330   11.2530   25.5240 C.ar      1 MTX617      0.0000 
      6 NA4         4.5390   12.1340   26.4370 N.pl3     1 MTX617      0.0000 
      7 C4A         4.3520   10.2620   24.7980 C.ar      1 MTX617      0.0000 
      8 N5          5.6760   10.0770   24.9060 N.ar      1 MTX617      0.0000 
      9 C6          6.2810    9.1140   24.1980 C.ar      1 MTX617      0.0000 
     10 C7          5.5250    8.3060   23.3590 C.ar      1 MTX617      0.0000 
     11 N8          4.2130    8.4880   23.2520 N.ar      1 MTX617      0.0000 
     12 C8A         3.6090    9.4620   23.9640 C.ar      1 MTX617      0.0000 
     13 C9          7.8520    8.8700   24.3010 C.3       1 MTX617      0.0000 
     14 N10         8.2850    7.8260   23.3970 N.pl3     1 MTX617      0.0000 
     15 CM          8.6550    8.1530   22.1100 C.3       1 MTX617      0.0000 
     16 C11         8.0430    3.6850   24.5270 C.ar      1 MTX617      0.0000 
     17 C12         8.2610    4.0410   23.2010 C.ar      1 MTX617      0.0000 
     18 C13         8.3440    5.3810   22.8390 C.ar      1 MTX617      0.0000 
     19 C14         8.2050    6.3740   23.8020 C.ar      1 MTX617      0.0000 
     20 C15         7.9820    6.0250   25.1190 C.ar      1 MTX617      0.0000 
     21 C16         7.9010    4.6670   25.4870 C.ar      1 MTX617      0.0000 
     22 C           7.9440    2.1840   24.9190 C.2       1 MTX617      0.0000 
     23 O           7.8370    1.3740   24.0900 O.2       1 MTX617      0.0000 
     24 N           7.9680    1.7630   26.3200 N.am      1 MTX617      0.0000 
     25 CA          7.8690    0.3550   26.6240 C.3       1 MTX617      0.0000 
     26 CT          6.4000   -0.1190   26.5260 C.2       1 MTX617      0.0000 
     27 O1          5.9890   -1.0460   27.2820 O.co2     1 MTX617      0.0000 
     28 O2          5.6110    0.4060   25.6990 O.co2     1 MTX617      0.0000 
     29 CB          8.4010    0.1020   28.0200 C.3       1 MTX617      0.0000 
     30 CG          9.8340    0.6770   28.1340 C.3       1 MTX617      0.0000 
     31 CD         10.9230   -0.4180   27.6860 C.2       1 MTX617      0.0000 
     32 OE1        10.6030   -1.3780   26.9270 O.co2     1 MTX617      0.0000 
     33 OE2        12.1410   -0.3150   28.1010 O.co2     1 MTX617      0.0000 
@<TRIPOS>BOND
     1    1    2 ar   
     2    1   12 ar   
     3    2    3 1    
     4    2    4 ar   
     5    4    5 ar   
     6    5    6 1    
     7    5    7 ar   
     8    7    8 ar   
     9    7   12 ar   
    10    8    9 ar   
    11    9   10 ar   
    12    9   13 1    
    13   10   11 ar   
    14   11   12 ar   
    15   13   14 1    
    16   14   15 1    
    17   14   19 1    
    18   16   17 ar   
    19   16   21 ar   
    20   16   22 1    
    21   17   18 ar   
    22   18   19 ar   
    23   19   20 ar   
    24   20   21 ar   
    25   22   23 2    
    26   22   24 am   
    27   24   25 1    
    28   25   26 1    
    29   25   29 1    
    30   26   27 ar   
    31   26   28 ar   
    32   29   30 1    
    33   30   31 1    
    34   31   32 ar   
    35   31   33 ar   
@<TRIPOS>SUBSTRUCTURE
     1 MTX617      1 GROUP   
@<TRIPOS>SET

