#    Name: 6o15_1_NAD
#    Modification time : Fri May 22 19:35:08 2020

@<TRIPOS>MOLECULE
6o15_1_NAD
   70    74     1     0     1
SMALL
NO_CHARGES


@<TRIPOS>ATOM
      1 PA         -9.9420    4.2710  -30.2940 P.3       1 NAD402      0.0000 
      2 O1A        -9.1300    3.0250  -30.3960 O.co2     1 NAD402      0.0000 
      3 O2A       -11.4260    4.1730  -30.4570 O.co2     1 NAD402      0.0000 
      4 O5B        -9.4030    5.4090  -31.3100 O.3       1 NAD402      0.0000 
      5 C5B        -8.0690    5.6250  -31.5590 C.3       1 NAD402      0.0000 
      6 C4B        -7.9690    6.1990  -32.9800 C.3       1 NAD402      0.0000 
      7 O4B        -6.6830    6.5220  -33.1750 O.3       1 NAD402      0.0000 
      8 C3B        -8.3900    5.1850  -34.0750 C.3       1 NAD402      0.0000 
      9 O3B        -9.3410    5.7240  -34.8970 O.3       1 NAD402      0.0000 
     10 C2B        -7.0070    4.9110  -34.7230 C.3       1 NAD402      0.0000 
     11 O2B        -7.2010    4.5420  -36.1390 O.3       1 NAD402      0.0000 
     12 C1B        -6.3600    6.0570  -34.6490 C.3       1 NAD402      0.0000 
     13 N9A        -4.9290    6.0490  -34.7820 N.pl3     1 NAD402      0.0000 
     14 C8A        -4.1340    5.0200  -34.4800 C.2       1 NAD402      0.0000 
     15 N7A        -2.8750    5.3890  -34.7420 N.2       1 NAD402      0.0000 
     16 C5A        -2.9060    6.6310  -35.2420 C.ar      1 NAD402      0.0000 
     17 C6A        -1.9420    7.5010  -35.6880 C.ar      1 NAD402      0.0000 
     18 N6A        -0.5260    7.2480  -35.7410 N.pl3     1 NAD402      0.0000 
     19 N1A        -2.2420    8.7110  -36.1290 N.ar      1 NAD402      0.0000 
     20 C2A        -3.5320    9.0910  -36.1500 C.ar      1 NAD402      0.0000 
     21 N3A        -4.4840    8.2470  -35.7290 N.ar      1 NAD402      0.0000 
     22 C4A        -4.1770    7.0320  -35.2650 C.ar      1 NAD402      0.0000 
     23 O3         -9.5580    4.8420  -28.8070 O.3       1 NAD402      0.0000 
     24 PN        -10.3250    6.0670  -28.0260 P.3       1 NAD402      0.0000 
     25 O1N       -11.2800    5.4790  -27.0510 O.co2     1 NAD402      0.0000 
     26 O2N       -10.8720    7.0710  -28.9960 O.co2     1 NAD402      0.0000 
     27 O5D        -9.0350    6.7020  -27.2450 O.3       1 NAD402      0.0000 
     28 C5D        -8.2660    7.7090  -27.8120 C.3       1 NAD402      0.0000 
     29 C4D        -7.8060    8.6520  -26.7520 C.3       1 NAD402      0.0000 
     30 O4D        -8.8250    9.2200  -26.0760 O.3       1 NAD402      0.0000 
     31 C3D        -6.9440    7.8840  -25.6030 C.3       1 NAD402      0.0000 
     32 O3D        -5.8420    8.8260  -25.2790 O.3       1 NAD402      0.0000 
     33 C2D        -7.7890    7.6610  -24.6600 C.3       1 NAD402      0.0000 
     34 O2D        -7.1610    7.5310  -23.3130 O.3       1 NAD402      0.0000 
     35 C1D        -8.7090    8.9540  -24.6220 C.3       1 NAD402      0.0000 
     36 N1N        -9.9610    8.8340  -24.0960 N.pl3     1 NAD402      0.0000 
     37 C2N       -10.3830    9.7720  -23.1950 C.ar      1 NAD402      0.0000 
     38 C3N       -11.6430    9.6910  -22.6330 C.ar      1 NAD402      0.0000 
     39 C7N       -12.0470   10.7770  -21.6270 C.2       1 NAD402      0.0000 
     40 O7N       -13.0850   10.6640  -20.9950 O.2       1 NAD402      0.0000 
     41 N7N       -11.1810   11.9270  -21.4920 N.am      1 NAD402      0.0000 
     42 C4N       -12.4930    8.6690  -22.9570 C.ar      1 NAD402      0.0000 
     43 C5N       -12.0820    7.7460  -23.8800 C.ar      1 NAD402      0.0000 
     44 C6N       -10.8090    7.8240  -24.4440 C.ar      1 NAD402      0.0000 
     45 H51A       -7.5820    4.7880  -31.5040 H         1 NAD402      0.0000 
     46 H52A       -7.7090    6.2590  -30.9190 H         1 NAD402      0.0000 
     47 H4B        -8.5170    6.9960  -33.0530 H         1 NAD402      0.0000 
     48 H3B        -8.7260    4.3740  -33.6620 H         1 NAD402      0.0000 
     49 HO3A       -9.1040    6.5060  -35.1300 H         1 NAD402      0.0000 
     50 H2B        -6.5320    4.2160  -34.2410 H         1 NAD402      0.0000 
     51 HO2A       -6.4610    4.2860  -36.4680 H         1 NAD402      0.0000 
     52 H1B        -6.7470    6.6860  -35.2790 H         1 NAD402      0.0000 
     53 H8A        -4.4030    4.2060  -34.1180 H         1 NAD402      0.0000 
     54 H61A       -0.2280    6.5510  -36.1470 H         1 NAD402      0.0000 
     55 H62A        0.0220    7.7940  -35.3660 H         1 NAD402      0.0000 
     56 H2A        -3.7920    9.9290  -36.4590 H         1 NAD402      0.0000 
     57 H51N       -8.7980    8.1900  -28.4650 H         1 NAD402      0.0000 
     58 H52N       -7.4950    7.3170  -28.2510 H         1 NAD402      0.0000 
     59 H4D        -7.2590    9.3460  -27.1510 H         1 NAD402      0.0000 
     60 H3D        -6.5930    7.0480  -25.9480 H         1 NAD402      0.0000 
     61 HO3N       -5.1030    8.4070  -25.2730 H         1 NAD402      0.0000 
     62 H2D        -8.3210    6.8770  -24.8670 H         1 NAD402      0.0000 
     63 HO2N       -6.7190    6.8070  -23.2730 H         1 NAD402      0.0000 
     64 H1D        -8.2330    9.6830  -24.1940 H         1 NAD402      0.0000 
     65 H2N        -9.8140   10.4670  -22.9530 H         1 NAD402      0.0000 
     66 H71N      -11.3820   12.5540  -20.9390 H         1 NAD402      0.0000 
     67 H72N      -10.4600   11.9780  -21.9570 H         1 NAD402      0.0000 
     68 H4N       -13.3460    8.6250  -22.5900 H         1 NAD402      0.0000 
     69 H5N       -12.6480    7.0460  -24.1140 H         1 NAD402      0.0000 
     70 H6N       -10.5340    7.1790  -25.0550 H         1 NAD402      0.0000 
@<TRIPOS>BOND
     1    1    2 ar   
     2    1    3 ar   
     3    1    4 1    
     4    1   23 1    
     5    4    5 1    
     6    5    6 1    
     7    5   45 1    
     8    5   46 1    
     9    6    7 1    
    10    6    8 1    
    11    6   47 1    
    12    7   12 1    
    13    8    9 1    
    14    8   10 1    
    15    8   48 1    
    16    9   49 1    
    17   10   11 1    
    18   10   12 1    
    19   10   50 1    
    20   12   52 1    
    21   12   13 1    
    22   11   51 1    
    23   13   14 1    
    24   13   22 1    
    25   14   15 2    
    26   15   16 1    
    27   14   53 1    
    28   16   17 ar   
    29   16   22 ar   
    30   17   18 1    
    31   17   19 ar   
    32   19   20 ar   
    33   18   54 1    
    34   18   55 1    
    35   20   21 ar   
    36   21   22 ar   
    37   20   56 1    
    38   23   24 1    
    39   24   25 ar   
    40   24   26 ar   
    41   24   27 1    
    42   27   28 1    
    43   28   29 1    
    44   28   57 1    
    45   28   58 1    
    46   29   30 1    
    47   29   31 1    
    48   29   59 1    
    49   30   35 1    
    50   31   32 1    
    51   31   33 1    
    52   31   60 1    
    53   33   62 1    
    54   33   34 1    
    55   32   61 1    
    56   33   35 1    
    57   35   36 1    
    58   34   63 1    
    59   35   64 1    
    60   36   37 ar   
    61   36   44 ar   
    62   37   38 ar   
    63   38   39 1    
    64   37   65 1    
    65   38   42 ar   
    66   39   40 2    
    67   39   41 am   
    68   42   43 ar   
    69   41   66 1    
    70   41   67 1    
    71   43   44 ar   
    72   42   68 1    
    73   43   69 1    
    74   44   70 1    
@<TRIPOS>SUBSTRUCTURE
     1 NAD402      1 GROUP   
@<TRIPOS>SET
ATOM$ORANGE STATIC     ATOMS   COLORGROUP SYSTEM 
42 5 5 6 6 8 8 10 10 12 12 14 14 16 16 17 17 20 \
20 22 22 28 28 29 29 31 31 33 33 35 35 37 37 38 38 39 \
39 42 42 43 43 44 44 

