#    Name: 6o15_1_NAD_CAVITY_N1_4
#    Modification time : Fri May 22 19:35:09 2020

@<TRIPOS>MOLECULE
6o15_1_NAD_CAVITY_N1_4
   81     0     7     0     0
SMALL
NO_CHARGES


@<TRIPOS>ATOM
      1 OG        -11.6000    5.2900  -22.2700 O.3       1 SER1        0.0000 
      2 OG        -11.1100    9.3000  -20.9600 O.3       1 SER1        0.0000 
      3 OG        -11.0600    7.9600  -20.3000 O.3       1 SER1        0.0000 
      4 O          -7.8900    4.3500  -34.5900 O.2       2 ALA2        0.0000 
      5 N          -7.3500    7.0200  -32.6200 N.am      2 ALA2        0.0000 
      6 O          -7.2600    4.3300  -31.2900 O.2       2 ALA2        0.0000 
      7 O          -8.7300    4.4200  -31.0100 O.2       2 ALA2        0.0000 
      8 O         -10.2000    4.5100  -30.7300 O.2       2 ALA2        0.0000 
      9 N          -8.4800    6.4200  -30.3600 N.am      2 ALA2        0.0000 
     10 O          -8.4400    5.0800  -29.7000 O.2       2 ALA2        0.0000 
     11 O         -11.3800    5.2600  -29.1400 O.2       2 ALA2        0.0000 
     12 N          -8.1900    7.0800  -29.0500 N.am      2 ALA2        0.0000 
     13 N          -9.6600    7.1700  -28.7700 N.am      2 ALA2        0.0000 
     14 O         -11.1300    7.2600  -28.4900 O.2       2 ALA2        0.0000 
     15 O         -11.0900    5.9200  -27.8200 O.2       2 ALA2        0.0000 
     16 N          -9.4200    9.1700  -28.1100 N.am      2 ALA2        0.0000 
     17 N          -7.9000    7.7400  -27.7300 N.am      2 ALA2        0.0000 
     18 N          -7.6100    8.4000  -26.4200 N.am      2 ALA2        0.0000 
     19 N          -7.3200    9.0600  -25.1000 N.am      2 ALA2        0.0000 
     20 N          -7.2800    7.7100  -24.4400 N.am      2 ALA2        0.0000 
     21 OD1        -8.7500    7.8000  -24.1600 O.co2     3 ASP3        0.0000 
     22 OD1       -10.2200    7.8900  -23.8800 O.co2     3 ASP3        0.0000 
     23 OD1        -9.9300    8.5500  -22.5600 O.co2     3 ASP3        0.0000 
     24 OD1       -11.4000    8.6400  -22.2800 O.co2     3 ASP3        0.0000 
     25 OD1       -11.3500    7.3000  -21.6200 O.co2     3 ASP3        0.0000 
     26 OD1       -11.3100    5.9500  -20.9500 O.co2     3 ASP3        0.0000 
     27 NZ         -5.0300    6.8600  -36.4800 N.4       4 LYS4        0.0000 
     28 NZ         -6.4600    5.6100  -35.5300 N.4       4 LYS4        0.0000 
     29 NZ         -6.1700    6.2700  -34.2200 N.4       4 LYS4        0.0000 
     30 NZ         -8.7900    9.1500  -24.8200 N.4       4 LYS4        0.0000 
     31 NZ         -9.9700    9.9000  -23.2200 N.4       4 LYS4        0.0000 
     32 NZ        -11.1500   10.6500  -21.6300 N.4       4 LYS4        0.0000 
     33 CZ         -6.6800    5.6400  -28.6600 C.ar      5 PHE5        0.0000 
     34 CZ         -8.1500    5.7300  -28.3800 C.ar      5 PHE5        0.0000 
     35 CZ         -9.6200    5.8200  -28.1000 C.ar      5 PHE5        0.0000 
     36 CZ         -9.5800    4.4800  -27.4400 C.ar      5 PHE5        0.0000 
     37 CZ         -7.8600    6.3900  -27.0700 C.ar      5 PHE5        0.0000 
     38 CZ         -9.3300    6.4800  -26.7900 C.ar      5 PHE5        0.0000 
     39 CZ         -7.5700    7.0500  -25.7500 C.ar      5 PHE5        0.0000 
     40 CZ        -10.2600    9.2400  -24.5400 C.ar      5 PHE5        0.0000 
     41 CZ        -11.6900    7.9800  -23.6000 C.ar      5 PHE5        0.0000 
     42 CZ        -13.1600    8.0700  -23.3200 C.ar      5 PHE5        0.0000 
     43 CZ        -11.4400    9.9900  -22.9400 C.ar      5 PHE5        0.0000 
     44 CZ        -12.9100   10.0800  -22.6600 C.ar      5 PHE5        0.0000 
     45 CZ        -12.8700    8.7300  -22.0000 C.ar      5 PHE5        0.0000 
     46 CZ        -12.6200   10.7400  -21.3500 C.ar      5 PHE5        0.0000 
     47 CA         -6.7100    3.6000  -36.1900 C.3       6 GLY6        0.0000 
     48 CA         -2.0900    6.6800  -37.0400 C.3       6 GLY6        0.0000 
     49 CA         -3.5600    6.7700  -36.7600 C.3       6 GLY6        0.0000 
     50 CA         -3.5200    5.4300  -36.0900 C.3       6 GLY6        0.0000 
     51 CA         -3.2700    7.4300  -35.4400 C.3       6 GLY6        0.0000 
     52 CA         -4.7400    7.5200  -35.1600 C.3       6 GLY6        0.0000 
     53 CA         -1.7500    6.0000  -35.0600 C.3       6 GLY6        0.0000 
     54 CA         -3.2300    6.0900  -34.7800 C.3       6 GLY6        0.0000 
     55 CA         -4.7000    6.1800  -34.5000 C.3       6 GLY6        0.0000 
     56 CA         -3.1800    4.7400  -34.1100 C.3       6 GLY6        0.0000 
     57 CA         -4.6500    4.8300  -33.8300 C.3       6 GLY6        0.0000 
     58 CA         -6.1200    4.9200  -33.5500 C.3       6 GLY6        0.0000 
     59 CA         -9.0700    5.1000  -32.9900 C.3       6 GLY6        0.0000 
     60 CA         -5.8800    6.9300  -32.9000 C.3       6 GLY6        0.0000 
     61 CA         -7.3000    5.6700  -31.9600 C.3       6 GLY6        0.0000 
     62 CA         -8.7700    5.7600  -31.6800 C.3       6 GLY6        0.0000 
     63 CA        -10.2500    5.8500  -31.4000 C.3       6 GLY6        0.0000 
     64 CA         -7.0100    6.3300  -30.6400 C.3       6 GLY6        0.0000 
     65 CA         -6.9700    4.9900  -29.9800 C.3       6 GLY6        0.0000 
     66 CA         -9.8700    3.8200  -28.7500 C.3       6 GLY6        0.0000 
     67 CA         -9.3700    7.8300  -27.4500 C.3       6 GLY6        0.0000 
     68 CA        -10.8000    6.5700  -26.5100 C.3       6 GLY6        0.0000 
     69 CA         -7.6500    9.7400  -27.0800 C.3       6 GLY6        0.0000 
     70 CA         -9.1300    9.8300  -26.8000 C.3       6 GLY6        0.0000 
     71 CA         -9.0800    8.4900  -26.1400 C.3       6 GLY6        0.0000 
     72 CA        -10.5100    7.2300  -25.1900 C.3       6 GLY6        0.0000 
     73 DU         -4.9400    4.1700  -35.1500 H         7 CUB7        0.0000 
     74 DU         -6.4100    4.2600  -34.8700 H         7 CUB7        0.0000 
     75 DU         -1.8000    7.3400  -35.7200 H         7 CUB7        0.0000 
     76 DU         -7.5900    5.0100  -33.2700 H         7 CUB7        0.0000 
     77 DU         -9.9100    5.1700  -29.4200 H         7 CUB7        0.0000 
     78 DU         -9.0400    7.1400  -25.4700 H         7 CUB7        0.0000 
     79 DU        -11.6500    6.6400  -22.9300 H         7 CUB7        0.0000 
     80 DU        -12.8300    7.3900  -21.3400 H         7 CUB7        0.0000 
     81 DU        -12.7800    6.0400  -20.6700 H         7 CUB7        0.0000 
@<TRIPOS>BOND
@<TRIPOS>SUBSTRUCTURE
     1 SER1        1 GROUP   
     2 ALA2        4 GROUP   
     3 ASP3       21 GROUP   
     4 LYS4       27 GROUP   
     5 PHE5       33 GROUP   
     6 GLY6       47 GROUP   
     7 CUB7       73 GROUP   
@<TRIPOS>SET

