#    Name: 6nng_4_GTP
#    Modification time : Fri May 22 19:31:50 2020

@<TRIPOS>MOLECULE
6nng_4_GTP
   32    34     1     0     1
SMALL
NO_CHARGES


@<TRIPOS>ATOM
      1 PG         26.5200   11.8400   44.5120 P.3       1 GTP501      0.0000 
      2 O1G        27.4090   11.0670   45.4560 O.co2     1 GTP501      0.0000 
      3 O2G        25.2190   12.1790   45.2030 O.co2     1 GTP501      0.0000 
      4 O3G        27.2000   13.1150   44.0710 O.co2     1 GTP501      0.0000 
      5 O3B        26.2190   10.9140   43.1920 O.3       1 GTP501      0.0000 
      6 PB         24.7200   10.3460   42.8490 P.3       1 GTP501      0.0000 
      7 O1B        24.1660    9.6340   44.0570 O.co2     1 GTP501      0.0000 
      8 O2B        24.7860    9.3940   41.6760 O.co2     1 GTP501      0.0000 
      9 O3A        23.7610   11.6220   42.4830 O.3       1 GTP501      0.0000 
     10 PA         22.1500   11.4860   42.2150 P.3       1 GTP501      0.0000 
     11 O1A        21.7830   10.0240   42.0960 O.co2     1 GTP501      0.0000 
     12 O2A        21.3920   12.1060   43.3640 O.co2     1 GTP501      0.0000 
     13 O5'        21.7830   12.2600   40.8110 O.3       1 GTP501      0.0000 
     14 C5'        20.9680   13.3900   40.8530 C.3       1 GTP501      0.0000 
     15 C4'        20.1310   13.3700   39.7500 C.3       1 GTP501      0.0000 
     16 O4'        19.3830   12.0640   39.7070 O.3       1 GTP501      0.0000 
     17 C3'        18.9890   14.4910   39.8740 C.3       1 GTP501      0.0000 
     18 O3'        18.5420   14.9020   38.5030 O.3       1 GTP501      0.0000 
     19 C2'        18.0670   13.9210   40.4690 C.3       1 GTP501      0.0000 
     20 O2'        16.7700   14.5180   40.0950 O.3       1 GTP501      0.0000 
     21 C1'        18.1290   12.3380   39.9590 C.3       1 GTP501      0.0000 
     22 N9         17.6540   11.4620   40.9620 N.pl3     1 GTP501      0.0000 
     23 C8         18.0910   11.2290   42.2150 C.2       1 GTP501      0.0000 
     24 N7         17.2940   10.2860   42.7580 N.2       1 GTP501      0.0000 
     25 C5         16.3800    9.9420   41.8540 C.2       1 GTP501      0.0000 
     26 C6         15.2230    8.9360   41.8930 C.2       1 GTP501      0.0000 
     27 O6         15.0250    8.2980   42.8700 O.2       1 GTP501      0.0000 
     28 N1         14.3820    8.7690   40.7480 N.am      1 GTP501      0.0000 
     29 C2         14.6280    9.5480   39.5630 C.2       1 GTP501      0.0000 
     30 N2         13.7770    9.3820   38.3980 N.pl3     1 GTP501      0.0000 
     31 N3         15.7330   10.5060   39.5330 N.2       1 GTP501      0.0000 
     32 C4         16.6060   10.6770   40.7300 C.2       1 GTP501      0.0000 
@<TRIPOS>BOND
     1    1    2 ar   
     2    1    3 ar   
     3    1    4 ar   
     4    1    5 1    
     5    5    6 1    
     6    6    7 ar   
     7    6    8 ar   
     8    6    9 1    
     9    9   10 1    
    10   10   11 ar   
    11   10   12 ar   
    12   10   13 1    
    13   13   14 1    
    14   14   15 1    
    15   15   16 1    
    16   15   17 1    
    17   16   21 1    
    18   17   18 1    
    19   17   19 1    
    20   19   20 1    
    21   19   21 1    
    22   21   22 1    
    23   22   23 1    
    24   22   32 1    
    25   23   24 2    
    26   24   25 1    
    27   25   26 1    
    28   25   32 2    
    29   26   27 2    
    30   26   28 am   
    31   28   29 1    
    32   29   30 1    
    33   29   31 2    
    34   31   32 1    
@<TRIPOS>SUBSTRUCTURE
     1 GTP501      1 GROUP   
@<TRIPOS>SET
ATOM$ORANGE STATIC     ATOMS   COLORGROUP SYSTEM 
20 14 14 15 15 17 17 19 19 21 21 23 23 25 25 26 26 29 \
29 32 32 

