#    Name: 6nng_4_GTP_CAVITY_N1_12
#    Modification time : Fri May 22 19:31:52 2020

@<TRIPOS>MOLECULE
6nng_4_GTP_CAVITY_N1_12
   80     0     6     0     0
SMALL
NO_CHARGES


@<TRIPOS>ATOM
      1 OG         22.5600   10.2900   41.6600 O.3       1 SER1        0.0000 
      2 OG         23.6600   11.1400   41.0900 O.3       1 SER1        0.0000 
      3 OG         21.5500   11.3100   41.2200 O.3       1 SER1        0.0000 
      4 OG         22.6500   12.1500   40.6500 O.3       1 SER1        0.0000 
      5 OG         20.5300   12.3200   40.7800 O.3       1 SER1        0.0000 
      6 OG         18.4200   12.4900   40.9000 O.3       1 SER1        0.0000 
      7 OG         17.4100   13.5000   40.4600 O.3       1 SER1        0.0000 
      8 OG         17.4600   12.3400   42.7800 O.3       1 SER1        0.0000 
      9 OG         18.5600   13.1900   42.2200 O.3       1 SER1        0.0000 
     10 OG         20.7500   14.8900   41.0900 O.3       1 SER1        0.0000 
     11 OG         18.6400   15.0600   41.2100 O.3       1 SER1        0.0000 
     12 OG         18.6900   13.9000   43.5300 O.3       1 SER1        0.0000 
     13 OG         20.8900   15.6000   42.4000 O.3       1 SER1        0.0000 
     14 OG         18.7800   15.7600   42.5300 O.3       1 SER1        0.0000 
     15 OG         17.8100   15.6200   44.4100 O.3       1 SER1        0.0000 
     16 OG         18.9100   16.4700   43.8400 O.3       1 SER1        0.0000 
     17 N          17.1900   10.9300   40.1500 N.am      2 ALA2        0.0000 
     18 O          16.1800   11.9500   39.7000 O.2       2 ALA2        0.0000 
     19 O          17.2800   12.8000   39.1400 O.2       2 ALA2        0.0000 
     20 O          18.3800   13.6500   38.5700 O.2       2 ALA2        0.0000 
     21 O          24.8000   10.8300   42.8500 O.2       2 ALA2        0.0000 
     22 O          17.3700   10.4800   43.7900 O.2       2 ALA2        0.0000 
     23 O          18.4700   11.3300   43.2200 O.2       2 ALA2        0.0000 
     24 O          19.5700   12.1800   42.6600 O.2       2 ALA2        0.0000 
     25 O          26.0300   12.3800   43.6100 O.2       2 ALA2        0.0000 
     26 N          23.9200   12.5500   43.7300 N.am      2 ALA2        0.0000 
     27 N          25.0200   13.4000   43.1600 N.am      2 ALA2        0.0000 
     28 N          21.8100   12.7100   43.8500 N.am      2 ALA2        0.0000 
     29 N          22.9100   13.5600   43.2900 N.am      2 ALA2        0.0000 
     30 O          19.7000   12.8800   43.9800 O.2       2 ALA2        0.0000 
     31 N          21.9000   14.5800   42.8500 N.am      2 ALA2        0.0000 
     32 O          17.5900   13.0500   44.1000 O.2       2 ALA2        0.0000 
     33 N          21.9900   16.4500   41.8400 N.am      2 ALA2        0.0000 
     34 O          26.1700   13.0900   44.9200 O.2       2 ALA2        0.0000 
     35 N          22.9500   12.4000   45.6100 N.am      2 ALA2        0.0000 
     36 N          24.0500   13.2500   45.0500 N.am      2 ALA2        0.0000 
     37 N          21.9400   13.4200   45.1700 N.am      2 ALA2        0.0000 
     38 N          23.0400   14.2700   44.6000 N.am      2 ALA2        0.0000 
     39 O          19.8300   13.5900   45.2900 O.2       2 ALA2        0.0000 
     40 N          20.9300   14.4300   44.7300 N.am      2 ALA2        0.0000 
     41 N          22.0300   15.2800   44.1600 N.am      2 ALA2        0.0000 
     42 O          26.3000   13.7900   46.2400 O.2       2 ALA2        0.0000 
     43 N          23.0900   13.1100   46.9300 N.am      2 ALA2        0.0000 
     44 N          25.2900   14.8100   45.8000 N.am      2 ALA2        0.0000 
     45 O          26.4300   14.5000   47.5600 O.2       2 ALA2        0.0000 
     46 NZ         20.6200   14.1900   39.7700 N.4       3 LYS4        0.0000 
     47 NZ         21.8500   15.7400   40.5200 N.4       3 LYS4        0.0000 
     48 NZ         25.2000   12.9400   46.8100 N.4       3 LYS4        0.0000 
     49 NZ         24.2300   12.8000   48.6900 N.4       3 LYS4        0.0000 
     50 NZ         25.3300   13.6500   48.1200 N.4       3 LYS4        0.0000 
     51 CZ         16.2200   10.7900   42.0300 C.ar      4 PHE5        0.0000 
     52 CZ         17.3200   11.6400   41.4600 C.ar      4 PHE5        0.0000 
     53 CA         18.2900   11.7800   39.5800 C.3       5 GLY6        0.0000 
     54 CA         19.3900   12.6300   39.0200 C.3       5 GLY6        0.0000 
     55 CA         20.4500   10.4600   41.7800 C.3       5 GLY6        0.0000 
     56 CA         17.2400    9.7700   42.4700 C.3       5 GLY6        0.0000 
     57 CA         18.3300   10.6200   41.9000 C.3       5 GLY6        0.0000 
     58 CA         19.4300   11.4700   41.3400 C.3       5 GLY6        0.0000 
     59 CA         18.5100   14.3500   39.8900 C.3       5 GLY6        0.0000 
     60 CA         22.6900   10.9900   42.9800 C.3       5 GLY6        0.0000 
     61 CA         23.7900   11.8400   42.4100 C.3       5 GLY6        0.0000 
     62 CA         20.5800   11.1600   43.1000 C.3       5 GLY6        0.0000 
     63 CA         21.6800   12.0100   42.5300 C.3       5 GLY6        0.0000 
     64 CA         22.7800   12.8600   41.9700 C.3       5 GLY6        0.0000 
     65 CA         21.7700   13.8800   41.5300 C.3       5 GLY6        0.0000 
     66 CA         22.8700   14.7200   40.9600 C.3       5 GLY6        0.0000 
     67 CA         22.8200   11.7000   44.2900 C.3       5 GLY6        0.0000 
     68 CA         21.0200   16.3000   43.7200 C.3       5 GLY6        0.0000 
     69 CA         22.1200   17.1500   43.1600 C.3       5 GLY6        0.0000 
     70 CA         20.0100   17.3200   43.2800 C.3       5 GLY6        0.0000 
     71 CA         26.2100   11.9300   47.2500 C.3       5 GLY6        0.0000 
     72 DU         19.5200   13.3400   40.3300 H         6 CUB7        0.0000 
     73 DU         20.6700   13.0300   42.0900 H         6 CUB7        0.0000 
     74 DU         19.6600   14.0400   41.6500 H         6 CUB7        0.0000 
     75 DU         24.9300   11.5300   44.1700 H         6 CUB7        0.0000 
     76 DU         20.8000   13.7300   43.4100 H         6 CUB7        0.0000 
     77 DU         19.7900   14.7500   42.9700 H         6 CUB7        0.0000 
     78 DU         25.0700   12.2400   45.4900 H         6 CUB7        0.0000 
     79 DU         19.9200   15.4500   44.2900 H         6 CUB7        0.0000 
     80 DU         24.1900   13.9600   46.3600 H         6 CUB7        0.0000 
@<TRIPOS>BOND
@<TRIPOS>SUBSTRUCTURE
     1 SER1        1 GROUP   
     2 ALA2       17 GROUP   
     3 LYS4       46 GROUP   
     4 PHE5       51 GROUP   
     5 GLY6       53 GROUP   
     6 CUB7       72 GROUP   
@<TRIPOS>SET

