#    Name: 6nng_5_ACP
#    Modification time : Fri May 22 19:31:56 2020

@<TRIPOS>MOLECULE
6nng_5_ACP
   31    33     1     0     1
SMALL
NO_CHARGES


@<TRIPOS>ATOM
      1 PG          8.0560  -50.2630  -93.4030 P.3       1 ACP402      0.0000 
      2 O1G         7.6580  -51.6210  -92.8760 O.co2     1 ACP402      0.0000 
      3 O2G         9.2330  -49.7440  -92.6120 O.co2     1 ACP402      0.0000 
      4 O3G         6.8910  -49.3120  -93.2620 O.co2     1 ACP402      0.0000 
      5 PB         10.3200  -49.9870  -95.4410 P.3       1 ACP402      0.0000 
      6 O1B        11.1790  -50.9880  -94.7070 O.co2     1 ACP402      0.0000 
      7 O2B        10.5950  -48.6010  -94.9050 O.co2     1 ACP402      0.0000 
      8 C3B         8.5200  -50.3970  -95.2000 C.3       1 ACP402      0.0000 
      9 PA         10.3040  -51.2750  -98.0650 P.3       1 ACP402      0.0000 
     10 O1A         9.6820  -52.4160  -97.2960 O.co2     1 ACP402      0.0000 
     11 O2A        11.5500  -51.7610  -98.7660 O.co2     1 ACP402      0.0000 
     12 O3A        10.6800  -50.0290  -97.0500 O.3       1 ACP402      0.0000 
     13 O5'         9.2250  -50.7320  -99.1830 O.3       1 ACP402      0.0000 
     14 C5'         9.0570  -49.3500  -99.3170 C.3       1 ACP402      0.0000 
     15 C4'         8.6970  -49.0490 -100.7930 C.3       1 ACP402      0.0000 
     16 O4'         9.5820  -49.5970 -101.5800 O.3       1 ACP402      0.0000 
     17 C3'         7.3720  -49.7460 -101.1410 C.3       1 ACP402      0.0000 
     18 O3'         6.3370  -48.8870 -100.9700 O.3       1 ACP402      0.0000 
     19 C2'         7.5150  -50.0850 -102.6320 C.3       1 ACP402      0.0000 
     20 O2'         6.8930  -48.9840 -103.4240 O.3       1 ACP402      0.0000 
     21 C1'         8.7940  -50.1320 -102.8900 C.3       1 ACP402      0.0000 
     22 N9          9.1940  -51.4810 -103.2040 N.pl3     1 ACP402      0.0000 
     23 C8          9.8980  -52.3210 -102.4420 C.2       1 ACP402      0.0000 
     24 N7         10.0490  -53.4640 -103.1170 N.2       1 ACP402      0.0000 
     25 C5          9.4370  -53.3300 -104.3020 C.ar      1 ACP402      0.0000 
     26 C6          9.2890  -54.1900 -105.3670 C.ar      1 ACP402      0.0000 
     27 N6          9.7280  -55.5500 -105.6190 N.pl3     1 ACP402      0.0000 
     28 N1          8.6250  -53.8000 -106.4410 N.ar      1 ACP402      0.0000 
     29 C2          8.0890  -52.5590 -106.4990 C.ar      1 ACP402      0.0000 
     30 N3          8.2350  -51.7140 -105.4550 N.ar      1 ACP402      0.0000 
     31 C4          8.9090  -52.1050 -104.3570 C.ar      1 ACP402      0.0000 
@<TRIPOS>BOND
     1    1    2 ar   
     2    1    3 ar   
     3    1    4 ar   
     4    1    8 1    
     5    5    6 ar   
     6    5    7 ar   
     7    5    8 1    
     8    5   12 1    
     9    9   10 ar   
    10    9   11 ar   
    11    9   12 1    
    12    9   13 1    
    13   13   14 1    
    14   14   15 1    
    15   15   16 1    
    16   15   17 1    
    17   16   21 1    
    18   17   18 1    
    19   17   19 1    
    20   19   20 1    
    21   19   21 1    
    22   21   22 1    
    23   22   23 1    
    24   22   31 1    
    25   23   24 2    
    26   24   25 1    
    27   25   26 ar   
    28   25   31 ar   
    29   26   27 1    
    30   26   28 ar   
    31   28   29 ar   
    32   29   30 ar   
    33   30   31 ar   
@<TRIPOS>SUBSTRUCTURE
     1 ACP402      1 GROUP   
@<TRIPOS>SET
ATOM$ORANGE STATIC     ATOMS   COLORGROUP SYSTEM 
22 8 8 14 14 15 15 17 17 19 19 21 21 23 23 25 25 26 \
26 29 29 31 31 

