#    Name: 5ywm_1_NIO
#    Modification time : Fri May 22 19:37:17 2020

@<TRIPOS>MOLECULE
5ywm_1_NIO
    9     9     1     0     0
SMALL
NO_CHARGES


@<TRIPOS>ATOM
      1 N           9.0460  123.6430    9.2530 N.ar      1 NIO403      0.0000 
      2 C1          8.5430  122.5240    9.8550 C.ar      1 NIO403      0.0000 
      3 C2          7.5700  121.6830    9.2430 C.ar      1 NIO403      0.0000 
      4 C3          7.0890  122.0070    7.9760 C.ar      1 NIO403      0.0000 
      5 C4          7.5930  123.1470    7.3550 C.ar      1 NIO403      0.0000 
      6 C5          8.5610  123.9190    8.0280 C.ar      1 NIO403      0.0000 
      7 C6          7.0680  120.4210    9.9850 C.2       1 NIO403      0.0000 
      8 O1          7.5820  120.1310   11.0930 O.co2     1 NIO403      0.0000 
      9 O2          6.1870  119.7440    9.3990 O.co2     1 NIO403      0.0000 
@<TRIPOS>BOND
     1    1    2 ar   
     2    1    6 ar   
     3    2    3 ar   
     4    3    4 ar   
     5    3    7 1    
     6    4    5 ar   
     7    5    6 ar   
     8    7    8 ar   
     9    7    9 ar   
@<TRIPOS>SUBSTRUCTURE
     1 NIO403      1 GROUP   
@<TRIPOS>SET

