#    Name: 5ycp_1_BRL
#    Modification time : Fri May 22 19:17:40 2020

@<TRIPOS>MOLECULE
5ycp_1_BRL
   25    27     1     0     0
SMALL
NO_CHARGES


@<TRIPOS>ATOM
      1 S1         19.4190  -19.7460    0.6830 S.3       1 BRL501      0.0000 
      2 O2         17.9360  -18.5230    2.4130 O.2       1 BRL501      0.0000 
      3 O4         18.2160  -17.3130   -1.8700 O.2       1 BRL501      0.0000 
      4 O13        22.3400  -24.5000   -2.8510 O.3       1 BRL501      0.0000 
      5 N3         17.9300  -17.7640    0.3070 N.am      1 BRL501      0.0000 
      6 N16        24.7980  -25.6410   -1.9210 N.pl3     1 BRL501      0.0000 
      7 N18        26.5550  -24.1560   -2.2340 N.ar      1 BRL501      0.0000 
      8 C2         18.3570  -18.5790    1.2640 C.2       1 BRL501      0.0000 
      9 C4         18.4790  -18.0370   -0.9090 C.2       1 BRL501      0.0000 
     10 C5         19.3310  -19.2000   -1.0250 C.3       1 BRL501      0.0000 
     11 C6         18.6890  -20.2890   -1.9060 C.3       1 BRL501      0.0000 
     12 C7         19.6420  -21.3280   -2.1790 C.ar      1 BRL501      0.0000 
     13 C8         20.7160  -21.1500   -3.0800 C.ar      1 BRL501      0.0000 
     14 C9         21.6290  -22.1690   -3.3350 C.ar      1 BRL501      0.0000 
     15 C10        21.5030  -23.4040   -2.6820 C.ar      1 BRL501      0.0000 
     16 C11        20.4390  -23.5730   -1.8030 C.ar      1 BRL501      0.0000 
     17 C12        19.5250  -22.5600   -1.5550 C.ar      1 BRL501      0.0000 
     18 C14        23.5940  -24.2160   -3.4380 C.3       1 BRL501      0.0000 
     19 C15        24.4250  -25.4710   -3.3540 C.3       1 BRL501      0.0000 
     20 C16        23.9530  -26.5030   -1.0440 C.3       1 BRL501      0.0000 
     21 C17        25.8390  -24.9730   -1.3960 C.ar      1 BRL501      0.0000 
     22 C19        27.6610  -23.4200   -1.8190 C.ar      1 BRL501      0.0000 
     23 C20        28.0530  -23.5040   -0.4940 C.ar      1 BRL501      0.0000 
     24 C21        27.3490  -24.3480    0.3710 C.ar      1 BRL501      0.0000 
     25 C22        26.2470  -25.0900   -0.0480 C.ar      1 BRL501      0.0000 
@<TRIPOS>BOND
     1    1    8 1    
     2    1   10 1    
     3    2    8 2    
     4    3    9 2    
     5    4   15 1    
     6    4   18 1    
     7    5    8 am   
     8    5    9 am   
     9    6   19 1    
    10    6   20 1    
    11    6   21 1    
    12    7   21 ar   
    13    7   22 ar   
    14    9   10 1    
    15   10   11 1    
    16   11   12 1    
    17   12   13 ar   
    18   12   17 ar   
    19   13   14 ar   
    20   14   15 ar   
    21   15   16 ar   
    22   16   17 ar   
    23   18   19 1    
    24   21   25 ar   
    25   22   23 ar   
    26   23   24 ar   
    27   24   25 ar   
@<TRIPOS>SUBSTRUCTURE
     1 BRL501      1 GROUP   
@<TRIPOS>SET

