#    Name: 6sk1_1_COA
#    Modification time : Fri May 22 19:24:53 2020

@<TRIPOS>MOLECULE
6sk1_1_COA
   48    50     1     0     1
SMALL
NO_CHARGES


@<TRIPOS>ATOM
      1 N1A       -13.6500  -32.1370  -22.9700 N.ar      1 COA201      0.0000 
      2 C2A       -12.4770  -31.7650  -23.3830 C.ar      1 COA201      0.0000 
      3 N3A       -12.0510  -30.5220  -23.5490 N.ar      1 COA201      0.0000 
      4 C4A       -12.9800  -29.6090  -23.1710 C.ar      1 COA201      0.0000 
      5 C5A       -14.2550  -29.8980  -22.7120 C.ar      1 COA201      0.0000 
      6 C6A       -14.6400  -31.2760  -22.5800 C.ar      1 COA201      0.0000 
      7 N6A       -15.8190  -31.6550  -22.1520 N.pl3     1 COA201      0.0000 
      8 N7A       -14.9530  -28.7380  -22.4060 N.2       1 COA201      0.0000 
      9 C8A       -14.0510  -27.8360  -22.7200 C.2       1 COA201      0.0000 
     10 N9A       -12.8980  -28.2590  -23.1600 N.pl3     1 COA201      0.0000 
     11 C1B       -11.7510  -27.4840  -23.4920 C.3       1 COA201      0.0000 
     12 C2B       -11.8590  -26.5450  -24.6490 C.3       1 COA201      0.0000 
     13 O2B       -11.5020  -27.2880  -25.8670 O.3       1 COA201      0.0000 
     14 C3B       -10.9580  -25.3750  -24.3460 C.3       1 COA201      0.0000 
     15 O3B        -9.5770  -25.7880  -24.5570 O.3       1 COA201      0.0000 
     16 P3B        -8.4580  -24.8010  -25.1990 P.3       1 COA201      0.0000 
     17 O7A        -8.2910  -23.7340  -24.1770 O.co2     1 COA201      0.0000 
     18 O8A        -7.2550  -25.7950  -25.4200 O.co2     1 COA201      0.0000 
     19 O9A        -9.0670  -24.3440  -26.4850 O.co2     1 COA201      0.0000 
     20 C4B       -11.1350  -25.2830  -22.8380 C.3       1 COA201      0.0000 
     21 O4B       -11.5300  -26.5630  -22.3910 O.3       1 COA201      0.0000 
     22 C5B       -12.1910  -24.3160  -22.3950 C.3       1 COA201      0.0000 
     23 O5B       -13.3830  -24.4530  -23.1870 O.3       1 COA201      0.0000 
     24 P1A       -14.6540  -23.5670  -23.0410 P.3       1 COA201      0.0000 
     25 O1A       -15.5600  -23.8810  -24.1910 O.co2     1 COA201      0.0000 
     26 O2A       -14.2390  -22.1390  -22.8120 O.co2     1 COA201      0.0000 
     27 O3A       -15.3000  -24.1350  -21.7150 O.3       1 COA201      0.0000 
     28 P2A       -16.8180  -24.0900  -21.2870 P.3       1 COA201      0.0000 
     29 O4A       -17.3860  -22.7380  -21.6270 O.co2     1 COA201      0.0000 
     30 O5A       -17.5480  -25.3010  -21.8220 O.co2     1 COA201      0.0000 
     31 O6A       -16.7420  -24.1990  -19.6880 O.3       1 COA201      0.0000 
     32 CBP       -16.4970  -25.4400  -17.6720 C.3       1 COA201      0.0000 
     33 CCP       -15.8760  -25.1290  -18.9980 C.3       1 COA201      0.0000 
     34 CDP       -15.4380  -26.1880  -16.8970 C.3       1 COA201      0.0000 
     35 CEP       -16.7710  -24.1300  -16.9520 C.3       1 COA201      0.0000 
     36 CAP       -17.7920  -26.2470  -17.8060 C.3       1 COA201      0.0000 
     37 OAP       -17.4400  -27.5720  -18.3670 O.3       1 COA201      0.0000 
     38 C9P       -18.5270  -26.4350  -16.5500 C.2       1 COA201      0.0000 
     39 O9P       -19.3090  -25.5620  -16.1820 O.2       1 COA201      0.0000 
     40 N8P       -18.3140  -27.5210  -15.8750 N.am      1 COA201      0.0000 
     41 C7P       -19.1590  -27.8530  -14.6830 C.3       1 COA201      0.0000 
     42 C6P       -18.7210  -26.9530  -13.5620 C.3       1 COA201      0.0000 
     43 C5P       -17.2590  -27.1460  -13.2350 C.2       1 COA201      0.0000 
     44 O5P       -16.8470  -28.2510  -13.1550 O.2       1 COA201      0.0000 
     45 N4P       -16.4380  -26.0670  -13.0190 N.am      1 COA201      0.0000 
     46 C3P       -15.1300  -26.0560  -12.6820 C.3       1 COA201      0.0000 
     47 C2P       -15.0460  -26.3320  -11.1770 C.3       1 COA201      0.0000 
     48 S1P       -15.6220  -24.8480  -10.1440 S.3       1 COA201      0.0000 
@<TRIPOS>BOND
     1    1    2 ar   
     2    1    6 ar   
     3    2    3 ar   
     4    3    4 ar   
     5    4    5 ar   
     6    4   10 1    
     7    5    6 ar   
     8    5    8 1    
     9    6    7 1    
    10    8    9 2    
    11    9   10 1    
    12   10   11 1    
    13   11   12 1    
    14   11   21 1    
    15   12   13 1    
    16   12   14 1    
    17   14   15 1    
    18   14   20 1    
    19   15   16 1    
    20   16   17 ar   
    21   16   18 ar   
    22   16   19 ar   
    23   20   21 1    
    24   20   22 1    
    25   22   23 1    
    26   23   24 1    
    27   24   25 ar   
    28   24   26 ar   
    29   24   27 1    
    30   27   28 1    
    31   28   29 ar   
    32   28   30 ar   
    33   28   31 1    
    34   31   33 1    
    35   32   33 1    
    36   32   34 1    
    37   32   35 1    
    38   32   36 1    
    39   36   37 1    
    40   36   38 1    
    41   38   39 2    
    42   38   40 am   
    43   40   41 1    
    44   41   42 1    
    45   42   43 1    
    46   43   44 2    
    47   43   45 am   
    48   45   46 1    
    49   46   47 1    
    50   47   48 1    
@<TRIPOS>SUBSTRUCTURE
     1 COA201      1 GROUP   
@<TRIPOS>SET
ATOM$ORANGE STATIC     ATOMS   COLORGROUP SYSTEM 
42 2 2 4 4 5 5 6 6 9 9 11 11 12 12 14 14 20 \
20 22 22 32 32 33 33 34 34 35 35 36 36 38 38 41 41 42 \
42 43 43 46 46 47 47 

