#    Name: 6n8v_6_ATP
#    Modification time : Fri May 22 19:32:06 2020

@<TRIPOS>MOLECULE
6n8v_6_ATP
   31    33     1     0     1
SMALL
NO_CHARGES


@<TRIPOS>ATOM
      1 PG        109.1820  157.8040  103.5270 P.3       1 ATP902      0.0000 
      2 O1G       109.5230  157.3750  102.1430 O.co2     1 ATP902      0.0000 
      3 O2G       108.8860  156.5390  104.4160 O.co2     1 ATP902      0.0000 
      4 O3G       110.3780  158.6000  104.1720 O.co2     1 ATP902      0.0000 
      5 PB        107.1630  158.7010  105.0310 P.3       1 ATP902      0.0000 
      6 O1B       105.6260  158.5600  104.9500 O.co2     1 ATP902      0.0000 
      7 O2B       107.7040  157.5410  105.7860 O.co2     1 ATP902      0.0000 
      8 O3B       107.8140  158.7890  103.5020 O.3       1 ATP902      0.0000 
      9 PA        106.2160  160.9880  105.5910 P.3       1 ATP902      0.0000 
     10 O1A       106.2250  161.4440  104.1950 O.co2     1 ATP902      0.0000 
     11 O2A       104.9340  160.2130  105.9270 O.co2     1 ATP902      0.0000 
     12 O3A       107.4120  160.0040  105.8050 O.3       1 ATP902      0.0000 
     13 O5'       106.4540  162.2200  106.5610 O.3       1 ATP902      0.0000 
     14 C5'       107.7110  162.8830  106.7740 C.3       1 ATP902      0.0000 
     15 C4'       107.4510  164.2880  107.2740 C.3       1 ATP902      0.0000 
     16 O4'       106.8660  165.0790  106.2220 O.3       1 ATP902      0.0000 
     17 C3'       106.5370  164.3910  108.4950 C.3       1 ATP902      0.0000 
     18 O3'       107.2670  164.8200  109.6380 O.3       1 ATP902      0.0000 
     19 C2'       105.4800  165.4360  108.1160 C.3       1 ATP902      0.0000 
     20 O2'       105.7470  166.6920  108.7290 O.3       1 ATP902      0.0000 
     21 C1'       105.5860  165.5420  106.5950 C.3       1 ATP902      0.0000 
     22 N9        104.5870  164.8020  105.8350 N.pl3     1 ATP902      0.0000 
     23 C8        104.8270  163.9470  104.7910 C.2       1 ATP902      0.0000 
     24 N7        103.7500  163.4330  104.2640 N.2       1 ATP902      0.0000 
     25 C5        102.7170  164.0060  104.9910 C.ar      1 ATP902      0.0000 
     26 C6        101.3260  163.8730  104.9220 C.ar      1 ATP902      0.0000 
     27 N6        100.7030  163.0850  104.0470 N.pl3     1 ATP902      0.0000 
     28 N1        100.5860  164.5850  105.7950 N.ar      1 ATP902      0.0000 
     29 C2        101.2080  165.3540  106.6890 C.ar      1 ATP902      0.0000 
     30 N3        102.5150  165.5640  106.8470 N.ar      1 ATP902      0.0000 
     31 C4        103.2250  164.8560  105.9590 C.ar      1 ATP902      0.0000 
@<TRIPOS>BOND
     1    1    2 ar   
     2    1    3 ar   
     3    1    4 ar   
     4    1    8 1    
     5    5    6 ar   
     6    5    7 ar   
     7    5    8 1    
     8    5   12 1    
     9    9   10 ar   
    10    9   11 ar   
    11    9   12 1    
    12    9   13 1    
    13   13   14 1    
    14   14   15 1    
    15   15   16 1    
    16   15   17 1    
    17   16   21 1    
    18   17   18 1    
    19   17   19 1    
    20   19   20 1    
    21   19   21 1    
    22   21   22 1    
    23   22   23 1    
    24   22   31 1    
    25   23   24 2    
    26   24   25 1    
    27   25   26 ar   
    28   25   31 ar   
    29   26   27 1    
    30   26   28 ar   
    31   28   29 ar   
    32   29   30 ar   
    33   30   31 ar   
@<TRIPOS>SUBSTRUCTURE
     1 ATP902      1 GROUP   
@<TRIPOS>SET
ATOM$ORANGE STATIC     ATOMS   COLORGROUP SYSTEM 
20 14 14 15 15 17 17 19 19 21 21 23 23 25 25 26 26 29 \
29 31 31 

