#    Name: 6n8v_1_ATP
#    Modification time : Fri May 22 19:29:51 2020

@<TRIPOS>MOLECULE
6n8v_1_ATP
   31    33     1     0     1
SMALL
NO_CHARGES


@<TRIPOS>ATOM
      1 PG        166.7860  105.5540  118.2670 P.3       1 ATP901      0.0000 
      2 O1G       165.5930  106.3150  117.7960 O.co2     1 ATP901      0.0000 
      3 O2G       167.5810  106.4190  119.3140 O.co2     1 ATP901      0.0000 
      4 O3G       166.3670  104.1700  118.8920 O.co2     1 ATP901      0.0000 
      5 PB        168.5310  106.7990  117.0660 P.3       1 ATP901      0.0000 
      6 O1B       167.4710  107.7720  117.6420 O.co2     1 ATP901      0.0000 
      7 O2B       169.6680  106.6810  118.0170 O.co2     1 ATP901      0.0000 
      8 O3B       167.7810  105.3320  116.9340 O.3       1 ATP901      0.0000 
      9 PA        170.3650  107.0510  115.1900 P.3       1 ATP901      0.0000 
     10 O1A       170.4360  107.3750  113.7570 O.co2     1 ATP901      0.0000 
     11 O2A       171.3950  107.7250  116.0900 O.co2     1 ATP901      0.0000 
     12 O3A       168.9400  107.3810  115.7030 O.3       1 ATP901      0.0000 
     13 O5'       170.5240  105.5070  115.3990 O.3       1 ATP901      0.0000 
     14 C5'       171.5440  105.0880  116.3070 C.3       1 ATP901      0.0000 
     15 C4'       171.2700  103.6920  116.7830 C.3       1 ATP901      0.0000 
     16 O4'       171.1100  102.8410  115.6370 O.3       1 ATP901      0.0000 
     17 C3'       172.4350  103.0660  117.5290 C.3       1 ATP901      0.0000 
     18 O3'       172.0240  101.9020  118.2370 O.3       1 ATP901      0.0000 
     19 C2'       173.3650  102.6940  116.3810 C.3       1 ATP901      0.0000 
     20 O2'       174.1780  101.5820  116.7260 O.3       1 ATP901      0.0000 
     21 C1'       172.3690  102.3020  115.2820 C.3       1 ATP901      0.0000 
     22 N9        172.6810  102.7790  113.9410 N.pl3     1 ATP901      0.0000 
     23 C8        171.7710  102.8930  112.9310 C.2       1 ATP901      0.0000 
     24 N7        172.2720  103.3340  111.8040 N.2       1 ATP901      0.0000 
     25 C5        173.6110  103.5280  112.0950 C.ar      1 ATP901      0.0000 
     26 C6        174.6920  103.9880  111.3200 C.ar      1 ATP901      0.0000 
     27 N6        174.5840  104.3560  110.0430 N.pl3     1 ATP901      0.0000 
     28 N1        175.9000  104.0630  111.9100 N.ar      1 ATP901      0.0000 
     29 C2        176.0110  103.7000  113.1910 C.ar      1 ATP901      0.0000 
     30 N3        175.0680  103.2490  114.0180 N.ar      1 ATP901      0.0000 
     31 C4        173.8810  103.1910  113.4090 C.ar      1 ATP901      0.0000 
@<TRIPOS>BOND
     1    1    2 ar   
     2    1    3 ar   
     3    1    4 ar   
     4    1    8 1    
     5    5    6 ar   
     6    5    7 ar   
     7    5    8 1    
     8    5   12 1    
     9    9   10 ar   
    10    9   11 ar   
    11    9   12 1    
    12    9   13 1    
    13   13   14 1    
    14   14   15 1    
    15   15   16 1    
    16   15   17 1    
    17   16   21 1    
    18   17   18 1    
    19   17   19 1    
    20   19   20 1    
    21   19   21 1    
    22   21   22 1    
    23   22   23 1    
    24   22   31 1    
    25   23   24 2    
    26   24   25 1    
    27   25   26 ar   
    28   25   31 ar   
    29   26   27 1    
    30   26   28 ar   
    31   28   29 ar   
    32   29   30 ar   
    33   30   31 ar   
@<TRIPOS>SUBSTRUCTURE
     1 ATP901      1 GROUP   
@<TRIPOS>SET
ATOM$ORANGE STATIC     ATOMS   COLORGROUP SYSTEM 
20 14 14 15 15 17 17 19 19 21 21 23 23 25 25 26 26 29 \
29 31 31 

