#    Name: 6n8v_8_ATP_CAVITY_N1_4
#    Modification time : Fri May 22 19:33:00 2020

@<TRIPOS>MOLECULE
6n8v_8_ATP_CAVITY_N1_4
   76     0     3     0     0
SMALL
NO_CHARGES


@<TRIPOS>ATOM
      1 N          79.3200  124.3000   95.5800 N.am      1 ALA2        0.0000 
      2 O          76.5200  126.6600   98.9400 O.2       1 ALA2        0.0000 
      3 N          81.1500  123.3100   97.1300 N.am      1 ALA2        0.0000 
      4 N          76.7700  127.6200   97.8100 N.am      1 ALA2        0.0000 
      5 N          77.9300  126.7800   97.3600 N.am      1 ALA2        0.0000 
      6 N          79.0800  125.9400   96.9000 N.am      1 ALA2        0.0000 
      7 N          80.2400  125.1000   96.4500 N.am      1 ALA2        0.0000 
      8 N          81.4000  124.2600   96.0000 N.am      1 ALA2        0.0000 
      9 N          79.3400  126.8900   95.7700 N.am      1 ALA2        0.0000 
     10 O          75.7800  126.3900  102.5300 O.2       1 ALA2        0.0000 
     11 O          76.0300  127.3400  101.4000 O.2       1 ALA2        0.0000 
     12 O          79.5000  124.8300  100.0400 O.2       1 ALA2        0.0000 
     13 N          80.6600  123.9900   99.5900 N.am      1 ALA2        0.0000 
     14 N          81.8200  123.1500   99.1400 N.am      1 ALA2        0.0000 
     15 N          76.2800  128.3000  100.2700 N.am      1 ALA2        0.0000 
     16 O          77.4400  127.4600   99.8100 O.2       1 ALA2        0.0000 
     17 O          78.5900  126.6200   99.3600 O.2       1 ALA2        0.0000 
     18 N          79.7500  125.7800   98.9100 N.am      1 ALA2        0.0000 
     19 N          80.9100  124.9400   98.4600 N.am      1 ALA2        0.0000 
     20 N          82.0700  124.1000   98.0100 N.am      1 ALA2        0.0000 
     21 N          77.6900  128.4100   98.6900 N.am      1 ALA2        0.0000 
     22 N          78.8500  127.5800   98.2300 N.am      1 ALA2        0.0000 
     23 N          80.0000  126.7400   97.7800 N.am      1 ALA2        0.0000 
     24 N          81.1600  125.9000   97.3300 N.am      1 ALA2        0.0000 
     25 N          81.4100  126.8500   96.2000 N.am      1 ALA2        0.0000 
     26 N          78.1000  127.3000  101.8200 N.am      1 ALA2        0.0000 
     27 O          79.5100  127.4200  100.2400 O.2       1 ALA2        0.0000 
     28 N          80.6700  126.5800   99.7900 N.am      1 ALA2        0.0000 
     29 N          81.8300  125.7400   99.3400 N.am      1 ALA2        0.0000 
     30 N          80.9200  127.5300   98.6600 N.am      1 ALA2        0.0000 
     31 N          81.1700  128.4900   97.5300 N.am      1 ALA2        0.0000 
     32 N          81.4200  129.4400   96.4000 N.am      1 ALA2        0.0000 
     33 N          87.8900  125.0900   96.1500 N.am      1 ALA2        0.0000 
     34 O          80.0300  131.9200   98.1800 O.2       1 ALA2        0.0000 
     35 N          88.8000  125.8900   97.0300 N.am      1 ALA2        0.0000 
     36 O          90.3800  123.9400   99.7100 O.2       1 ALA2        0.0000 
     37 O          89.4700  125.7300   99.0300 O.2       1 ALA2        0.0000 
     38 O          90.6300  124.8900   98.5800 O.2       1 ALA2        0.0000 
     39 N          91.1300  126.8000   96.3200 N.am      1 ALA2        0.0000 
     40 O          91.3000  124.7300  100.5900 O.2       1 ALA2        0.0000 
     41 O          81.3700  134.1900  102.4000 O.2       1 ALA2        0.0000 
     42 O          83.9400  133.4700  100.3600 O.2       1 ALA2        0.0000 
     43 CA         80.4100  123.0300  100.7200 C.3       2 GLY6        0.0000 
     44 CA         77.9400  129.3700   97.5600 C.3       2 GLY6        0.0000 
     45 CA         81.6600  127.8100   95.0700 C.3       2 GLY6        0.0000 
     46 CA         81.3300  123.8300  101.6000 C.3       2 GLY6        0.0000 
     47 CA         76.9500  128.1400  102.2700 C.3       2 GLY6        0.0000 
     48 CA         80.4200  125.6200  100.9200 C.3       2 GLY6        0.0000 
     49 CA         81.5800  124.7900  100.4700 C.3       2 GLY6        0.0000 
     50 CA         77.2000  129.1000  101.1400 C.3       2 GLY6        0.0000 
     51 CA         77.4500  130.0500  100.0100 C.3       2 GLY6        0.0000 
     52 CA         78.8600  130.1700   98.4300 C.3       2 GLY6        0.0000 
     53 CA         82.5000  125.5800  101.3400 C.3       2 GLY6        0.0000 
     54 CA         78.1200  129.8900  102.0200 C.3       2 GLY6        0.0000 
     55 CA         78.3700  130.8500  100.8900 C.3       2 GLY6        0.0000 
     56 CA         80.9500  132.7100   99.0600 C.3       2 GLY6        0.0000 
     57 CA         81.8600  133.5100   99.9400 C.3       2 GLY6        0.0000 
     58 CA         83.0200  132.6700   99.4900 C.3       2 GLY6        0.0000 
     59 DU         78.1800  127.7300   96.2300 H         3 CUB7        0.0000 
     60 DU         80.4900  126.0600   95.3200 H         3 CUB7        0.0000 
     61 DU         79.1000  128.5300   97.1000 H         3 CUB7        0.0000 
     62 DU         80.2500  127.6900   96.6500 H         3 CUB7        0.0000 
     63 DU         79.3500  129.4900   95.9700 H         3 CUB7        0.0000 
     64 DU         80.5100  128.6500   95.5200 H         3 CUB7        0.0000 
     65 DU         78.3500  128.2600  100.6900 H         3 CUB7        0.0000 
     66 DU         78.6100  129.2100   99.5600 H         3 CUB7        0.0000 
     67 DU         79.7600  128.3700   99.1100 H         3 CUB7        0.0000 
     68 DU         80.2700  130.2800   96.8500 H         3 CUB7        0.0000 
     69 DU         79.2700  129.0500  101.5700 H         3 CUB7        0.0000 
     70 DU         80.4300  128.2100  101.1200 H         3 CUB7        0.0000 
     71 DU         79.5200  130.0100  100.4400 H         3 CUB7        0.0000 
     72 DU         80.6800  129.1700   99.9900 H         3 CUB7        0.0000 
     73 DU         79.7800  130.9600   99.3100 H         3 CUB7        0.0000 
     74 DU         80.6900  131.7600  100.1900 H         3 CUB7        0.0000 
     75 DU         90.8800  125.8500   97.4500 H         3 CUB7        0.0000 
     76 DU         92.7100  124.8500   99.0100 H         3 CUB7        0.0000 
@<TRIPOS>BOND
@<TRIPOS>SUBSTRUCTURE
     1 ALA2        1 GROUP   
     2 GLY6       43 GROUP   
     3 CUB7       59 GROUP   
@<TRIPOS>SET

