#    Name: 6n8v_6_ATP_CAVITY_N1_6
#    Modification time : Fri May 22 19:32:07 2020

@<TRIPOS>MOLECULE
6n8v_6_ATP_CAVITY_N1_6
   61     0     3     0     0
SMALL
NO_CHARGES


@<TRIPOS>ATOM
      1 N          97.2700  161.9900  101.5300 N.am      1 ALA2        0.0000 
      2 N          98.4300  161.1500  101.0800 N.am      1 ALA2        0.0000 
      3 N          97.5200  162.9400  100.4000 N.am      1 ALA2        0.0000 
      4 N          98.6800  162.1000   99.9500 N.am      1 ALA2        0.0000 
      5 N         100.0900  162.2200   98.3700 N.am      1 ALA2        0.0000 
      6 N          97.9400  161.8300  103.5400 N.am      1 ALA2        0.0000 
      7 N          98.1900  162.7800  102.4100 N.am      1 ALA2        0.0000 
      8 N          99.3500  161.9400  101.9600 N.am      1 ALA2        0.0000 
      9 N          98.4400  163.7400  101.2800 N.am      1 ALA2        0.0000 
     10 N          99.6000  162.9000  100.8300 N.am      1 ALA2        0.0000 
     11 N         100.7600  162.0600  100.3700 N.am      1 ALA2        0.0000 
     12 N         101.0100  163.0100   99.2500 N.am      1 ALA2        0.0000 
     13 N         102.1700  162.1800   98.7900 N.am      1 ALA2        0.0000 
     14 N          97.9500  164.4200  103.7400 N.am      1 ALA2        0.0000 
     15 N          99.1100  163.5800  103.2900 N.am      1 ALA2        0.0000 
     16 N         100.2700  162.7400  102.8300 N.am      1 ALA2        0.0000 
     17 N          98.2000  165.3700  102.6100 N.am      1 ALA2        0.0000 
     18 N          99.3600  164.5300  102.1600 N.am      1 ALA2        0.0000 
     19 N         100.5200  163.6900  101.7000 N.am      1 ALA2        0.0000 
     20 N         100.7700  164.6500  100.5700 N.am      1 ALA2        0.0000 
     21 O          99.8600  166.4400   99.9000 O.2       1 ALA2        0.0000 
     22 O         102.1800  164.7700   98.9900 O.2       1 ALA2        0.0000 
     23 O          97.9600  167.0100  103.9400 O.2       1 ALA2        0.0000 
     24 N         100.2800  165.3300  103.0300 N.am      1 ALA2        0.0000 
     25 N         101.4400  164.4900  102.5800 N.am      1 ALA2        0.0000 
     26 N          99.3700  167.1200  102.3600 N.am      1 ALA2        0.0000 
     27 N         101.6900  165.4500  101.4500 N.am      1 ALA2        0.0000 
     28 O         101.9400  166.4000  100.3200 O.2       1 ALA2        0.0000 
     29 N          98.6300  166.8500  105.9400 N.am      1 ALA2        0.0000 
     30 N         102.3600  165.2900  103.4600 N.am      1 ALA2        0.0000 
     31 N         102.6100  166.2400  102.3300 N.am      1 ALA2        0.0000 
     32 CA         98.6700  159.5100   99.7500 C.3       2 GLY6        0.0000 
     33 CA         99.8400  161.2600   99.5000 C.3       2 GLY6        0.0000 
     34 CA        101.0000  160.4200   99.0500 C.3       2 GLY6        0.0000 
     35 CA         98.9300  163.0600   98.8200 C.3       2 GLY6        0.0000 
     36 CA         97.5400  165.5300  100.6000 C.3       2 GLY6        0.0000 
     37 CA         98.6900  164.6900  100.1500 C.3       2 GLY6        0.0000 
     38 CA         99.8500  163.8500   99.7000 C.3       2 GLY6        0.0000 
     39 CA        100.1000  164.8100   98.5700 C.3       2 GLY6        0.0000 
     40 CA         98.4600  166.3300  101.4800 C.3       2 GLY6        0.0000 
     41 CA         98.7100  167.2800  100.3500 C.3       2 GLY6        0.0000 
     42 CA         99.7800  163.4200  105.2900 C.3       2 GLY6        0.0000 
     43 CA         98.8700  165.2100  104.6100 C.3       2 GLY6        0.0000 
     44 CA        100.7800  167.2400  100.7700 C.3       2 GLY6        0.0000 
     45 CA         99.5400  165.0600  106.6200 C.3       2 GLY6        0.0000 
     46 CA         99.7900  166.0100  105.4900 C.3       2 GLY6        0.0000 
     47 CA         98.8800  167.8100  104.8100 C.3       2 GLY6        0.0000 
     48 CA        100.0400  166.9700  104.3600 C.3       2 GLY6        0.0000 
     49 CA        101.7000  168.0400  101.6500 C.3       2 GLY6        0.0000 
     50 CA        102.8600  167.2000  101.2000 C.3       2 GLY6        0.0000 
     51 CA         99.5500  167.6500  106.8200 C.3       2 GLY6        0.0000 
     52 DU         99.6100  165.4900  101.0300 H         3 CUB7        0.0000 
     53 DU        101.0200  165.6000   99.4400 H         3 CUB7        0.0000 
     54 DU        100.0300  164.3800  104.1600 H         3 CUB7        0.0000 
     55 DU         99.1200  166.1700  103.4800 H         3 CUB7        0.0000 
     56 DU        100.5300  166.2900  101.9000 H         3 CUB7        0.0000 
     57 DU        100.7000  164.2200  106.1700 H         3 CUB7        0.0000 
     58 DU        100.9500  165.1700  105.0400 H         3 CUB7        0.0000 
     59 DU        101.2000  166.1300  103.9100 H         3 CUB7        0.0000 
     60 DU        101.4500  167.0800  102.7800 H         3 CUB7        0.0000 
     61 DU        101.8700  165.9700  105.9200 H         3 CUB7        0.0000 
@<TRIPOS>BOND
@<TRIPOS>SUBSTRUCTURE
     1 ALA2        1 GROUP   
     2 GLY6       32 GROUP   
     3 CUB7       52 GROUP   
@<TRIPOS>SET

