#    Name: 6n8v_9_ATP_CAVITY_N1_6
#    Modification time : Fri May 22 19:33:13 2020

@<TRIPOS>MOLECULE
6n8v_9_ATP_CAVITY_N1_6
   58     0     3     0     0
SMALL
NO_CHARGES


@<TRIPOS>ATOM
      1 N         137.2700   86.4300  110.3000 N.am      1 ALA2        0.0000 
      2 N         136.3600   88.2300  109.6200 N.am      1 ALA2        0.0000 
      3 N         135.7000   90.9800  107.8100 N.am      1 ALA2        0.0000 
      4 N         138.1900   87.2300  111.1800 N.am      1 ALA2        0.0000 
      5 O         136.1200   89.8600  110.9500 O.2       1 ALA2        0.0000 
      6 O         137.2800   89.0200  110.5000 O.2       1 ALA2        0.0000 
      7 N         136.3700   90.8200  109.8200 N.am      1 ALA2        0.0000 
      8 O         135.8800   91.5000  112.2800 O.2       1 ALA2        0.0000 
      9 N         136.1300   92.4500  111.1500 N.am      1 ALA2        0.0000 
     10 N         136.3800   93.4100  110.0200 N.am      1 ALA2        0.0000 
     11 N         137.5400   92.5700  109.5700 N.am      1 ALA2        0.0000 
     12 N         136.1400   95.0400  111.3500 N.am      1 ALA2        0.0000 
     13 N         137.3000   94.2000  110.9000 N.am      1 ALA2        0.0000 
     14 N         138.4600   93.3700  110.4500 N.am      1 ALA2        0.0000 
     15 O         137.4700   92.1400  115.1700 O.2       1 ALA2        0.0000 
     16 O         135.9000   96.6800  112.6800 O.2       1 ALA2        0.0000 
     17 O         137.0600   95.8400  112.2300 O.2       1 ALA2        0.0000 
     18 N         138.2200   95.0000  111.7800 N.am      1 ALA2        0.0000 
     19 N         139.3800   94.1600  111.3300 N.am      1 ALA2        0.0000 
     20 N         140.5400   93.3200  110.8700 N.am      1 ALA2        0.0000 
     21 O         139.5500   92.1000  115.5900 O.2       1 ALA2        0.0000 
     22 N         140.7100   91.2600  115.1400 N.am      1 ALA2        0.0000 
     23 O         137.4800   94.7300  115.3700 O.2       1 ALA2        0.0000 
     24 N         140.9600   92.2100  114.0100 N.am      1 ALA2        0.0000 
     25 O         137.7300   95.6800  114.2400 O.2       1 ALA2        0.0000 
     26 N         138.8900   94.8400  113.7800 N.am      1 ALA2        0.0000 
     27 N         140.0500   94.0000  113.3300 N.am      1 ALA2        0.0000 
     28 O         139.1400   95.8000  112.6500 O.2       1 ALA2        0.0000 
     29 N         141.6200   92.0500  116.0200 N.am      1 ALA2        0.0000 
     30 N         141.8700   93.0100  114.8900 N.am      1 ALA2        0.0000 
     31 CA        135.4500   90.0200  108.9400 C.3       2 GLY6        0.0000 
     32 CA        136.6100   89.1800  108.4900 C.3       2 GLY6        0.0000 
     33 CA        138.4400   88.1900  110.0500 C.3       2 GLY6        0.0000 
     34 CA        137.5300   89.9800  109.3700 C.3       2 GLY6        0.0000 
     35 CA        136.6200   91.7700  108.6900 C.3       2 GLY6        0.0000 
     36 CA        137.2900   91.6100  110.7000 C.3       2 GLY6        0.0000 
     37 CA        138.4500   90.7800  110.2500 C.3       2 GLY6        0.0000 
     38 CA        135.8900   94.0900  112.4800 C.3       2 GLY6        0.0000 
     39 CA        138.2100   92.4100  111.5800 C.3       2 GLY6        0.0000 
     40 CA        139.3700   91.5700  111.1300 C.3       2 GLY6        0.0000 
     41 CA        139.6200   92.5300  110.0000 C.3       2 GLY6        0.0000 
     42 CA        137.7200   93.0900  114.0400 C.3       2 GLY6        0.0000 
     43 CA        138.8800   92.2500  113.5800 C.3       2 GLY6        0.0000 
     44 CA        140.0400   91.4100  113.1300 C.3       2 GLY6        0.0000 
     45 CA        139.1300   93.2100  112.4500 C.3       2 GLY6        0.0000 
     46 CA        140.2900   92.3700  112.0000 C.3       2 GLY6        0.0000 
     47 CA        138.3900   92.9300  116.0400 C.3       2 GLY6        0.0000 
     48 CA        138.6400   93.8900  114.9100 C.3       2 GLY6        0.0000 
     49 CA        139.8000   93.0500  114.4600 C.3       2 GLY6        0.0000 
     50 CA        141.2100   93.1700  112.8800 C.3       2 GLY6        0.0000 
     51 CA        137.9800   96.6400  113.1100 C.3       2 GLY6        0.0000 
     52 CA        141.3700   91.1000  117.1500 C.3       2 GLY6        0.0000 
     53 CA        140.4700   92.8900  116.4700 C.3       2 GLY6        0.0000 
     54 CA        142.2900   91.9000  118.0200 C.3       2 GLY6        0.0000 
     55 DU        137.0500   93.2500  112.0300 H         3 CUB7        0.0000 
     56 DU        136.5600   93.9300  114.4900 H         3 CUB7        0.0000 
     57 DU        136.8100   94.8900  113.3600 H         3 CUB7        0.0000 
     58 DU        137.9700   94.0500  112.9100 H         3 CUB7        0.0000 
@<TRIPOS>BOND
@<TRIPOS>SUBSTRUCTURE
     1 ALA2        1 GROUP   
     2 GLY6       31 GROUP   
     3 CUB7       55 GROUP   
@<TRIPOS>SET

