#    Name: 6n8v_8_ATP
#    Modification time : Fri May 22 19:32:59 2020

@<TRIPOS>MOLECULE
6n8v_8_ATP
   31    33     1     0     1
SMALL
NO_CHARGES


@<TRIPOS>ATOM
      1 PG         90.9220  131.1610   98.9660 P.3       1 ATP902      0.0000 
      2 O1G        89.8770  131.2810   97.9220 O.co2     1 ATP902      0.0000 
      3 O2G        92.0820  132.1820   98.6850 O.co2     1 ATP902      0.0000 
      4 O3G        90.2770  131.4410  100.3810 O.co2     1 ATP902      0.0000 
      5 PB         90.5340  129.0130  100.1780 P.3       1 ATP902      0.0000 
      6 O1B        90.4260  127.4810  100.0880 O.co2     1 ATP902      0.0000 
      7 O2B        91.1370  129.4010  101.4780 O.co2     1 ATP902      0.0000 
      8 O3B        91.4740  129.5820   98.9420 O.3       1 ATP902      0.0000 
      9 PA         87.8910  128.7220   99.7720 P.3       1 ATP902      0.0000 
     10 O1A        87.7640  128.4080   98.3350 O.co2     1 ATP902      0.0000 
     11 O2A        88.1020  127.4680  100.6260 O.co2     1 ATP902      0.0000 
     12 O3A        89.1260  129.6570  100.0440 O.3       1 ATP902      0.0000 
     13 O5'        86.5980  129.5480  100.2180 O.3       1 ATP902      0.0000 
     14 C5'        86.6940  130.9030  100.7140 C.3       1 ATP902      0.0000 
     15 C4'        85.3490  131.3920  101.2080 C.3       1 ATP902      0.0000 
     16 O4'        84.2910  130.9360  100.3340 O.3       1 ATP902      0.0000 
     17 C3'        84.9650  130.9440  102.6170 C.3       1 ATP902      0.0000 
     18 O3'        84.3900  132.0200  103.3440 O.3       1 ATP902      0.0000 
     19 C2'        83.9090  129.8720  102.3620 C.3       1 ATP902      0.0000 
     20 O2'        82.9710  129.7790  103.4260 O.3       1 ATP902      0.0000 
     21 C1'        83.2380  130.4410  101.1280 C.3       1 ATP902      0.0000 
     22 N9         82.4950  129.4680  100.3550 N.pl3     1 ATP902      0.0000 
     23 C8         82.7010  129.1390   99.0450 C.2       1 ATP902      0.0000 
     24 N7         81.8890  128.2150   98.5940 N.2       1 ATP902      0.0000 
     25 C5         81.0850  127.9290   99.6820 C.ar      1 ATP902      0.0000 
     26 C6         80.0100  127.0390   99.8510 C.ar      1 ATP902      0.0000 
     27 N6         79.5430  126.2470   98.8830 N.pl3     1 ATP902      0.0000 
     28 N1         79.4190  126.9990  101.0620 N.ar      1 ATP902      0.0000 
     29 C2         79.8840  127.7880  102.0320 C.ar      1 ATP902      0.0000 
     30 N3         80.8790  128.6740  101.9830 N.ar      1 ATP902      0.0000 
     31 C4         81.4420  128.6960  100.7700 C.ar      1 ATP902      0.0000 
@<TRIPOS>BOND
     1    1    2 ar   
     2    1    3 ar   
     3    1    4 ar   
     4    1    8 1    
     5    5    6 ar   
     6    5    7 ar   
     7    5    8 1    
     8    5   12 1    
     9    9   10 ar   
    10    9   11 ar   
    11    9   12 1    
    12    9   13 1    
    13   13   14 1    
    14   14   15 1    
    15   15   16 1    
    16   15   17 1    
    17   16   21 1    
    18   17   18 1    
    19   17   19 1    
    20   19   20 1    
    21   19   21 1    
    22   21   22 1    
    23   22   23 1    
    24   22   31 1    
    25   23   24 2    
    26   24   25 1    
    27   25   26 ar   
    28   25   31 ar   
    29   26   27 1    
    30   26   28 ar   
    31   28   29 ar   
    32   29   30 ar   
    33   30   31 ar   
@<TRIPOS>SUBSTRUCTURE
     1 ATP902      1 GROUP   
@<TRIPOS>SET
ATOM$ORANGE STATIC     ATOMS   COLORGROUP SYSTEM 
20 14 14 15 15 17 17 19 19 21 21 23 23 25 25 26 26 29 \
29 31 31 

