#    Name: 6n8v_6_ATP_CAVITY_N1_4
#    Modification time : Fri May 22 19:32:07 2020

@<TRIPOS>MOLECULE
6n8v_6_ATP_CAVITY_N1_4
   34     0     3     0     0
SMALL
NO_CHARGES


@<TRIPOS>ATOM
      1 N          97.9400  161.8300  103.5400 N.am      1 ALA2        0.0000 
      2 N          98.1900  162.7800  102.4100 N.am      1 ALA2        0.0000 
      3 N          99.3500  161.9400  101.9600 N.am      1 ALA2        0.0000 
      4 N          98.4400  163.7400  101.2800 N.am      1 ALA2        0.0000 
      5 N          99.6000  162.9000  100.8300 N.am      1 ALA2        0.0000 
      6 N         100.7600  162.0600  100.3700 N.am      1 ALA2        0.0000 
      7 N          97.9500  164.4200  103.7400 N.am      1 ALA2        0.0000 
      8 N          99.1100  163.5800  103.2900 N.am      1 ALA2        0.0000 
      9 N         100.2700  162.7400  102.8300 N.am      1 ALA2        0.0000 
     10 N          98.2000  165.3700  102.6100 N.am      1 ALA2        0.0000 
     11 N          99.3600  164.5300  102.1600 N.am      1 ALA2        0.0000 
     12 N         100.5200  163.6900  101.7000 N.am      1 ALA2        0.0000 
     13 N         100.7700  164.6500  100.5700 N.am      1 ALA2        0.0000 
     14 N         100.2800  165.3300  103.0300 N.am      1 ALA2        0.0000 
     15 N         101.4400  164.4900  102.5800 N.am      1 ALA2        0.0000 
     16 N         101.6900  165.4500  101.4500 N.am      1 ALA2        0.0000 
     17 N          98.6300  166.8500  105.9400 N.am      1 ALA2        0.0000 
     18 N         102.3600  165.2900  103.4600 N.am      1 ALA2        0.0000 
     19 N         102.6100  166.2400  102.3300 N.am      1 ALA2        0.0000 
     20 CA         99.7800  163.4200  105.2900 C.3       2 GLY6        0.0000 
     21 CA         98.8700  165.2100  104.6100 C.3       2 GLY6        0.0000 
     22 CA         99.5400  165.0600  106.6200 C.3       2 GLY6        0.0000 
     23 CA         99.7900  166.0100  105.4900 C.3       2 GLY6        0.0000 
     24 CA         98.8800  167.8100  104.8100 C.3       2 GLY6        0.0000 
     25 CA        100.0400  166.9700  104.3600 C.3       2 GLY6        0.0000 
     26 CA         99.5500  167.6500  106.8200 C.3       2 GLY6        0.0000 
     27 DU        100.0300  164.3800  104.1600 H         3 CUB7        0.0000 
     28 DU         99.1200  166.1700  103.4800 H         3 CUB7        0.0000 
     29 DU        100.5300  166.2900  101.9000 H         3 CUB7        0.0000 
     30 DU        100.7000  164.2200  106.1700 H         3 CUB7        0.0000 
     31 DU        100.9500  165.1700  105.0400 H         3 CUB7        0.0000 
     32 DU        101.2000  166.1300  103.9100 H         3 CUB7        0.0000 
     33 DU        101.4500  167.0800  102.7800 H         3 CUB7        0.0000 
     34 DU        101.8700  165.9700  105.9200 H         3 CUB7        0.0000 
@<TRIPOS>BOND
@<TRIPOS>SUBSTRUCTURE
     1 ALA2        1 GROUP   
     2 GLY6       20 GROUP   
     3 CUB7       27 GROUP   
@<TRIPOS>SET

