#    Name: 6n8v_4_ATP_CAVITY_N1_4
#    Modification time : Fri May 22 19:31:09 2020

@<TRIPOS>MOLECULE
6n8v_4_ATP_CAVITY_N1_4
   61     0     3     0     0
SMALL
NO_CHARGES


@<TRIPOS>ATOM
      1 N         122.6000  156.6700  146.4900 N.am      1 ALA2        0.0000 
      2 N         122.2000  160.3700  143.5500 N.am      1 ALA2        0.0000 
      3 N         123.3600  159.5300  143.1000 N.am      1 ALA2        0.0000 
      4 O         121.2900  162.1600  142.8700 O.2       1 ALA2        0.0000 
      5 O         122.3600  158.3000  147.8200 O.2       1 ALA2        0.0000 
      6 O         124.2700  160.3300  143.9800 O.2       1 ALA2        0.0000 
      7 N         117.3300  167.9500  146.8900 N.am      1 ALA2        0.0000 
      8 N         118.7400  168.0700  145.3100 N.am      1 ALA2        0.0000 
      9 N         119.9000  167.2300  144.8500 N.am      1 ALA2        0.0000 
     10 N         118.9900  169.0200  144.1800 N.am      1 ALA2        0.0000 
     11 N         120.1500  168.1800  143.7200 N.am      1 ALA2        0.0000 
     12 N         118.0000  167.7900  148.8900 N.am      1 ALA2        0.0000 
     13 O         119.1600  166.9600  148.4400 O.2       1 ALA2        0.0000 
     14 O         119.4100  167.9100  147.3100 O.2       1 ALA2        0.0000 
     15 N         118.5000  169.7000  146.6300 N.am      1 ALA2        0.0000 
     16 N         118.7600  170.6600  145.5100 N.am      1 ALA2        0.0000 
     17 N         121.0700  168.9800  144.6000 N.am      1 ALA2        0.0000 
     18 N         119.0100  171.6100  144.3800 N.am      1 ALA2        0.0000 
     19 N         121.3200  169.9400  143.4700 N.am      1 ALA2        0.0000 
     20 N         122.4800  169.1000  143.0200 N.am      1 ALA2        0.0000 
     21 N         120.3300  168.7100  148.1900 N.am      1 ALA2        0.0000 
     22 O         119.4200  170.5000  147.5100 O.2       1 ALA2        0.0000 
     23 O         119.6700  171.4600  146.3800 O.2       1 ALA2        0.0000 
     24 N         122.2400  170.7300  144.3500 N.am      1 ALA2        0.0000 
     25 N         121.2500  169.5000  149.0700 N.am      1 ALA2        0.0000 
     26 N         122.9100  170.5700  146.3600 N.am      1 ALA2        0.0000 
     27 N         123.1600  171.5300  145.2300 N.am      1 ALA2        0.0000 
     28 N         121.5100  173.0500  148.1400 N.am      1 ALA2        0.0000 
     29 N         122.6700  172.2100  147.6900 N.am      1 ALA2        0.0000 
     30 N         125.2400  171.4900  145.6500 N.am      1 ALA2        0.0000 
     31 N         123.5900  173.0100  148.5600 N.am      1 ALA2        0.0000 
     32 CA        121.7000  158.4600  145.8100 C.3       2 GLY6        0.0000 
     33 CA        121.9500  159.4200  144.6800 C.3       2 GLY6        0.0000 
     34 CA        124.2600  157.7400  143.7800 C.3       2 GLY6        0.0000 
     35 CA        124.0200  159.3700  145.1100 C.3       2 GLY6        0.0000 
     36 CA        117.0800  167.0000  148.0200 C.3       2 GLY6        0.0000 
     37 CA        118.4900  167.1100  146.4300 C.3       2 GLY6        0.0000 
     38 CA        116.8400  168.6300  149.3500 C.3       2 GLY6        0.0000 
     39 CA        118.2500  168.7500  147.7600 C.3       2 GLY6        0.0000 
     40 CA        120.5700  167.0700  146.8600 C.3       2 GLY6        0.0000 
     41 CA        118.9200  168.5900  149.7700 C.3       2 GLY6        0.0000 
     42 CA        119.1700  169.5500  148.6400 C.3       2 GLY6        0.0000 
     43 CA        121.4900  167.8700  147.7400 C.3       2 GLY6        0.0000 
     44 CA        119.9300  172.4100  145.2500 C.3       2 GLY6        0.0000 
     45 CA        120.3400  171.3000  148.3900 C.3       2 GLY6        0.0000 
     46 CA        120.5900  172.2500  147.2600 C.3       2 GLY6        0.0000 
     47 CA        122.0000  172.3700  145.6800 C.3       2 GLY6        0.0000 
     48 DU        122.8500  157.6200  145.3600 H         3 CUB7        0.0000 
     49 DU        123.1000  158.5800  144.2300 H         3 CUB7        0.0000 
     50 DU        123.7700  158.4200  146.2400 H         3 CUB7        0.0000 
     51 DU        119.6600  168.8600  146.1800 H         3 CUB7        0.0000 
     52 DU        119.9100  169.8200  145.0500 H         3 CUB7        0.0000 
     53 DU        120.1600  170.7700  143.9200 H         3 CUB7        0.0000 
     54 DU        120.5800  169.6600  147.0600 H         3 CUB7        0.0000 
     55 DU        121.7400  168.8200  146.6100 H         3 CUB7        0.0000 
     56 DU        120.8300  170.6200  145.9300 H         3 CUB7        0.0000 
     57 DU        121.0800  171.5700  144.8000 H         3 CUB7        0.0000 
     58 DU        121.5000  170.4600  147.9400 H         3 CUB7        0.0000 
     59 DU        121.7500  171.4100  146.8100 H         3 CUB7        0.0000 
     60 DU        123.8300  171.3700  147.2300 H         3 CUB7        0.0000 
     61 DU        124.7500  172.1700  148.1100 H         3 CUB7        0.0000 
@<TRIPOS>BOND
@<TRIPOS>SUBSTRUCTURE
     1 ALA2        1 GROUP   
     2 GLY6       32 GROUP   
     3 CUB7       48 GROUP   
@<TRIPOS>SET

