#    Name: 6n8v_10_ATP_CAVITY_N1_4
#    Modification time : Fri May 22 19:33:34 2020

@<TRIPOS>MOLECULE
6n8v_10_ATP_CAVITY_N1_4
   75     0     3     0     0
SMALL
NO_CHARGES


@<TRIPOS>ATOM
      1 N          93.1900   88.7700   82.5600 N.am      1 ALA2        0.0000 
      2 N          94.3500   87.9300   82.1100 N.am      1 ALA2        0.0000 
      3 N          94.6000   88.8800   80.9800 N.am      1 ALA2        0.0000 
      4 N          93.8600   88.6100   84.5700 N.am      1 ALA2        0.0000 
      5 N          90.6300   92.0800   84.7900 N.am      1 ALA2        0.0000 
      6 N          94.1100   89.5600   83.4400 N.am      1 ALA2        0.0000 
      7 N          95.2700   88.7200   82.9900 N.am      1 ALA2        0.0000 
      8 N          92.0400   92.2000   83.2100 N.am      1 ALA2        0.0000 
      9 N          93.2000   91.3600   82.7600 N.am      1 ALA2        0.0000 
     10 N          94.3600   90.5200   82.3100 N.am      1 ALA2        0.0000 
     11 N          95.5200   89.6800   81.8600 N.am      1 ALA2        0.0000 
     12 N          96.6700   88.8400   81.4100 N.am      1 ALA2        0.0000 
     13 N          93.6200   90.2400   85.9000 N.am      1 ALA2        0.0000 
     14 O          94.7700   89.4100   85.4500 O.2       1 ALA2        0.0000 
     15 N          92.7100   92.0400   85.2200 N.am      1 ALA2        0.0000 
     16 N          93.8700   91.2000   84.7700 N.am      1 ALA2        0.0000 
     17 N          95.0300   90.3600   84.3200 N.am      1 ALA2        0.0000 
     18 N          96.1800   89.5200   83.8600 N.am      1 ALA2        0.0000 
     19 N          97.3400   88.6800   83.4100 N.am      1 ALA2        0.0000 
     20 N          98.5000   87.8400   82.9600 N.am      1 ALA2        0.0000 
     21 O          91.8000   93.8300   84.5400 O.2       1 ALA2        0.0000 
     22 N          94.1200   92.1500   83.6400 N.am      1 ALA2        0.0000 
     23 N          95.2800   91.3200   83.1900 N.am      1 ALA2        0.0000 
     24 N          97.5900   89.6400   82.2800 N.am      1 ALA2        0.0000 
     25 O          92.0500   94.7900   83.4100 O.2       1 ALA2        0.0000 
     26 N          93.2100   93.9500   82.9600 N.am      1 ALA2        0.0000 
     27 N          96.6900   91.4300   81.6100 N.am      1 ALA2        0.0000 
     28 N          95.4400   89.2500   87.4500 N.am      1 ALA2        0.0000 
     29 N          95.6900   90.2000   86.3200 N.am      1 ALA2        0.0000 
     30 O          96.8500   89.3600   85.8700 O.2       1 ALA2        0.0000 
     31 N          93.6300   92.8300   86.1000 N.am      1 ALA2        0.0000 
     32 N          94.7900   92.0000   85.6500 N.am      1 ALA2        0.0000 
     33 O          92.7200   94.6300   85.4200 O.2       1 ALA2        0.0000 
     34 N          93.8800   93.7900   84.9700 N.am      1 ALA2        0.0000 
     35 O          92.9700   95.5800   84.2900 O.2       1 ALA2        0.0000 
     36 N          96.1100   89.0900   89.4600 N.am      1 ALA2        0.0000 
     37 N          96.3600   90.0400   88.3300 N.am      1 ALA2        0.0000 
     38 O          95.4500   91.8400   87.6500 O.2       1 ALA2        0.0000 
     39 N          94.5500   93.6300   86.9700 N.am      1 ALA2        0.0000 
     40 O          95.7100   92.7900   86.5200 O.2       1 ALA2        0.0000 
     41 N         100.3400   89.4400   84.7200 N.am      1 ALA2        0.0000 
     42 O          99.8700   95.3000   87.5700 O.2       1 ALA2        0.0000 
     43 O         100.1200   96.2500   86.4500 O.2       1 ALA2        0.0000 
     44 O         101.5300   96.3700   84.8600 O.2       1 ALA2        0.0000 
     45 O         104.7800   98.0800   85.0400 O.2       1 ALA2        0.0000 
     46 CA         93.4400   89.7200   81.4300 C.3       2 GLY6        0.0000 
     47 CA         91.3000   91.9200   86.8000 C.3       2 GLY6        0.0000 
     48 CA         92.4600   91.0800   86.3500 C.3       2 GLY6        0.0000 
     49 CA         90.3900   93.7200   86.1200 C.3       2 GLY6        0.0000 
     50 CA         94.3700   93.1100   82.5100 C.3       2 GLY6        0.0000 
     51 CA         95.5300   92.2700   82.0600 C.3       2 GLY6        0.0000 
     52 CA         93.1300   90.9300   88.3600 C.3       2 GLY6        0.0000 
     53 CA         94.2800   90.0900   87.9000 C.3       2 GLY6        0.0000 
     54 CA         93.3800   91.8800   87.2300 C.3       2 GLY6        0.0000 
     55 CA         91.3100   94.5100   87.0000 C.3       2 GLY6        0.0000 
     56 CA         99.4200   88.6400   83.8400 C.3       2 GLY6        0.0000 
     57 CA         95.0400   92.9500   84.5200 C.3       2 GLY6        0.0000 
     58 CA         97.5200   89.2100   87.8800 C.3       2 GLY6        0.0000 
     59 CA         96.6100   91.0000   87.2000 C.3       2 GLY6        0.0000 
     60 CA         97.7700   90.1600   86.7500 C.3       2 GLY6        0.0000 
     61 CA         98.9300   89.3200   86.3000 C.3       2 GLY6        0.0000 
     62 CA        100.0900   88.4800   85.8500 C.3       2 GLY6        0.0000 
     63 CA         98.4400   90.0000   88.7600 C.3       2 GLY6        0.0000 
     64 CA         99.6000   89.1600   88.3000 C.3       2 GLY6        0.0000 
     65 CA        101.7800   97.3200   83.7300 C.3       2 GLY6        0.0000 
     66 DU         92.2900   93.1500   82.0800 H         3 CUB7        0.0000 
     67 DU         93.4500   92.3100   81.6300 H         3 CUB7        0.0000 
     68 DU         94.6100   91.4700   81.1800 H         3 CUB7        0.0000 
     69 DU         91.5500   92.8800   85.6700 H         3 CUB7        0.0000 
     70 DU         92.9600   92.9900   84.0900 H         3 CUB7        0.0000 
     71 DU         94.5400   91.0400   86.7700 H         3 CUB7        0.0000 
     72 DU         92.4700   93.6700   86.5500 H         3 CUB7        0.0000 
     73 DU         95.2000   90.8800   88.7800 H         3 CUB7        0.0000 
     74 DU        104.1100   98.2400   83.0300 H         3 CUB7        0.0000 
     75 DU        105.7000   98.8800   85.9200 H         3 CUB7        0.0000 
@<TRIPOS>BOND
@<TRIPOS>SUBSTRUCTURE
     1 ALA2        1 GROUP   
     2 GLY6       46 GROUP   
     3 CUB7       66 GROUP   
@<TRIPOS>SET

