#    Name: 6n8v_2_ATP_CAVITY_N1_4
#    Modification time : Fri May 22 19:30:09 2020

@<TRIPOS>MOLECULE
6n8v_2_ATP_CAVITY_N1_4
   23     0     3     0     0
SMALL
NO_CHARGES


@<TRIPOS>ATOM
      1 N         155.0100  158.2200  147.0300 N.am      1 ALA2        0.0000 
      2 N         154.1000  160.0200  146.3500 N.am      1 ALA2        0.0000 
      3 O         157.5800  157.5000  145.0000 O.2       1 ALA2        0.0000 
      4 O         157.1700  161.2000  142.0600 O.2       1 ALA2        0.0000 
      5 N         154.7700  159.8600  148.3600 N.am      1 ALA2        0.0000 
      6 O         155.0200  160.8100  147.2300 O.2       1 ALA2        0.0000 
      7 O         156.1800  159.9700  146.7800 O.2       1 ALA2        0.0000 
      8 O         157.3400  159.1300  146.3300 O.2       1 ALA2        0.0000 
      9 O         157.5900  160.0900  145.2000 O.2       1 ALA2        0.0000 
     10 N         158.1100  167.1800  143.3400 N.am      1 ALA2        0.0000 
     11 N         159.2700  166.3400  142.8900 N.am      1 ALA2        0.0000 
     12 N         160.6800  166.4600  141.3000 N.am      1 ALA2        0.0000 
     13 CA        154.3400  158.3800  145.0200 C.3       2 GLY6        0.0000 
     14 CA        155.5000  157.5400  144.5700 C.3       2 GLY6        0.0000 
     15 CA        156.6600  156.7000  144.1200 C.3       2 GLY6        0.0000 
     16 CA        154.5900  159.3300  143.8900 C.3       2 GLY6        0.0000 
     17 CA        156.4200  158.3400  145.4500 C.3       2 GLY6        0.0000 
     18 CA        155.5100  160.1300  144.7700 C.3       2 GLY6        0.0000 
     19 CA        156.6700  159.2900  144.3200 C.3       2 GLY6        0.0000 
     20 CA        155.7600  161.0900  143.6400 C.3       2 GLY6        0.0000 
     21 CA        156.9200  160.2500  143.1900 C.3       2 GLY6        0.0000 
     22 CA        156.0100  162.0400  142.5100 C.3       2 GLY6        0.0000 
     23 DU        155.2600  159.1800  145.9000 H         3 CUB7        0.0000 
@<TRIPOS>BOND
@<TRIPOS>SUBSTRUCTURE
     1 ALA2        1 GROUP   
     2 GLY6       13 GROUP   
     3 CUB7       23 GROUP   
@<TRIPOS>SET

