#    Name: 6n8v_9_ATP
#    Modification time : Fri May 22 19:33:12 2020

@<TRIPOS>MOLECULE
6n8v_9_ATP
   31    33     1     0     1
SMALL
NO_CHARGES


@<TRIPOS>ATOM
      1 PG        135.3730   92.9310  115.6290 P.3       1 ATP901      0.0000 
      2 O1G       135.7610   93.1430  114.2010 O.co2     1 ATP901      0.0000 
      3 O2G       136.6200   92.4060  116.4380 O.co2     1 ATP901      0.0000 
      4 O3G       134.8560   94.2870  116.2600 O.co2     1 ATP901      0.0000 
      5 PB        134.7790   90.3920  114.9900 P.3       1 ATP901      0.0000 
      6 O1B       134.5870   90.4510  113.4510 O.co2     1 ATP901      0.0000 
      7 O2B       136.2370   90.2900  115.3040 O.co2     1 ATP901      0.0000 
      8 O3B       134.1500   91.7700  115.6930 O.3       1 ATP901      0.0000 
      9 PA        134.6590   88.5370  116.8740 P.3       1 ATP901      0.0000 
     10 O1A       135.9110   87.8080  116.5790 O.co2     1 ATP901      0.0000 
     11 O2A       134.7980   89.7260  117.8260 O.co2     1 ATP901      0.0000 
     12 O3A       134.0430   89.1500  115.5640 O.3       1 ATP901      0.0000 
     13 O5'       133.6090   87.5050  117.4310 O.3       1 ATP901      0.0000 
     14 C5'       133.4500   87.3850  118.8560 C.3       1 ATP901      0.0000 
     15 C4'       132.5300   86.2280  119.1610 C.3       1 ATP901      0.0000 
     16 O4'       132.3820   85.4020  117.9850 O.3       1 ATP901      0.0000 
     17 C3'       133.0040   85.3000  120.2800 C.3       1 ATP901      0.0000 
     18 O3'       131.9070   84.8630  121.0730 O.3       1 ATP901      0.0000 
     19 C2'       133.6330   84.1360  119.5130 C.3       1 ATP901      0.0000 
     20 O2'       133.5750   82.9270  120.2620 O.3       1 ATP901      0.0000 
     21 C1'       132.7190   84.0680  118.2930 C.3       1 ATP901      0.0000 
     22 N9        133.3160   83.4530  117.1130 N.pl3     1 ATP901      0.0000 
     23 C8        133.4280   84.0080  115.8660 C.2       1 ATP901      0.0000 
     24 N7        134.0030   83.2260  114.9810 N.2       1 ATP901      0.0000 
     25 C5        134.2880   82.0780  115.7010 C.ar      1 ATP901      0.0000 
     26 C6        134.8980   80.8580  115.3370 C.ar      1 ATP901      0.0000 
     27 N6        135.3530   80.5920  114.1110 N.pl3     1 ATP901      0.0000 
     28 N1        135.0210   79.9120  116.2930 N.ar      1 ATP901      0.0000 
     29 C2        134.5730   80.1750  117.5240 C.ar      1 ATP901      0.0000 
     30 N3        133.9800   81.2800  117.9800 N.ar      1 ATP901      0.0000 
     31 C4        133.8730   82.2000  117.0150 C.ar      1 ATP901      0.0000 
@<TRIPOS>BOND
     1    1    2 ar   
     2    1    3 ar   
     3    1    4 ar   
     4    1    8 1    
     5    5    6 ar   
     6    5    7 ar   
     7    5    8 1    
     8    5   12 1    
     9    9   10 ar   
    10    9   11 ar   
    11    9   12 1    
    12    9   13 1    
    13   13   14 1    
    14   14   15 1    
    15   15   16 1    
    16   15   17 1    
    17   16   21 1    
    18   17   18 1    
    19   17   19 1    
    20   19   20 1    
    21   19   21 1    
    22   21   22 1    
    23   22   23 1    
    24   22   31 1    
    25   23   24 2    
    26   24   25 1    
    27   25   26 ar   
    28   25   31 ar   
    29   26   27 1    
    30   26   28 ar   
    31   28   29 ar   
    32   29   30 ar   
    33   30   31 ar   
@<TRIPOS>SUBSTRUCTURE
     1 ATP901      1 GROUP   
@<TRIPOS>SET
ATOM$ORANGE STATIC     ATOMS   COLORGROUP SYSTEM 
20 14 14 15 15 17 17 19 19 21 21 23 23 25 25 26 26 29 \
29 31 31 

