#    Name: 6n8v_3_ATP
#    Modification time : Fri May 22 19:30:34 2020

@<TRIPOS>MOLECULE
6n8v_3_ATP
   31    33     1     0     1
SMALL
NO_CHARGES


@<TRIPOS>ATOM
      1 PG        167.7500  138.5000  107.7530 P.3       1 ATP902      0.0000 
      2 O1G       167.3180  137.1890  107.1910 O.co2     1 ATP902      0.0000 
      3 O2G       167.3230  138.6200  109.2590 O.co2     1 ATP902      0.0000 
      4 O3G       169.3100  138.6760  107.6090 O.co2     1 ATP902      0.0000 
      5 PB        167.3920  141.1730  107.5680 P.3       1 ATP902      0.0000 
      6 O1B       166.1360  141.8860  108.1210 O.co2     1 ATP902      0.0000 
      7 O2B       168.3830  140.9180  108.6420 O.co2     1 ATP902      0.0000 
      8 O3B       166.9980  139.7130  106.8860 O.3       1 ATP902      0.0000 
      9 PA        169.2040  142.8990  106.8980 P.3       1 ATP902      0.0000 
     10 O1A       168.9810  144.3250  106.6630 O.co2     1 ATP902      0.0000 
     11 O2A       169.5310  142.5090  108.3330 O.co2     1 ATP902      0.0000 
     12 O3A       167.9840  142.0620  106.4590 O.3       1 ATP902      0.0000 
     13 O5'       170.3760  142.3320  106.0960 O.3       1 ATP902      0.0000 
     14 C5'       170.8440  141.1650  106.7610 C.3       1 ATP902      0.0000 
     15 C4'       172.2220  140.8570  106.2910 C.3       1 ATP902      0.0000 
     16 O4'       172.4480  141.5070  105.0220 O.3       1 ATP902      0.0000 
     17 C3'       173.3180  141.3470  107.2360 C.3       1 ATP902      0.0000 
     18 O3'       174.2820  140.3220  107.4400 O.3       1 ATP902      0.0000 
     19 C2'       173.9360  142.5210  106.4820 C.3       1 ATP902      0.0000 
     20 O2'       175.3300  142.6420  106.7220 O.3       1 ATP902      0.0000 
     21 C1'       173.7350  142.0760  105.0470 C.3       1 ATP902      0.0000 
     22 N9        173.7930  143.1260  104.0440 N.pl3     1 ATP902      0.0000 
     23 C8        173.3520  143.0070  102.7590 C.2       1 ATP902      0.0000 
     24 N7        173.5120  144.0870  102.0370 N.2       1 ATP902      0.0000 
     25 C5        174.1150  144.9750  102.9100 C.ar      1 ATP902      0.0000 
     26 C6        174.5500  146.3030  102.7530 C.ar      1 ATP902      0.0000 
     27 N6        174.4440  146.9850  101.6150 N.pl3     1 ATP902      0.0000 
     28 N1        175.1100  146.9060  103.8180 N.ar      1 ATP902      0.0000 
     29 C2        175.2180  146.2290  104.9600 C.ar      1 ATP902      0.0000 
     30 N3        174.8500  144.9750  105.2240 N.ar      1 ATP902      0.0000 
     31 C4        174.3050  144.3980  104.1490 C.ar      1 ATP902      0.0000 
@<TRIPOS>BOND
     1    1    2 ar   
     2    1    3 ar   
     3    1    4 ar   
     4    1    8 1    
     5    5    6 ar   
     6    5    7 ar   
     7    5    8 1    
     8    5   12 1    
     9    9   10 ar   
    10    9   11 ar   
    11    9   12 1    
    12    9   13 1    
    13   13   14 1    
    14   14   15 1    
    15   15   16 1    
    16   15   17 1    
    17   16   21 1    
    18   17   18 1    
    19   17   19 1    
    20   19   20 1    
    21   19   21 1    
    22   21   22 1    
    23   22   23 1    
    24   22   31 1    
    25   23   24 2    
    26   24   25 1    
    27   25   26 ar   
    28   25   31 ar   
    29   26   27 1    
    30   26   28 ar   
    31   28   29 ar   
    32   29   30 ar   
    33   30   31 ar   
@<TRIPOS>SUBSTRUCTURE
     1 ATP902      1 GROUP   
@<TRIPOS>SET
ATOM$ORANGE STATIC     ATOMS   COLORGROUP SYSTEM 
20 14 14 15 15 17 17 19 19 21 21 23 23 25 25 26 26 29 \
29 31 31 

