#    Name: 6n8v_4_ATP
#    Modification time : Fri May 22 19:31:07 2020

@<TRIPOS>MOLECULE
6n8v_4_ATP
   31    33     1     0     1
SMALL
NO_CHARGES


@<TRIPOS>ATOM
      1 PG        125.8480  160.1090  146.8520 P.3       1 ATP901      0.0000 
      2 O1G       125.8090  158.7880  146.1580 O.co2     1 ATP901      0.0000 
      3 O2G       124.4680  160.3450  147.5730 O.co2     1 ATP901      0.0000 
      4 O3G       127.0140  160.1650  147.9100 O.co2     1 ATP901      0.0000 
      5 PB        124.8160  162.2650  145.6440 P.3       1 ATP901      0.0000 
      6 O1B       124.0920  162.1040  144.2820 O.co2     1 ATP901      0.0000 
      7 O2B       123.9200  161.9640  146.7840 O.co2     1 ATP901      0.0000 
      8 O3B       126.1650  161.3030  145.7080 O.3       1 ATP901      0.0000 
      9 PA        125.5750  164.0340  147.3390 P.3       1 ATP901      0.0000 
     10 O1A       124.3400  164.2250  148.1240 O.co2     1 ATP901      0.0000 
     11 O2A       126.4700  162.8850  147.8050 O.co2     1 ATP901      0.0000 
     12 O3A       125.2700  163.7250  145.8410 O.3       1 ATP901      0.0000 
     13 O5'       126.3720  165.3710  147.3550 O.3       1 ATP901      0.0000 
     14 C5'       127.2570  165.5730  148.4570 C.3       1 ATP901      0.0000 
     15 C4'       127.3230  167.0500  148.7340 C.3       1 ATP901      0.0000 
     16 O4'       126.3510  167.7340  147.9140 O.3       1 ATP901      0.0000 
     17 C3'       127.0360  167.4530  150.1830 C.3       1 ATP901      0.0000 
     18 O3'       127.9480  168.4440  150.6400 O.3       1 ATP901      0.0000 
     19 C2'       125.6140  168.0080  150.1180 C.3       1 ATP901      0.0000 
     20 O2'       125.4120  169.0230  151.0930 O.3       1 ATP901      0.0000 
     21 C1'       125.5890  168.6050  148.7180 C.3       1 ATP901      0.0000 
     22 N9        124.2530  168.6840  148.1560 N.pl3     1 ATP901      0.0000 
     23 C8        123.7960  168.1070  147.0020 C.2       1 ATP901      0.0000 
     24 N7        122.5280  168.3330  146.7610 N.2       1 ATP901      0.0000 
     25 C5        122.1230  169.1090  147.8340 C.ar      1 ATP901      0.0000 
     26 C6        120.8830  169.6700  148.1820 C.ar      1 ATP901      0.0000 
     27 N6        119.7790  169.5520  147.4410 N.pl3     1 ATP901      0.0000 
     28 N1        120.8150  170.3800  149.3280 N.ar      1 ATP901      0.0000 
     29 C2        121.9160  170.5130  150.0690 C.ar      1 ATP901      0.0000 
     30 N3        123.1370  170.0230  149.8470 N.ar      1 ATP901      0.0000 
     31 C4        123.1740  169.3260  148.7060 C.ar      1 ATP901      0.0000 
@<TRIPOS>BOND
     1    1    2 ar   
     2    1    3 ar   
     3    1    4 ar   
     4    1    8 1    
     5    5    6 ar   
     6    5    7 ar   
     7    5    8 1    
     8    5   12 1    
     9    9   10 ar   
    10    9   11 ar   
    11    9   12 1    
    12    9   13 1    
    13   13   14 1    
    14   14   15 1    
    15   15   16 1    
    16   15   17 1    
    17   16   21 1    
    18   17   18 1    
    19   17   19 1    
    20   19   20 1    
    21   19   21 1    
    22   21   22 1    
    23   22   23 1    
    24   22   31 1    
    25   23   24 2    
    26   24   25 1    
    27   25   26 ar   
    28   25   31 ar   
    29   26   27 1    
    30   26   28 ar   
    31   28   29 ar   
    32   29   30 ar   
    33   30   31 ar   
@<TRIPOS>SUBSTRUCTURE
     1 ATP901      1 GROUP   
@<TRIPOS>SET
ATOM$ORANGE STATIC     ATOMS   COLORGROUP SYSTEM 
20 14 14 15 15 17 17 19 19 21 21 23 23 25 25 26 26 29 \
29 31 31 

