#    Name: 6n8v_5_ATP
#    Modification time : Fri May 22 19:31:27 2020

@<TRIPOS>MOLECULE
6n8v_5_ATP
   31    33     1     0     1
SMALL
NO_CHARGES


@<TRIPOS>ATOM
      1 PG        141.7110  162.2620  104.4360 P.3       1 ATP902      0.0000 
      2 O1G       142.3370  163.1840  103.4600 O.co2     1 ATP902      0.0000 
      3 O2G       140.2020  162.1060  104.0320 O.co2     1 ATP902      0.0000 
      4 O3G       142.4280  160.8690  104.3160 O.co2     1 ATP902      0.0000 
      5 PB        143.2280  163.4780  106.6300 P.3       1 ATP902      0.0000 
      6 O1B       144.2200  162.3770  106.5510 O.co2     1 ATP902      0.0000 
      7 O2B       142.9260  163.8330  108.1050 O.co2     1 ATP902      0.0000 
      8 O3B       141.7710  162.9300  105.9940 O.3       1 ATP902      0.0000 
      9 PA        144.0340  166.0400  106.9660 P.3       1 ATP902      0.0000 
     10 O1A       142.7270  166.6320  107.3120 O.co2     1 ATP902      0.0000 
     11 O2A       144.7680  165.4600  108.1760 O.co2     1 ATP902      0.0000 
     12 O3A       143.8480  164.7730  106.0030 O.3       1 ATP902      0.0000 
     13 O5'       144.8930  167.2090  106.2750 O.3       1 ATP902      0.0000 
     14 C5'       145.3350  168.3410  107.0960 C.3       1 ATP902      0.0000 
     15 C4'       145.9770  169.4700  106.3140 C.3       1 ATP902      0.0000 
     16 O4'       145.3910  169.5820  105.0040 O.3       1 ATP902      0.0000 
     17 C3'       145.8250  170.8510  106.9410 C.3       1 ATP902      0.0000 
     18 O3'       146.8580  171.1110  107.8830 O.3       1 ATP902      0.0000 
     19 C2'       145.9020  171.7870  105.7330 C.3       1 ATP902      0.0000 
     20 O2'       147.2370  172.1760  105.4310 O.3       1 ATP902      0.0000 
     21 C1'       145.2490  170.9420  104.6310 C.3       1 ATP902      0.0000 
     22 N9        143.8250  171.1800  104.4190 N.pl3     1 ATP902      0.0000 
     23 C8        143.0910  170.7690  103.3410 C.2       1 ATP902      0.0000 
     24 N7        141.8210  171.0770  103.4100 N.2       1 ATP902      0.0000 
     25 C5        141.7110  171.7450  104.6180 C.ar      1 ATP902      0.0000 
     26 C6        140.6150  172.3160  105.2880 C.ar      1 ATP902      0.0000 
     27 N6        139.3730  172.3190  104.8100 N.pl3     1 ATP902      0.0000 
     28 N1        140.8400  172.8890  106.4870 N.ar      1 ATP902      0.0000 
     29 C2        142.0770  172.8760  106.9810 C.ar      1 ATP902      0.0000 
     30 N3        143.1830  172.3570  106.4470 N.ar      1 ATP902      0.0000 
     31 C4        142.9350  171.8090  105.2560 C.ar      1 ATP902      0.0000 
@<TRIPOS>BOND
     1    1    2 ar   
     2    1    3 ar   
     3    1    4 ar   
     4    1    8 1    
     5    5    6 ar   
     6    5    7 ar   
     7    5    8 1    
     8    5   12 1    
     9    9   10 ar   
    10    9   11 ar   
    11    9   12 1    
    12    9   13 1    
    13   13   14 1    
    14   14   15 1    
    15   15   16 1    
    16   15   17 1    
    17   16   21 1    
    18   17   18 1    
    19   17   19 1    
    20   19   20 1    
    21   19   21 1    
    22   21   22 1    
    23   22   23 1    
    24   22   31 1    
    25   23   24 2    
    26   24   25 1    
    27   25   26 ar   
    28   25   31 ar   
    29   26   27 1    
    30   26   28 ar   
    31   28   29 ar   
    32   29   30 ar   
    33   30   31 ar   
@<TRIPOS>SUBSTRUCTURE
     1 ATP902      1 GROUP   
@<TRIPOS>SET
ATOM$ORANGE STATIC     ATOMS   COLORGROUP SYSTEM 
20 14 14 15 15 17 17 19 19 21 21 23 23 25 25 26 26 29 \
29 31 31 

