#    Name: 6n8v_7_ATP
#    Modification time : Fri May 22 19:32:36 2020

@<TRIPOS>MOLECULE
6n8v_7_ATP
   31    33     1     0     1
SMALL
NO_CHARGES


@<TRIPOS>ATOM
      1 PG        107.7690  105.9290  133.0910 P.3       1 ATP901      0.0000 
      2 O1G       107.7360  106.7260  131.8370 O.co2     1 ATP901      0.0000 
      3 O2G       109.1500  105.1840  133.2120 O.co2     1 ATP901      0.0000 
      4 O3G       107.4940  106.8690  134.3240 O.co2     1 ATP901      0.0000 
      5 PB        107.1590  103.5920  132.0140 P.3       1 ATP901      0.0000 
      6 O1B       106.9790  103.9240  130.5100 O.co2     1 ATP901      0.0000 
      7 O2B       108.5720  103.3840  132.4130 O.co2     1 ATP901      0.0000 
      8 O3B       106.5550  104.7910  132.9960 O.3       1 ATP901      0.0000 
      9 PA        106.4670  102.0900  133.9030 P.3       1 ATP901      0.0000 
     10 O1A       107.7100  102.8790  134.3140 O.co2     1 ATP901      0.0000 
     11 O2A       106.5220  100.6550  134.2200 O.co2     1 ATP901      0.0000 
     12 O3A       106.3850  102.3270  132.3780 O.3       1 ATP901      0.0000 
     13 O5'       105.1190  102.7230  134.4000 O.3       1 ATP901      0.0000 
     14 C5'       104.1510  103.1560  133.4280 C.3       1 ATP901      0.0000 
     15 C4'       103.2260  104.1410  134.0620 C.3       1 ATP901      0.0000 
     16 O4'       101.8830  103.7780  133.7080 O.3       1 ATP901      0.0000 
     17 C3'       103.2160  104.0490  135.5740 C.3       1 ATP901      0.0000 
     18 O3'       102.5800  105.1930  136.1270 O.3       1 ATP901      0.0000 
     19 C2'       102.4030  102.7700  135.7990 C.3       1 ATP901      0.0000 
     20 O2'       101.6840  102.7900  137.0250 O.3       1 ATP901      0.0000 
     21 C1'       101.4400  102.7740  134.6020 C.3       1 ATP901      0.0000 
     22 N9        101.3820  101.5180  133.8650 N.pl3     1 ATP901      0.0000 
     23 C8        101.4150  101.3820  132.5040 C.2       1 ATP901      0.0000 
     24 N7        101.3340  100.1440  132.0870 N.2       1 ATP901      0.0000 
     25 C5        101.2550   99.4100  133.2570 C.ar      1 ATP901      0.0000 
     26 C6        101.1550   98.0280  133.5040 C.ar      1 ATP901      0.0000 
     27 N6        101.1120   97.1060  132.5410 N.pl3     1 ATP901      0.0000 
     28 N1        101.0810   97.6250  134.7890 N.ar      1 ATP901      0.0000 
     29 C2        101.1240   98.5440  135.7560 C.ar      1 ATP901      0.0000 
     30 N3        101.2150   99.8700  135.6460 N.ar      1 ATP901      0.0000 
     31 C4        101.2810  100.2420  134.3650 C.ar      1 ATP901      0.0000 
@<TRIPOS>BOND
     1    1    2 ar   
     2    1    3 ar   
     3    1    4 ar   
     4    1    8 1    
     5    5    6 ar   
     6    5    7 ar   
     7    5    8 1    
     8    5   12 1    
     9    9   10 ar   
    10    9   11 ar   
    11    9   12 1    
    12    9   13 1    
    13   13   14 1    
    14   14   15 1    
    15   15   16 1    
    16   15   17 1    
    17   16   21 1    
    18   17   18 1    
    19   17   19 1    
    20   19   20 1    
    21   19   21 1    
    22   21   22 1    
    23   22   23 1    
    24   22   31 1    
    25   23   24 2    
    26   24   25 1    
    27   25   26 ar   
    28   25   31 ar   
    29   26   27 1    
    30   26   28 ar   
    31   28   29 ar   
    32   29   30 ar   
    33   30   31 ar   
@<TRIPOS>SUBSTRUCTURE
     1 ATP901      1 GROUP   
@<TRIPOS>SET
ATOM$ORANGE STATIC     ATOMS   COLORGROUP SYSTEM 
20 14 14 15 15 17 17 19 19 21 21 23 23 25 25 26 26 29 \
29 31 31 

