#    Name: 6n8v_3_ATP_CAVITY_N1_4
#    Modification time : Fri May 22 19:30:35 2020

@<TRIPOS>MOLECULE
6n8v_3_ATP_CAVITY_N1_4
   69     0     3     0     0
SMALL
NO_CHARGES


@<TRIPOS>ATOM
      1 O         172.8700  140.8900  100.4900 O.2       1 ALA2        0.0000 
      2 N         171.9600  142.6800   99.8100 N.am      1 ALA2        0.0000 
      3 O         173.1200  141.8400   99.3600 O.2       1 ALA2        0.0000 
      4 N         171.0500  144.4800   99.1300 N.am      1 ALA2        0.0000 
      5 O         172.2100  143.6400   98.6800 O.2       1 ALA2        0.0000 
      6 O         166.3300  144.8100  106.3300 O.2       1 ALA2        0.0000 
      7 O         167.7400  144.9300  104.7500 O.2       1 ALA2        0.0000 
      8 N         173.5400  140.7300  102.4900 N.am      1 ALA2        0.0000 
      9 O         167.9900  145.8800  103.6200 O.2       1 ALA2        0.0000 
     10 N         173.7900  141.6900  101.3600 N.am      1 ALA2        0.0000 
     11 O         174.9500  140.8500  100.9100 O.2       1 ALA2        0.0000 
     12 N         170.8100  146.1100  100.4600 N.am      1 ALA2        0.0000 
     13 N         171.9700  145.2700  100.0100 N.am      1 ALA2        0.0000 
     14 N         172.2200  146.2300   98.8800 N.am      1 ALA2        0.0000 
     15 N         173.8000  144.2800  101.5600 N.am      1 ALA2        0.0000 
     16 N         170.5700  147.7500  101.7900 N.am      1 ALA2        0.0000 
     17 N         172.8900  146.0700  100.8900 N.am      1 ALA2        0.0000 
     18 N         174.0500  145.2300  100.4300 N.am      1 ALA2        0.0000 
     19 N         171.9800  147.8600  100.2100 N.am      1 ALA2        0.0000 
     20 N         173.1400  147.0200   99.7600 N.am      1 ALA2        0.0000 
     21 N         174.3000  146.1900   99.3100 N.am      1 ALA2        0.0000 
     22 N         174.5500  147.1400   98.1800 N.am      1 ALA2        0.0000 
     23 N         174.7200  145.0700  102.4400 N.am      1 ALA2        0.0000 
     24 N         171.4900  148.5400  102.6700 N.am      1 ALA2        0.0000 
     25 N         172.6500  147.7100  102.2200 N.am      1 ALA2        0.0000 
     26 N         173.8100  146.8700  101.7600 N.am      1 ALA2        0.0000 
     27 O         174.0600  147.8200  100.6300 O.2       1 ALA2        0.0000 
     28 O         175.2200  146.9800  100.1800 O.2       1 ALA2        0.0000 
     29 O         175.4700  147.9400   99.0500 O.2       1 ALA2        0.0000 
     30 N         173.3200  147.5500  104.2200 N.am      1 ALA2        0.0000 
     31 N         176.7900  145.0300  102.8700 N.am      1 ALA2        0.0000 
     32 N         175.8900  146.8200  102.1900 N.am      1 ALA2        0.0000 
     33 N         177.0500  145.9900  101.7400 N.am      1 ALA2        0.0000 
     34 N         173.9900  147.3900  106.2300 N.am      1 ALA2        0.0000 
     35 O         173.0800  149.1800  105.5500 O.2       1 ALA2        0.0000 
     36 O         174.2400  148.3400  105.1000 O.2       1 ALA2        0.0000 
     37 N         177.7100  145.8300  103.7500 N.am      1 ALA2        0.0000 
     38 N         178.2200  147.7400  101.4900 N.am      1 ALA2        0.0000 
     39 CA        163.0900  143.1000  106.1600 C.3       2 GLY6        0.0000 
     40 CA        165.1600  143.0600  106.5900 C.3       2 GLY6        0.0000 
     41 CA        165.4100  144.0100  105.4600 C.3       2 GLY6        0.0000 
     42 CA        164.9200  144.6900  107.9100 C.3       2 GLY6        0.0000 
     43 CA        166.5800  145.7600  105.2000 C.3       2 GLY6        0.0000 
     44 CA        172.8800  143.4800  100.6900 C.3       2 GLY6        0.0000 
     45 CA        173.3800  145.3900   98.4300 C.3       2 GLY6        0.0000 
     46 CA        176.3700  143.5500   99.5300 C.3       2 GLY6        0.0000 
     47 CA        175.4600  145.3500   98.8500 C.3       2 GLY6        0.0000 
     48 CA        176.7800  142.4400  102.6700 C.3       2 GLY6        0.0000 
     49 CA        177.0300  143.4000  101.5400 C.3       2 GLY6        0.0000 
     50 CA        176.1300  145.1900  100.8600 C.3       2 GLY6        0.0000 
     51 CA        171.7400  149.5000  101.5400 C.3       2 GLY6        0.0000 
     52 CA        172.9000  148.6600  101.0900 C.3       2 GLY6        0.0000 
     53 CA        176.3800  146.1400   99.7300 C.3       2 GLY6        0.0000 
     54 CA        174.2300  145.7500  104.9000 C.3       2 GLY6        0.0000 
     55 CA        177.7000  143.2400  103.5500 C.3       2 GLY6        0.0000 
     56 CA        172.1600  148.3900  104.6700 C.3       2 GLY6        0.0000 
     57 CA        177.3000  146.9400  100.6100 C.3       2 GLY6        0.0000 
     58 CA        177.5500  147.9000   99.4800 C.3       2 GLY6        0.0000 
     59 CA        174.9100  148.1900  107.1100 C.3       2 GLY6        0.0000 
     60 DU        164.0000  143.9000  107.0400 H         3 CUB7        0.0000 
     61 DU        173.1300  144.4300   99.5600 H         3 CUB7        0.0000 
     62 DU        174.7100  142.4800  102.2400 H         3 CUB7        0.0000 
     63 DU        175.8600  141.6400  101.7900 H         3 CUB7        0.0000 
     64 DU        174.9600  143.4400  101.1100 H         3 CUB7        0.0000 
     65 DU        176.1200  142.6000  100.6600 H         3 CUB7        0.0000 
     66 DU        175.2100  144.3900   99.9800 H         3 CUB7        0.0000 
     67 DU        175.6200  143.2800  103.1200 H         3 CUB7        0.0000 
     68 DU        175.8800  144.2300  101.9900 H         3 CUB7        0.0000 
     69 DU        174.9700  146.0300  101.3100 H         3 CUB7        0.0000 
@<TRIPOS>BOND
@<TRIPOS>SUBSTRUCTURE
     1 ALA2        1 GROUP   
     2 GLY6       39 GROUP   
     3 CUB7       60 GROUP   
@<TRIPOS>SET

