#    Name: 6n8v_9_ATP_CAVITY_N1_4
#    Modification time : Fri May 22 19:33:13 2020

@<TRIPOS>MOLECULE
6n8v_9_ATP_CAVITY_N1_4
   26     0     3     0     0
SMALL
NO_CHARGES


@<TRIPOS>ATOM
      1 O         136.1200   89.8600  110.9500 O.2       1 ALA2        0.0000 
      2 O         135.8800   91.5000  112.2800 O.2       1 ALA2        0.0000 
      3 N         136.1300   92.4500  111.1500 N.am      1 ALA2        0.0000 
      4 N         136.1400   95.0400  111.3500 N.am      1 ALA2        0.0000 
      5 N         137.3000   94.2000  110.9000 N.am      1 ALA2        0.0000 
      6 O         137.4700   92.1400  115.1700 O.2       1 ALA2        0.0000 
      7 O         135.9000   96.6800  112.6800 O.2       1 ALA2        0.0000 
      8 O         137.0600   95.8400  112.2300 O.2       1 ALA2        0.0000 
      9 N         138.2200   95.0000  111.7800 N.am      1 ALA2        0.0000 
     10 O         139.5500   92.1000  115.5900 O.2       1 ALA2        0.0000 
     11 O         137.4800   94.7300  115.3700 O.2       1 ALA2        0.0000 
     12 O         137.7300   95.6800  114.2400 O.2       1 ALA2        0.0000 
     13 N         138.8900   94.8400  113.7800 N.am      1 ALA2        0.0000 
     14 CA        135.8900   94.0900  112.4800 C.3       2 GLY6        0.0000 
     15 CA        138.2100   92.4100  111.5800 C.3       2 GLY6        0.0000 
     16 CA        137.7200   93.0900  114.0400 C.3       2 GLY6        0.0000 
     17 CA        138.8800   92.2500  113.5800 C.3       2 GLY6        0.0000 
     18 CA        139.1300   93.2100  112.4500 C.3       2 GLY6        0.0000 
     19 CA        138.3900   92.9300  116.0400 C.3       2 GLY6        0.0000 
     20 CA        138.6400   93.8900  114.9100 C.3       2 GLY6        0.0000 
     21 CA        139.8000   93.0500  114.4600 C.3       2 GLY6        0.0000 
     22 CA        140.4700   92.8900  116.4700 C.3       2 GLY6        0.0000 
     23 DU        137.0500   93.2500  112.0300 H         3 CUB7        0.0000 
     24 DU        136.5600   93.9300  114.4900 H         3 CUB7        0.0000 
     25 DU        136.8100   94.8900  113.3600 H         3 CUB7        0.0000 
     26 DU        137.9700   94.0500  112.9100 H         3 CUB7        0.0000 
@<TRIPOS>BOND
@<TRIPOS>SUBSTRUCTURE
     1 ALA2        1 GROUP   
     2 GLY6       14 GROUP   
     3 CUB7       23 GROUP   
@<TRIPOS>SET

