#    Name: 6n8v_1_ATP_CAVITY_N1_4
#    Modification time : Fri May 22 19:29:52 2020

@<TRIPOS>MOLECULE
6n8v_1_ATP_CAVITY_N1_4
   77     0     3     0     0
SMALL
NO_CHARGES


@<TRIPOS>ATOM
      1 N         171.3900  102.0100  109.1300 N.am      1 ALA2        0.0000 
      2 N         170.4900  103.8000  108.4500 N.am      1 ALA2        0.0000 
      3 N         171.3100   98.9900  114.5300 N.am      1 ALA2        0.0000 
      4 N         171.8100  100.9000  112.2700 N.am      1 ALA2        0.0000 
      5 N         172.0600  101.8500  111.1400 N.am      1 ALA2        0.0000 
      6 N         172.3100  102.8100  110.0100 N.am      1 ALA2        0.0000 
      7 N         172.5600  103.7600  108.8800 N.am      1 ALA2        0.0000 
      8 O         174.8800  102.0800  107.9800 O.2       1 ALA2        0.0000 
      9 N         172.8100  104.7200  107.7500 N.am      1 ALA2        0.0000 
     10 O         175.1300  103.0400  106.8500 O.2       1 ALA2        0.0000 
     11 N         171.5700  102.5300  113.6000 N.am      1 ALA2        0.0000 
     12 N         171.8200  103.4900  112.4700 N.am      1 ALA2        0.0000 
     13 N         172.9800  102.6500  112.0200 N.am      1 ALA2        0.0000 
     14 N         173.2300  103.6000  110.8900 N.am      1 ALA2        0.0000 
     15 N         174.3900  102.7600  110.4300 N.am      1 ALA2        0.0000 
     16 N         174.6400  103.7200  109.3100 N.am      1 ALA2        0.0000 
     17 N         176.9600  102.0400  108.4000 N.am      1 ALA2        0.0000 
     18 O         169.1000  108.8700  110.4300 O.2       1 ALA2        0.0000 
     19 N         173.7300  105.5100  108.6300 N.am      1 ALA2        0.0000 
     20 N         174.8900  104.6700  108.1800 N.am      1 ALA2        0.0000 
     21 N         176.0500  103.8400  107.7200 N.am      1 ALA2        0.0000 
     22 N         173.9800  106.4700  107.5000 N.am      1 ALA2        0.0000 
     23 N         175.1400  105.6300  107.0500 N.am      1 ALA2        0.0000 
     24 N         176.3000  104.7900  106.5900 N.am      1 ALA2        0.0000 
     25 N         175.3100  103.5600  111.3100 N.am      1 ALA2        0.0000 
     26 N         175.5600  104.5200  110.1800 N.am      1 ALA2        0.0000 
     27 N         176.7200  103.6800  109.7300 N.am      1 ALA2        0.0000 
     28 N         177.8800  102.8400  109.2800 N.am      1 ALA2        0.0000 
     29 O         170.0200  109.6600  111.3100 O.2       1 ALA2        0.0000 
     30 N         175.8100  105.4700  109.0500 N.am      1 ALA2        0.0000 
     31 N         174.9000  107.2600  108.3800 N.am      1 ALA2        0.0000 
     32 N         176.0600  106.4300  107.9200 N.am      1 ALA2        0.0000 
     33 O         168.1200  110.2300  115.3500 O.2       1 ALA2        0.0000 
     34 N         177.3900  103.5200  111.7400 N.am      1 ALA2        0.0000 
     35 N         178.5500  102.6800  111.2900 N.am      1 ALA2        0.0000 
     36 O         169.5300  110.3500  113.7700 O.2       1 ALA2        0.0000 
     37 N         175.5700  107.1100  110.3800 N.am      1 ALA2        0.0000 
     38 N         176.7300  106.2700  109.9300 N.am      1 ALA2        0.0000 
     39 N         175.8200  108.0600  109.2500 N.am      1 ALA2        0.0000 
     40 N         176.9800  107.2200  108.8000 N.am      1 ALA2        0.0000 
     41 N         176.4900  107.9000  111.2600 N.am      1 ALA2        0.0000 
     42 N         176.6600  105.8400  115.5300 N.am      1 ALA2        0.0000 
     43 N         178.0700  105.9500  113.9500 N.am      1 ALA2        0.0000 
     44 CA        171.5600   99.9400  113.4000 C.3       2 GLY6        0.0000 
     45 CA        174.3800  100.1700  110.2300 C.3       2 GLY6        0.0000 
     46 CA        174.6300  101.1300  109.1100 C.3       2 GLY6        0.0000 
     47 CA        171.6600  105.5500  108.2000 C.3       2 GLY6        0.0000 
     48 CA        173.0600  105.6700  106.6200 C.3       2 GLY6        0.0000 
     49 CA        174.2200  104.8300  106.1700 C.3       2 GLY6        0.0000 
     50 CA        175.0500  100.0200  112.2400 C.3       2 GLY6        0.0000 
     51 CA        175.3000  100.9700  111.1100 C.3       2 GLY6        0.0000 
     52 CA        175.5500  101.9300  109.9800 C.3       2 GLY6        0.0000 
     53 CA        166.0400  110.2700  114.9300 C.3       2 GLY6        0.0000 
     54 CA        176.4700  102.7200  110.8600 C.3       2 GLY6        0.0000 
     55 CA        168.6100  109.5500  112.8900 C.3       2 GLY6        0.0000 
     56 CA        171.1800  108.8300  110.8600 C.3       2 GLY6        0.0000 
     57 CA        176.2300  104.3600  112.1900 C.3       2 GLY6        0.0000 
     58 CA        176.4800  105.3100  111.0600 C.3       2 GLY6        0.0000 
     59 CA        176.2400  106.9500  112.3900 C.3       2 GLY6        0.0000 
     60 CA        177.4000  106.1100  111.9400 C.3       2 GLY6        0.0000 
     61 CA        177.6500  107.0600  110.8100 C.3       2 GLY6        0.0000 
     62 CA        178.3200  106.9100  112.8200 C.3       2 GLY6        0.0000 
     63 DU        172.3000  100.2200  109.8100 H         3 CUB7        0.0000 
     64 DU        172.5500  101.1700  108.6800 H         3 CUB7        0.0000 
     65 DU        171.6400  102.9600  108.0000 H         3 CUB7        0.0000 
     66 DU        172.8000  102.1300  107.5500 H         3 CUB7        0.0000 
     67 DU        172.7200   99.1000  112.9500 H         3 CUB7        0.0000 
     68 DU        172.9700  100.0600  111.8200 H         3 CUB7        0.0000 
     69 DU        173.2200  101.0100  110.6900 H         3 CUB7        0.0000 
     70 DU        173.4700  101.9700  109.5600 H         3 CUB7        0.0000 
     71 DU        173.7200  102.9200  108.4300 H         3 CUB7        0.0000 
     72 DU        173.9700  103.8800  107.3000 H         3 CUB7        0.0000 
     73 DU        173.8900  100.8600  112.6900 H         3 CUB7        0.0000 
     74 DU        174.1400  101.8100  111.5600 H         3 CUB7        0.0000 
     75 DU        175.8000  102.8800  108.8500 H         3 CUB7        0.0000 
     76 DU        175.0600  102.6100  112.4400 H         3 CUB7        0.0000 
     77 DU        166.9600  111.0700  115.8000 H         3 CUB7        0.0000 
@<TRIPOS>BOND
@<TRIPOS>SUBSTRUCTURE
     1 ALA2        1 GROUP   
     2 GLY6       44 GROUP   
     3 CUB7       63 GROUP   
@<TRIPOS>SET

