#    Name: 6n8v_5_ATP_CAVITY_N1_4
#    Modification time : Fri May 22 19:31:28 2020

@<TRIPOS>MOLECULE
6n8v_5_ATP_CAVITY_N1_4
   55     0     3     0     0
SMALL
NO_CHARGES


@<TRIPOS>ATOM
      1 N         135.9500  171.1800  103.9500 N.am      1 ALA2        0.0000 
      2 N         136.2000  172.1400  102.8200 N.am      1 ALA2        0.0000 
      3 N         137.6100  172.2500  101.2400 N.am      1 ALA2        0.0000 
      4 N         139.9300  170.5800  100.3400 N.am      1 ALA2        0.0000 
      5 N         135.9600  173.7700  104.1500 N.am      1 ALA2        0.0000 
      6 N         137.1200  172.9400  103.7000 N.am      1 ALA2        0.0000 
      7 N         139.4400  171.2600  102.7900 N.am      1 ALA2        0.0000 
      8 N         140.8500  171.3700  101.2100 N.am      1 ALA2        0.0000 
      9 N         142.0000  170.5400  100.7600 N.am      1 ALA2        0.0000 
     10 N         143.1600  169.7000  100.3100 N.am      1 ALA2        0.0000 
     11 O         138.7000  170.9800  106.3800 O.2       1 ALA2        0.0000 
     12 O         136.6300  173.6200  106.1600 O.2       1 ALA2        0.0000 
     13 O         137.7900  172.7800  105.7100 O.2       1 ALA2        0.0000 
     14 O         138.9500  171.9400  105.2500 O.2       1 ALA2        0.0000 
     15 N         140.1000  171.1000  104.8000 N.am      1 ALA2        0.0000 
     16 N         136.8800  174.5700  105.0300 N.am      1 ALA2        0.0000 
     17 O         139.2000  172.8900  104.1200 O.2       1 ALA2        0.0000 
     18 N         141.5100  171.2200  103.2200 N.am      1 ALA2        0.0000 
     19 N         141.7600  172.1700  102.0900 N.am      1 ALA2        0.0000 
     20 N         142.9200  171.3300  101.6400 N.am      1 ALA2        0.0000 
     21 N         144.0800  170.4900  101.1900 N.am      1 ALA2        0.0000 
     22 O         145.2400  169.6500  100.7400 O.2       1 ALA2        0.0000 
     23 N         142.6800  172.9700  102.9700 N.am      1 ALA2        0.0000 
     24 O         146.1600  170.4500  101.6100 O.2       1 ALA2        0.0000 
     25 N         141.7800  174.7600  102.2900 N.am      1 ALA2        0.0000 
     26 O         148.2400  170.4100  102.0400 O.2       1 ALA2        0.0000 
     27 N         149.1600  171.2100  102.9200 N.am      1 ALA2        0.0000 
     28 CA        136.6200  171.0300  105.9600 C.3       2 GLY6        0.0000 
     29 CA        136.8700  171.9800  104.8300 C.3       2 GLY6        0.0000 
     30 CA        138.0300  171.1400  104.3800 C.3       2 GLY6        0.0000 
     31 CA        138.2800  172.1000  103.2500 C.3       2 GLY6        0.0000 
     32 CA        144.0700  167.9000  100.9900 C.3       2 GLY6        0.0000 
     33 CA        138.5300  173.0500  102.1200 C.3       2 GLY6        0.0000 
     34 CA        139.6900  172.2100  101.6700 C.3       2 GLY6        0.0000 
     35 CA        136.3800  172.6600  107.2900 C.3       2 GLY6        0.0000 
     36 CA        137.5400  171.8200  106.8300 C.3       2 GLY6        0.0000 
     37 CA        140.3600  172.0600  103.6700 C.3       2 GLY6        0.0000 
     38 CA        140.6100  173.0100  102.5400 C.3       2 GLY6        0.0000 
     39 CA        140.8600  173.9600  101.4100 C.3       2 GLY6        0.0000 
     40 CA        140.7700  170.9400  106.8100 C.3       2 GLY6        0.0000 
     41 CA        137.5500  174.4100  107.0300 C.3       2 GLY6        0.0000 
     42 CA        138.7100  173.5700  106.5800 C.3       2 GLY6        0.0000 
     43 CA        139.8700  172.7400  106.1300 C.3       2 GLY6        0.0000 
     44 CA        142.9300  173.9200  101.8400 C.3       2 GLY6        0.0000 
     45 CA        144.0900  173.0800  101.3900 C.3       2 GLY6        0.0000 
     46 CA        146.1700  173.0400  101.8100 C.3       2 GLY6        0.0000 
     47 CA        148.2500  173.0000  102.2400 C.3       2 GLY6        0.0000 
     48 DU        135.7100  172.8200  105.2800 H         3 CUB7        0.0000 
     49 DU        141.1000  172.3300  100.0800 H         3 CUB7        0.0000 
     50 DU        142.2600  171.4900   99.6300 H         3 CUB7        0.0000 
     51 DU        142.0200  173.1300  100.9600 H         3 CUB7        0.0000 
     52 DU        143.1700  172.2900  100.5100 H         3 CUB7        0.0000 
     53 DU        144.3300  171.4500  100.0600 H         3 CUB7        0.0000 
     54 DU        143.8400  172.1300  102.5200 H         3 CUB7        0.0000 
     55 DU        145.2500  172.2400  100.9400 H         3 CUB7        0.0000 
@<TRIPOS>BOND
@<TRIPOS>SUBSTRUCTURE
     1 ALA2        1 GROUP   
     2 GLY6       28 GROUP   
     3 CUB7       48 GROUP   
@<TRIPOS>SET

