#    Name: 6n8v_2_ATP
#    Modification time : Fri May 22 19:30:07 2020

@<TRIPOS>MOLECULE
6n8v_2_ATP
   31    33     1     0     1
SMALL
NO_CHARGES


@<TRIPOS>ATOM
      1 PG        158.6510  157.4530  146.6290 P.3       1 ATP901      0.0000 
      2 O1G       157.3400  157.5670  145.9270 O.co2     1 ATP901      0.0000 
      3 O2G       158.5070  157.9730  148.1080 O.co2     1 ATP901      0.0000 
      4 O3G       159.1590  155.9580  146.6270 O.co2     1 ATP901      0.0000 
      5 PB        159.1830  159.9830  145.9180 P.3       1 ATP901      0.0000 
      6 O1B       158.8690  160.5460  144.5020 O.co2     1 ATP901      0.0000 
      7 O2B       157.9890  160.0970  146.8000 O.co2     1 ATP901      0.0000 
      8 O3B       159.7460  158.4230  145.8010 O.3       1 ATP901      0.0000 
      9 PA        160.1400  161.4850  147.9620 P.3       1 ATP901      0.0000 
     10 O1A       159.1210  162.5540  147.9020 O.co2     1 ATP901      0.0000 
     11 O2A       159.8740  160.3830  148.9880 O.co2     1 ATP901      0.0000 
     12 O3A       160.3370  160.7530  146.5850 O.3       1 ATP901      0.0000 
     13 O5'       161.5550  162.1570  148.1190 O.3       1 ATP901      0.0000 
     14 C5'       162.6700  161.5600  147.4250 C.3       1 ATP901      0.0000 
     15 C4'       163.7310  162.5990  147.1540 C.3       1 ATP901      0.0000 
     16 O4'       163.2290  163.6070  146.2560 O.3       1 ATP901      0.0000 
     17 C3'       164.2690  163.3400  148.3810 C.3       1 ATP901      0.0000 
     18 O3'       165.6340  162.9940  148.5810 O.3       1 ATP901      0.0000 
     19 C2'       164.1220  164.8300  148.0240 C.3       1 ATP901      0.0000 
     20 O2'       165.2990  165.5610  148.3410 O.3       1 ATP901      0.0000 
     21 C1'       163.9390  164.7930  146.5130 C.3       1 ATP901      0.0000 
     22 N9        163.2130  165.9290  145.9380 N.pl3     1 ATP901      0.0000 
     23 C8        162.0230  165.8830  145.2610 C.2       1 ATP901      0.0000 
     24 N7        161.6040  167.0500  144.8340 N.2       1 ATP901      0.0000 
     25 C5        162.5940  167.9260  145.2500 C.ar      1 ATP901      0.0000 
     26 C6        162.7480  169.3200  145.1090 C.ar      1 ATP901      0.0000 
     27 N6        161.8690  170.1030  144.4810 N.pl3     1 ATP901      0.0000 
     28 N1        163.8480  169.8890  145.6460 N.ar      1 ATP901      0.0000 
     29 C2        164.7350  169.1070  146.2720 C.ar      1 ATP901      0.0000 
     30 N3        164.6950  167.7870  146.4700 N.ar      1 ATP901      0.0000 
     31 C4        163.5930  167.2530  145.9340 C.ar      1 ATP901      0.0000 
@<TRIPOS>BOND
     1    1    2 ar   
     2    1    3 ar   
     3    1    4 ar   
     4    1    8 1    
     5    5    6 ar   
     6    5    7 ar   
     7    5    8 1    
     8    5   12 1    
     9    9   10 ar   
    10    9   11 ar   
    11    9   12 1    
    12    9   13 1    
    13   13   14 1    
    14   14   15 1    
    15   15   16 1    
    16   15   17 1    
    17   16   21 1    
    18   17   18 1    
    19   17   19 1    
    20   19   20 1    
    21   19   21 1    
    22   21   22 1    
    23   22   23 1    
    24   22   31 1    
    25   23   24 2    
    26   24   25 1    
    27   25   26 ar   
    28   25   31 ar   
    29   26   27 1    
    30   26   28 ar   
    31   28   29 ar   
    32   29   30 ar   
    33   30   31 ar   
@<TRIPOS>SUBSTRUCTURE
     1 ATP901      1 GROUP   
@<TRIPOS>SET
ATOM$ORANGE STATIC     ATOMS   COLORGROUP SYSTEM 
20 14 14 15 15 17 17 19 19 21 21 23 23 25 25 26 26 29 \
29 31 31 

