#    Name: 6n8v_10_ATP
#    Modification time : Fri May 22 19:33:33 2020

@<TRIPOS>MOLECULE
6n8v_10_ATP
   31    33     1     0     1
SMALL
NO_CHARGES


@<TRIPOS>ATOM
      1 PG        100.0770  101.5400   86.6370 P.3       1 ATP902      0.0000 
      2 O1G        99.4990  102.1070   85.3800 O.co2     1 ATP902      0.0000 
      3 O2G       101.6390  101.4000   86.4700 O.co2     1 ATP902      0.0000 
      4 O3G        99.7450  102.4980   87.8520 O.co2     1 ATP902      0.0000 
      5 PB        100.6330   98.8720   87.0740 P.3       1 ATP902      0.0000 
      6 O1B       101.7910   99.1870   86.0830 O.co2     1 ATP902      0.0000 
      7 O2B       101.1650   98.9360   88.4640 O.co2     1 ATP902      0.0000 
      8 O3B        99.4130  100.0070   86.9020 O.3       1 ATP902      0.0000 
      9 PA         99.8350   96.3870   87.9040 P.3       1 ATP902      0.0000 
     10 O1A       100.5170   95.1210   87.5550 O.co2     1 ATP902      0.0000 
     11 O2A       100.2870   97.0610   89.2000 O.co2     1 ATP902      0.0000 
     12 O3A       100.0490   97.4630   86.7600 O.3       1 ATP902      0.0000 
     13 O5'        98.3000   96.0580   88.0240 O.3       1 ATP902      0.0000 
     14 C5'        97.7470   95.9030   89.3410 C.3       1 ATP902      0.0000 
     15 C4'        96.3220   95.4280   89.2390 C.3       1 ATP902      0.0000 
     16 O4'        96.1270   94.7660   87.9850 O.3       1 ATP902      0.0000 
     17 C3'        95.8950   94.4020   90.2880 C.3       1 ATP902      0.0000 
     18 O3'        95.2920   95.0460   91.4060 O.3       1 ATP902      0.0000 
     19 C2'        94.8850   93.5090   89.5430 C.3       1 ATP902      0.0000 
     20 O2'        93.5800   93.6540   90.0910 O.3       1 ATP902      0.0000 
     21 C1'        94.9390   94.0220   88.0990 C.3       1 ATP902      0.0000 
     22 N9         94.9510   92.9850   87.0730 N.pl3     1 ATP902      0.0000 
     23 C8         94.2480   92.9930   85.9000 C.2       1 ATP902      0.0000 
     24 N7         94.4560   91.9390   85.1460 N.2       1 ATP902      0.0000 
     25 C5         95.3620   91.1930   85.8780 C.ar      1 ATP902      0.0000 
     26 C6         95.9780   89.9450   85.6340 C.ar      1 ATP902      0.0000 
     27 N6         95.7730   89.2200   84.5320 N.pl3     1 ATP902      0.0000 
     28 N1         96.8340   89.4770   86.5650 N.ar      1 ATP902      0.0000 
     29 C2         97.0440   90.1980   87.6680 C.ar      1 ATP902      0.0000 
     30 N3         96.5210   91.3780   88.0080 N.ar      1 ATP902      0.0000 
     31 C4         95.6820   91.8190   87.0690 C.ar      1 ATP902      0.0000 
@<TRIPOS>BOND
     1    1    2 ar   
     2    1    3 ar   
     3    1    4 ar   
     4    1    8 1    
     5    5    6 ar   
     6    5    7 ar   
     7    5    8 1    
     8    5   12 1    
     9    9   10 ar   
    10    9   11 ar   
    11    9   12 1    
    12    9   13 1    
    13   13   14 1    
    14   14   15 1    
    15   15   16 1    
    16   15   17 1    
    17   16   21 1    
    18   17   18 1    
    19   17   19 1    
    20   19   20 1    
    21   19   21 1    
    22   21   22 1    
    23   22   23 1    
    24   22   31 1    
    25   23   24 2    
    26   24   25 1    
    27   25   26 ar   
    28   25   31 ar   
    29   26   27 1    
    30   26   28 ar   
    31   28   29 ar   
    32   29   30 ar   
    33   30   31 ar   
@<TRIPOS>SUBSTRUCTURE
     1 ATP902      1 GROUP   
@<TRIPOS>SET
ATOM$ORANGE STATIC     ATOMS   COLORGROUP SYSTEM 
20 14 14 15 15 17 17 19 19 21 21 23 23 25 25 26 26 29 \
29 31 31 

