#    Name: 6i4b_4_FMN
#    Modification time : Fri May 22 19:26:07 2020

@<TRIPOS>MOLECULE
6i4b_4_FMN
   31    33     1     0     1
SMALL
NO_CHARGES


@<TRIPOS>ATOM
      1 N1         37.5150    5.2300   53.7790 N.2       1 FMN601      0.0000 
      2 C2         36.7680    4.0140   54.1730 C.2       1 FMN601      0.0000 
      3 O2         36.2070    3.3690   53.3610 O.2       1 FMN601      0.0000 
      4 N3         36.7280    3.5980   55.5920 N.am      1 FMN601      0.0000 
      5 C4         37.4230    4.3850   56.5940 C.2       1 FMN601      0.0000 
      6 O4         37.3850    4.0490   57.7280 O.2       1 FMN601      0.0000 
      7 C4A        38.1860    5.6190   56.1790 C.2       1 FMN601      0.0000 
      8 N5         38.8940    6.4070   57.1760 N.2       1 FMN601      0.0000 
      9 C5A        39.6320    7.6320   56.7620 C.ar      1 FMN601      0.0000 
     10 C6         40.2990    8.3850   57.7300 C.ar      1 FMN601      0.0000 
     11 C7         41.0010    9.5280   57.3550 C.ar      1 FMN601      0.0000 
     12 C7M        41.6260   10.1370   58.6200 C.3       1 FMN601      0.0000 
     13 C8         41.0300    9.9260   55.9990 C.ar      1 FMN601      0.0000 
     14 C8M        41.7930   11.1790   55.5760 C.3       1 FMN601      0.0000 
     15 C9         40.3670    9.1680   55.0310 C.ar      1 FMN601      0.0000 
     16 C9A        39.6590    8.0230   55.4100 C.ar      1 FMN601      0.0000 
     17 N10        38.9410    7.2110   54.3760 N.pl3     1 FMN601      0.0000 
     18 C10        38.2120    6.0230   54.7850 C.2       1 FMN601      0.0000 
     19 C1'        38.9630    7.5970   52.9650 C.3       1 FMN601      0.0000 
     20 C2'        37.9030    8.6620   52.6990 C.3       1 FMN601      0.0000 
     21 O2'        36.6220    8.1440   52.9710 O.3       1 FMN601      0.0000 
     22 C3'        37.9570    9.1040   51.2350 C.3       1 FMN601      0.0000 
     23 O3'        37.6660    8.0020   50.4250 O.3       1 FMN601      0.0000 
     24 C4'        39.3440    9.6410   50.8770 C.3       1 FMN601      0.0000 
     25 O4'        39.7570   10.5010   51.8960 O.3       1 FMN601      0.0000 
     26 C5'        39.2650   10.4260   49.5670 C.3       1 FMN601      0.0000 
     27 O5'        38.3430   11.4780   49.6940 O.3       1 FMN601      0.0000 
     28 P          38.9020   13.0140   49.9410 P.3       1 FMN601      0.0000 
     29 O1P        39.5080   13.1100   51.3400 O.co2     1 FMN601      0.0000 
     30 O2P        37.7540   13.9880   49.9010 O.co2     1 FMN601      0.0000 
     31 O3P        39.9450   13.2840   48.8810 O.co2     1 FMN601      0.0000 
@<TRIPOS>BOND
     1    1    2 1    
     2    1   18 2    
     3    2    3 2    
     4    2    4 am   
     5    4    5 am   
     6    5    6 2    
     7    5    7 1    
     8    7    8 2    
     9    7   18 1    
    10    8    9 1    
    11    9   10 ar   
    12    9   16 ar   
    13   10   11 ar   
    14   11   12 1    
    15   11   13 ar   
    16   13   14 1    
    17   13   15 ar   
    18   15   16 ar   
    19   16   17 1    
    20   17   18 1    
    21   17   19 1    
    22   19   20 1    
    23   20   21 1    
    24   20   22 1    
    25   22   23 1    
    26   22   24 1    
    27   24   25 1    
    28   24   26 1    
    29   26   27 1    
    30   27   28 1    
    31   28   29 ar   
    32   28   30 ar   
    33   28   31 ar   
@<TRIPOS>SUBSTRUCTURE
     1 FMN601      1 GROUP   
@<TRIPOS>SET
ATOM$ORANGE STATIC     ATOMS   COLORGROUP SYSTEM 
34 2 2 5 5 7 7 9 9 10 10 11 11 12 12 13 13 14 \
14 15 15 16 16 18 18 19 19 20 20 22 22 24 24 26 26 

