#    Name: 6i4b_3_FMN_CAVITY_N1_4
#    Modification time : Fri May 22 19:26:03 2020

@<TRIPOS>MOLECULE
6i4b_3_FMN_CAVITY_N1_4
   66     0     6     0     0
SMALL
NO_CHARGES


@<TRIPOS>ATOM
      1 OG          6.4800  -24.4200   28.3300 O.3       1 SER1        0.0000 
      2 OG          7.2000  -24.7200   30.8100 O.3       1 SER1        0.0000 
      3 OG          6.1600  -23.7600   30.3200 O.3       1 SER1        0.0000 
      4 OG          7.0700  -23.3500   29.2000 O.3       1 SER1        0.0000 
      5 OG          8.8300  -24.6100   32.1600 O.3       1 SER1        0.0000 
      6 OG          9.5600  -24.9200   34.6400 O.3       1 SER1        0.0000 
      7 OG          9.4200  -23.5400   33.0300 O.3       1 SER1        0.0000 
      8 OG          8.3800  -22.5800   32.5400 O.3       1 SER1        0.0000 
      9 OG         12.0900  -24.4000   34.8700 O.3       1 SER1        0.0000 
     10 OG         10.0200  -17.9800   33.5300 O.3       1 SER1        0.0000 
     11 OG          8.9800  -17.0200   33.0400 O.3       1 SER1        0.0000 
     12 OG         10.6100  -16.9100   34.4000 O.3       1 SER1        0.0000 
     13 N           9.6000  -22.8300   29.4300 N.am      2 ALA2        0.0000 
     14 N          10.1900  -21.7600   30.2900 N.am      2 ALA2        0.0000 
     15 O          10.1500  -23.8400   35.5100 O.2       2 ALA2        0.0000 
     16 O          10.0100  -22.4700   33.9000 O.2       2 ALA2        0.0000 
     17 N          11.8200  -21.6500   31.6500 N.am      2 ALA2        0.0000 
     18 O           8.9700  -21.5000   33.4100 O.2       2 ALA2        0.0000 
     19 N          10.7800  -20.6900   31.1600 N.am      2 ALA2        0.0000 
     20 N           8.8400  -20.1300   31.8000 N.am      2 ALA2        0.0000 
     21 O          11.6400  -22.3600   35.2500 O.2       2 ALA2        0.0000 
     22 O          10.6000  -21.3900   34.7600 O.2       2 ALA2        0.0000 
     23 O          11.5100  -20.9900   33.6400 O.2       2 ALA2        0.0000 
     24 O          10.4700  -20.0200   33.1500 O.2       2 ALA2        0.0000 
     25 N          11.3700  -19.6100   32.0300 N.am      2 ALA2        0.0000 
     26 O           8.5200  -19.4700   33.7900 O.2       2 ALA2        0.0000 
     27 N           9.4300  -19.0600   32.6600 N.am      2 ALA2        0.0000 
     28 N          10.3300  -18.6500   31.5400 N.am      2 ALA2        0.0000 
     29 N          11.2400  -18.2400   30.4200 N.am      2 ALA2        0.0000 
     30 N           9.2900  -17.6800   31.0500 N.am      2 ALA2        0.0000 
     31 N          11.0600  -18.9500   34.0200 N.am      2 ALA2        0.0000 
     32 O          11.8300  -17.1600   31.2800 O.2       2 ALA2        0.0000 
     33 O           9.8800  -16.6100   31.9200 O.2       2 ALA2        0.0000 
     34 OD1         8.5600  -21.8700   28.9400 O.co2     3 ASP3        0.0000 
     35 OD1         9.1500  -20.7900   29.8100 O.co2     3 ASP3        0.0000 
     36 OD1         9.7400  -19.7200   30.6700 O.co2     3 ASP3        0.0000 
     37 OD1        10.6500  -19.3100   29.5500 O.co2     3 ASP3        0.0000 
     38 OD1        12.1000  -19.9100   34.5000 O.co2     3 ASP3        0.0000 
     39 OD1        13.0000  -19.5000   33.3800 O.co2     3 ASP3        0.0000 
     40 OD1        11.9600  -18.5400   32.8900 O.co2     3 ASP3        0.0000 
     41 OD1        12.8700  -18.1300   31.7700 O.co2     3 ASP3        0.0000 
     42 OD1        12.6900  -18.8400   35.3700 O.co2     3 ASP3        0.0000 
     43 OD1        11.6500  -17.8700   34.8800 O.co2     3 ASP3        0.0000 
     44 OD1        12.5500  -17.4600   33.7600 O.co2     3 ASP3        0.0000 
     45 CZ          9.7400  -24.2100   31.0400 C.ar      4 PHE5        0.0000 
     46 CZ         10.4600  -24.5100   33.5200 C.ar      4 PHE5        0.0000 
     47 CZ         10.3300  -23.1300   31.9100 C.ar      4 PHE5        0.0000 
     48 CZ         11.0500  -23.4300   34.3800 C.ar      4 PHE5        0.0000 
     49 CZ         11.9600  -23.0200   33.2600 C.ar      4 PHE5        0.0000 
     50 CZ         10.9200  -22.0600   32.7700 C.ar      4 PHE5        0.0000 
     51 CZ         12.5500  -21.9500   34.1200 C.ar      4 PHE5        0.0000 
     52 CZ         11.5100  -16.5000   33.2700 C.ar      4 PHE5        0.0000 
     53 CA          6.6100  -25.8000   29.9400 C.3       5 GLY6        0.0000 
     54 CA          7.5200  -25.3900   28.8200 C.3       5 GLY6        0.0000 
     55 CA          5.5700  -24.8300   29.4600 C.3       5 GLY6        0.0000 
     56 CA          8.1100  -24.3100   29.6900 C.3       5 GLY6        0.0000 
     57 CA          9.0100  -23.9100   28.5600 C.3       5 GLY6        0.0000 
     58 CA          8.7000  -23.2400   30.5500 C.3       5 GLY6        0.0000 
     59 CA          7.6600  -22.2800   30.0700 C.3       5 GLY6        0.0000 
     60 CA          9.2900  -22.1700   31.4200 C.3       5 GLY6        0.0000 
     61 CA          8.2500  -21.2000   30.9300 C.3       5 GLY6        0.0000 
     62 CA         11.1900  -24.8100   35.9900 C.3       5 GLY6        0.0000 
     63 CA         12.4100  -20.5800   32.5100 C.3       5 GLY6        0.0000 
     64 CA         13.1400  -20.8800   34.9900 C.3       5 GLY6        0.0000 
     65 DU          9.8800  -21.0900   32.2800 H         6 CUB7        0.0000 
     66 DU         10.9200  -17.5700   32.4100 H         6 CUB7        0.0000 
@<TRIPOS>BOND
@<TRIPOS>SUBSTRUCTURE
     1 SER1        1 GROUP   
     2 ALA2       13 GROUP   
     3 ASP3       34 GROUP   
     4 PHE5       45 GROUP   
     5 GLY6       53 GROUP   
     6 CUB7       65 GROUP   
@<TRIPOS>SET

