#    Name: 6i4b_3_FMN
#    Modification time : Fri May 22 19:26:01 2020

@<TRIPOS>MOLECULE
6i4b_3_FMN
   31    33     1     0     1
SMALL
NO_CHARGES


@<TRIPOS>ATOM
      1 N1         10.4050  -18.7550   29.8660 N.2       1 FMN601      0.0000 
      2 C2         11.1320  -17.5500   29.4210 C.2       1 FMN601      0.0000 
      3 O2         10.7460  -16.8960   28.5180 O.2       1 FMN601      0.0000 
      4 N3         12.3660  -17.1500   30.1190 N.am      1 FMN601      0.0000 
      5 C4         12.8790  -17.9150   31.2340 C.2       1 FMN601      0.0000 
      6 O4         13.8760  -17.5540   31.7610 O.2       1 FMN601      0.0000 
      7 C4A        12.1290  -19.1440   31.6920 C.2       1 FMN601      0.0000 
      8 N5         12.6130  -19.9310   32.8130 N.2       1 FMN601      0.0000 
      9 C5A        11.8610  -21.1520   33.2280 C.ar      1 FMN601      0.0000 
     10 C6         12.3260  -21.9180   34.3040 C.ar      1 FMN601      0.0000 
     11 C7         11.6170  -23.0520   34.6980 C.ar      1 FMN601      0.0000 
     12 C7M        12.3320  -23.7080   35.8850 C.3       1 FMN601      0.0000 
     13 C8         10.4460  -23.4250   34.0140 C.ar      1 FMN601      0.0000 
     14 C8M         9.6730  -24.6660   34.4460 C.3       1 FMN601      0.0000 
     15 C9          9.9810  -22.6580   32.9460 C.ar      1 FMN601      0.0000 
     16 C9A        10.6870  -21.5300   32.5450 C.ar      1 FMN601      0.0000 
     17 N10        10.1810  -20.7130   31.3970 N.pl3     1 FMN601      0.0000 
     18 C10        10.9150  -19.5380   30.9900 C.2       1 FMN601      0.0000 
     19 C1'         8.9590  -21.0720   30.6810 C.3       1 FMN601      0.0000 
     20 C2'         9.2860  -22.1580   29.6690 C.3       1 FMN601      0.0000 
     21 O2'        10.2250  -21.6600   28.7470 O.3       1 FMN601      0.0000 
     22 C3'         8.0000  -22.6250   28.9920 C.3       1 FMN601      0.0000 
     23 O3'         7.3800  -21.5400   28.3570 O.3       1 FMN601      0.0000 
     24 C4'         7.0290  -23.2210   30.0210 C.3       1 FMN601      0.0000 
     25 O4'         7.6950  -24.1200   30.8640 O.3       1 FMN601      0.0000 
     26 C5'         5.9020  -23.9590   29.2910 C.3       1 FMN601      0.0000 
     27 O5'         6.4390  -24.9980   28.5080 O.3       1 FMN601      0.0000 
     28 P           6.3960  -26.5430   29.1110 P.3       1 FMN601      0.0000 
     29 O1P         7.3400  -26.6330   30.3130 O.co2     1 FMN601      0.0000 
     30 O2P         6.9220  -27.4870   28.0650 O.co2     1 FMN601      0.0000 
     31 O3P         4.9780  -26.8660   29.5260 O.co2     1 FMN601      0.0000 
@<TRIPOS>BOND
     1    1    2 1    
     2    1   18 2    
     3    2    3 2    
     4    2    4 am   
     5    4    5 am   
     6    5    6 2    
     7    5    7 1    
     8    7    8 2    
     9    7   18 1    
    10    8    9 1    
    11    9   10 ar   
    12    9   16 ar   
    13   10   11 ar   
    14   11   12 1    
    15   11   13 ar   
    16   13   14 1    
    17   13   15 ar   
    18   15   16 ar   
    19   16   17 1    
    20   17   18 1    
    21   17   19 1    
    22   19   20 1    
    23   20   21 1    
    24   20   22 1    
    25   22   23 1    
    26   22   24 1    
    27   24   25 1    
    28   24   26 1    
    29   26   27 1    
    30   27   28 1    
    31   28   29 ar   
    32   28   30 ar   
    33   28   31 ar   
@<TRIPOS>SUBSTRUCTURE
     1 FMN601      1 GROUP   
@<TRIPOS>SET
ATOM$ORANGE STATIC     ATOMS   COLORGROUP SYSTEM 
34 2 2 5 5 7 7 9 9 10 10 11 11 12 12 13 13 14 \
14 15 15 16 16 18 18 19 19 20 20 22 22 24 24 26 26 

