#    Name: 6i4b_4_FMN_CAVITY_N1_8
#    Modification time : Fri May 22 19:26:09 2020

@<TRIPOS>MOLECULE
6i4b_4_FMN_CAVITY_N1_8
   80     0     6     0     0
SMALL
NO_CHARGES


@<TRIPOS>ATOM
      1 OG         37.3000    3.8500   55.4400 O.3       1 SER1        0.0000 
      2 OG         40.8700    3.4000   56.1600 O.3       1 SER1        0.0000 
      3 OG         41.7800    3.8100   55.0400 O.3       1 SER1        0.0000 
      4 OG         37.4800    9.0400   51.4800 O.3       1 SER1        0.0000 
      5 OG         38.3900    9.4500   50.3500 O.3       1 SER1        0.0000 
      6 OG         39.2900    9.8600   49.2300 O.3       1 SER1        0.0000 
      7 OG         38.2500   10.8200   48.7400 O.3       1 SER1        0.0000 
      8 OG         40.5600    8.5500   57.7800 O.3       1 SER1        0.0000 
      9 OG         41.1500    9.6200   58.6500 O.3       1 SER1        0.0000 
     10 O          38.3400    2.8800   55.9300 O.2       2 ALA2        0.0000 
     11 O          39.2400    3.2900   54.8100 O.2       2 ALA2        0.0000 
     12 N          40.1500    3.7000   53.6800 N.am      2 ALA2        0.0000 
     13 O          38.2000    4.2600   54.3200 O.2       2 ALA2        0.0000 
     14 N          40.7400    4.7700   54.5500 N.am      2 ALA2        0.0000 
     15 N          41.6400    5.1800   53.4200 N.am      2 ALA2        0.0000 
     16 N          39.7000    5.7400   54.0600 N.am      2 ALA2        0.0000 
     17 N          37.7500    6.2900   54.7000 N.am      2 ALA2        0.0000 
     18 N          39.5600    7.1100   52.4500 N.am      2 ALA2        0.0000 
     19 N          41.4600    4.4700   57.0300 N.am      2 ALA2        0.0000 
     20 N          42.3700    4.8800   55.9000 N.am      2 ALA2        0.0000 
     21 N          40.4200    5.4400   56.5400 N.am      2 ALA2        0.0000 
     22 O          41.3300    5.8500   55.4100 O.2       2 ALA2        0.0000 
     23 N          38.3400    7.3700   55.5600 N.am      2 ALA2        0.0000 
     24 N          39.2500    7.7800   54.4400 N.am      2 ALA2        0.0000 
     25 N          38.2000    8.7400   53.9500 N.am      2 ALA2        0.0000 
     26 N          41.0100    6.5100   57.4000 N.am      2 ALA2        0.0000 
     27 O          40.8800    7.8900   55.7900 O.2       2 ALA2        0.0000 
     28 O          40.7400    9.2600   54.1800 O.2       2 ALA2        0.0000 
     29 N          41.6000    7.5900   58.2700 N.am      2 ALA2        0.0000 
     30 O          41.4700    8.9600   56.6600 O.2       2 ALA2        0.0000 
     31 O          41.3300   10.3300   55.0500 O.2       2 ALA2        0.0000 
     32 O          42.9600   10.4400   56.4000 O.2       2 ALA2        0.0000 
     33 OD1        37.1600    5.2200   53.8300 O.co2     3 ASP3        0.0000 
     34 OD1        38.0700    5.6300   52.7100 O.co2     3 ASP3        0.0000 
     35 OD1        38.0200    3.5500   57.9200 O.co2     3 ASP3        0.0000 
     36 OD1        38.9300    3.9600   56.8000 O.co2     3 ASP3        0.0000 
     37 OD1        38.6600    6.7000   53.5700 O.co2     3 ASP3        0.0000 
     38 OD1        37.6200    7.6700   53.0900 O.co2     3 ASP3        0.0000 
     39 OD1        38.5200    8.0800   51.9600 O.co2     3 ASP3        0.0000 
     40 OD1        40.5600    4.0700   58.1500 O.co2     3 ASP3        0.0000 
     41 OD1        39.5200    5.0300   57.6600 O.co2     3 ASP3        0.0000 
     42 OD1        40.1100    6.1000   58.5300 O.co2     3 ASP3        0.0000 
     43 CZ         39.9700    2.9900   57.2800 C.ar      4 PHE5        0.0000 
     44 CZ         38.9300    8.4400   56.4300 C.ar      4 PHE5        0.0000 
     45 CZ         39.8400    8.8500   55.3100 C.ar      4 PHE5        0.0000 
     46 CZ         38.7900    9.8200   54.8200 C.ar      4 PHE5        0.0000 
     47 CZ         39.7000   10.2200   53.7000 C.ar      4 PHE5        0.0000 
     48 CZ         39.5200    9.5200   57.3000 C.ar      4 PHE5        0.0000 
     49 CZ         40.4300    9.9200   56.1700 C.ar      4 PHE5        0.0000 
     50 CZ         40.2900   11.3000   54.5600 C.ar      4 PHE5        0.0000 
     51 CZ         41.0100   11.0000   57.0400 C.ar      4 PHE5        0.0000 
     52 CZ         41.9200   11.4100   55.9100 C.ar      4 PHE5        0.0000 
     53 CZ         41.6000   12.0700   57.9000 C.ar      4 PHE5        0.0000 
     54 CA         40.2800    2.3300   55.2900 C.3       5 GLY6        0.0000 
     55 CA         41.1900    2.7400   54.1700 C.3       5 GLY6        0.0000 
     56 CA         42.6800    4.2200   53.9100 C.3       5 GLY6        0.0000 
     57 CA         37.8900    4.9200   56.3100 C.3       5 GLY6        0.0000 
     58 CA         39.4300    8.4900   50.8400 C.3       5 GLY6        0.0000 
     59 CA         38.4800    5.9900   57.1800 C.3       5 GLY6        0.0000 
     60 CA         41.1900    7.2200   53.8000 C.3       5 GLY6        0.0000 
     61 CA         40.1500    8.1900   53.3200 C.3       5 GLY6        0.0000 
     62 CA         40.0200    9.5600   51.7100 C.3       5 GLY6        0.0000 
     63 CA         38.0700   10.1200   52.3400 C.3       5 GLY6        0.0000 
     64 CA         38.9800   10.5200   51.2200 C.3       5 GLY6        0.0000 
     65 CA         39.8800   10.9300   50.0900 C.3       5 GLY6        0.0000 
     66 CA         37.9300   11.4900   50.7300 C.3       5 GLY6        0.0000 
     67 CA         38.8400   11.9000   49.6100 C.3       5 GLY6        0.0000 
     68 CA         39.0700    7.0700   58.0400 C.3       5 GLY6        0.0000 
     69 CA         40.6100   10.6300   52.5700 C.3       5 GLY6        0.0000 
     70 CA         39.5700   11.6000   52.0800 C.3       5 GLY6        0.0000 
     71 CA         38.5200   12.5600   51.6000 C.3       5 GLY6        0.0000 
     72 CA         40.7000    7.1800   59.3900 C.3       5 GLY6        0.0000 
     73 CA         39.6500    8.1400   58.9100 C.3       5 GLY6        0.0000 
     74 CA         42.0600   10.0300   57.5300 C.3       5 GLY6        0.0000 
     75 CA         42.6500   11.1100   58.3900 C.3       5 GLY6        0.0000 
     76 DU         39.8300    4.3700   55.6700 H         6 CUB7        0.0000 
     77 DU         38.7900    5.3300   55.1900 H         6 CUB7        0.0000 
     78 DU         39.3800    6.4000   56.0500 H         6 CUB7        0.0000 
     79 DU         39.1100    9.1500   52.8300 H         6 CUB7        0.0000 
     80 DU         39.9700    7.4800   56.9200 H         6 CUB7        0.0000 
@<TRIPOS>BOND
@<TRIPOS>SUBSTRUCTURE
     1 SER1        1 GROUP   
     2 ALA2       10 GROUP   
     3 ASP3       33 GROUP   
     4 PHE5       43 GROUP   
     5 GLY6       54 GROUP   
     6 CUB7       76 GROUP   
@<TRIPOS>SET

