#    Name: 6i0m_1_5GP
#    Modification time : Fri May 22 19:42:15 2020

@<TRIPOS>MOLECULE
6i0m_1_5GP
   35    37     1     0     0
SMALL
NO_CHARGES


@<TRIPOS>ATOM
      1 P         145.6590  289.3340  354.1650 P.3       1 5GP601      0.0000 
      2 O1P       147.0010  288.8690  353.6870 O.co2     1 5GP601      0.0000 
      3 O2P       144.5070  288.4610  353.7650 O.co2     1 5GP601      0.0000 
      4 O3P       145.6240  289.7780  355.5960 O.co2     1 5GP601      0.0000 
      5 O5'       145.3970  290.6810  353.3500 O.3       1 5GP601      0.0000 
      6 C5'       144.2140  291.4160  353.6320 C.3       1 5GP601      0.0000 
      7 C4'       143.8850  292.3660  352.4910 C.3       1 5GP601      0.0000 
      8 O4'       142.4720  292.5380  352.4260 O.3       1 5GP601      0.0000 
      9 C3'       144.4920  293.7470  352.6800 C.3       1 5GP601      0.0000 
     10 O3'       145.7230  293.8930  351.9640 O.3       1 5GP601      0.0000 
     11 C2'       143.4240  294.7100  352.1960 C.3       1 5GP601      0.0000 
     12 O2'       143.7050  295.2000  350.8850 O.3       1 5GP601      0.0000 
     13 C1'       142.1380  293.9000  352.1620 C.3       1 5GP601      0.0000 
     14 N9        141.1530  294.3760  353.1660 N.pl3     1 5GP601      0.0000 
     15 C8        141.4190  295.0330  354.3090 C.2       1 5GP601      0.0000 
     16 N7        140.2750  295.3130  354.9800 N.2       1 5GP601      0.0000 
     17 C5        139.2530  294.8290  354.2610 C.2       1 5GP601      0.0000 
     18 C6        137.7830  294.7810  354.3940 C.2       1 5GP601      0.0000 
     19 O6        137.2110  295.2810  355.3820 O.2       1 5GP601      0.0000 
     20 N1        137.0810  294.1850  353.4260 N.am      1 5GP601      0.0000 
     21 C2        137.6770  293.6390  352.3530 C.2       1 5GP601      0.0000 
     22 N2        136.9060  293.0500  351.4100 N.pl3     1 5GP601      0.0000 
     23 N3        139.0170  293.6470  352.1670 N.2       1 5GP601      0.0000 
     24 C4        139.8380  294.2200  353.0680 C.2       1 5GP601      0.0000 
     25 H5'1      143.3820  290.7250  353.7820 H         1 5GP601      0.0000 
     26 H5'2      144.3490  291.9860  354.5530 H         1 5GP601      0.0000 
     27 H4'       144.2560  291.9380  351.5500 H         1 5GP601      0.0000 
     28 H3'       144.6600  293.9150  353.7530 H         1 5GP601      0.0000 
     29 H2'       143.3360  295.5460  352.9030 H         1 5GP601      0.0000 
     30 HO2'      144.5530  295.6640  350.8890 H         1 5GP601      0.0000 
     31 H1'       141.7050  293.9820  351.1560 H         1 5GP601      0.0000 
     32 H8        142.4120  295.3040  354.6470 H         1 5GP601      0.0000 
     33 HN1       136.0450  294.1430  353.5050 H         1 5GP601      0.0000 
     34 HN21      135.9030  293.0280  351.5190 H         1 5GP601      0.0000 
     35 HN22      137.3350  292.6330  350.5950 H         1 5GP601      0.0000 
@<TRIPOS>BOND
     1    1    2 ar   
     2    1    3 ar   
     3    1    4 ar   
     4    1    5 1    
     5    5    6 1    
     6    6    7 1    
     7    6   25 1    
     8    6   26 1    
     9    7    8 1    
    10    7    9 1    
    11    7   27 1    
    12    8   13 1    
    13    9   10 1    
    14    9   11 1    
    15    9   28 1    
    16   11   12 1    
    17   11   13 1    
    18   11   29 1    
    19   12   30 1    
    20   13   14 1    
    21   13   31 1    
    22   14   15 1    
    23   14   24 1    
    24   15   16 2    
    25   15   32 1    
    26   16   17 1    
    27   17   18 1    
    28   17   24 2    
    29   18   19 2    
    30   18   20 am   
    31   20   21 1    
    32   20   33 1    
    33   21   22 1    
    34   21   23 2    
    35   22   34 1    
    36   22   35 1    
    37   23   24 1    
@<TRIPOS>SUBSTRUCTURE
     1 5GP601      1 GROUP   
@<TRIPOS>SET

