#    Name: 6i0m_6_GDP
#    Modification time : Fri May 22 19:42:36 2020

@<TRIPOS>MOLECULE
6i0m_6_GDP
   39    41     1     0     1
SMALL
NO_CHARGES


@<TRIPOS>ATOM
      1 PB        173.9080  309.2280  368.7480 P.3       1 GDP603      0.0000 
      2 O1B       174.5720  309.8080  367.5340 O.co2     1 GDP603      0.0000 
      3 O2B       172.8400  310.0870  369.3650 O.co2     1 GDP603      0.0000 
      4 O3B       174.8630  308.6170  369.7260 O.co2     1 GDP603      0.0000 
      5 O3A       173.0860  307.9620  368.2380 O.3       1 GDP603      0.0000 
      6 PA        173.3960  307.2070  366.8640 P.3       1 GDP603      0.0000 
      7 O1A       174.7740  307.5460  366.3790 O.co2     1 GDP603      0.0000 
      8 O2A       173.0470  305.7680  367.0840 O.co2     1 GDP603      0.0000 
      9 O5'       172.3060  307.8560  365.8830 O.3       1 GDP603      0.0000 
     10 C5'       171.1030  307.1470  365.6160 C.3       1 GDP603      0.0000 
     11 C4'       170.6310  307.3810  364.1880 C.3       1 GDP603      0.0000 
     12 O4'       169.7010  308.4560  364.1030 O.3       1 GDP603      0.0000 
     13 C3'       171.7740  307.7190  363.2550 C.3       1 GDP603      0.0000 
     14 O3'       172.0170  306.6030  362.3960 O.3       1 GDP603      0.0000 
     15 C2'       171.3220  308.9520  362.4960 C.3       1 GDP603      0.0000 
     16 O2'       171.4750  308.8150  361.0810 O.3       1 GDP603      0.0000 
     17 C1'       169.8590  309.1120  362.8480 C.3       1 GDP603      0.0000 
     18 N9        169.4690  310.5280  362.9930 N.pl3     1 GDP603      0.0000 
     19 C8        168.4500  311.1180  362.3540 C.2       1 GDP603      0.0000 
     20 N7        168.3620  312.4240  362.6960 N.2       1 GDP603      0.0000 
     21 C5        169.3470  312.6810  363.5660 C.2       1 GDP603      0.0000 
     22 C6        169.8200  313.8560  364.3190 C.2       1 GDP603      0.0000 
     23 O6        169.2470  314.9550  364.2050 O.2       1 GDP603      0.0000 
     24 N1        170.8750  313.7100  365.1210 N.am      1 GDP603      0.0000 
     25 C2        171.5030  312.5310  365.2530 C.2       1 GDP603      0.0000 
     26 N2        172.5680  312.4490  366.0810 N.pl3     1 GDP603      0.0000 
     27 N3        171.1250  311.4130  364.5950 N.2       1 GDP603      0.0000 
     28 C4        170.0800  311.4300  363.7480 C.2       1 GDP603      0.0000 
     29 H5'       171.2690  306.0790  365.7730 H         1 GDP603      0.0000 
     30 H5''      170.3280  307.4710  366.3130 H         1 GDP603      0.0000 
     31 H4'       170.1550  306.4580  363.8280 H         1 GDP603      0.0000 
     32 H3'       172.6700  307.9590  363.8450 H         1 GDP603      0.0000 
     33 H2'       171.8790  309.8260  362.8600 H         1 GDP603      0.0000 
     34 HO2'      172.4050  308.6520  360.8720 H         1 GDP603      0.0000 
     35 H1'       169.2450  308.6210  362.0810 H         1 GDP603      0.0000 
     36 H8        167.7850  310.6170  361.6610 H         1 GDP603      0.0000 
     37 HN1       171.2210  314.5310  365.6570 H         1 GDP603      0.0000 
     38 HN21      172.8780  313.2670  366.5870 H         1 GDP603      0.0000 
     39 HN22      173.0540  311.5710  366.1930 H         1 GDP603      0.0000 
@<TRIPOS>BOND
     1    1    2 ar   
     2    1    3 ar   
     3    1    4 ar   
     4    1    5 1    
     5    5    6 1    
     6    6    7 ar   
     7    6    8 ar   
     8    6    9 1    
     9    9   10 1    
    10   10   11 1    
    11   10   29 1    
    12   10   30 1    
    13   11   12 1    
    14   11   13 1    
    15   11   31 1    
    16   12   17 1    
    17   13   14 1    
    18   13   15 1    
    19   13   32 1    
    20   15   16 1    
    21   15   17 1    
    22   15   33 1    
    23   16   34 1    
    24   17   18 1    
    25   17   35 1    
    26   18   19 1    
    27   18   28 1    
    28   19   20 2    
    29   19   36 1    
    30   20   21 1    
    31   21   22 1    
    32   21   28 2    
    33   22   23 2    
    34   22   24 am   
    35   24   25 1    
    36   24   37 1    
    37   25   26 1    
    38   25   27 2    
    39   26   38 1    
    40   26   39 1    
    41   27   28 1    
@<TRIPOS>SUBSTRUCTURE
     1 GDP603      1 GROUP   
@<TRIPOS>SET
ATOM$ORANGE STATIC     ATOMS   COLORGROUP SYSTEM 
20 10 10 11 11 13 13 15 15 17 17 19 19 21 21 22 22 25 \
25 28 28 

