#    Name: 6i0m_1_5GP_CAVITY_N1_6
#    Modification time : Fri May 22 19:42:16 2020

@<TRIPOS>MOLECULE
6i0m_1_5GP_CAVITY_N1_6
   88     0     6     0     0
SMALL
NO_CHARGES


@<TRIPOS>ATOM
      1 OG        142.4100  292.8900  354.1000 O.3       1 SER1        0.0000 
      2 OG        142.6300  291.4800  354.5800 O.3       1 SER1        0.0000 
      3 OG        143.9700  291.4700  353.9200 O.3       1 SER1        0.0000 
      4 OG        144.1900  290.0600  354.4000 O.3       1 SER1        0.0000 
      5 OG        144.8900  294.2600  352.3100 O.3       1 SER1        0.0000 
      6 OG        144.8100  290.5800  355.6600 O.3       1 SER1        0.0000 
      7 O         136.2900  292.7800  351.8200 O.2       2 ALA2        0.0000 
      8 O         137.8500  291.3600  351.6400 O.2       2 ALA2        0.0000 
      9 O         138.9800  292.7500  350.5000 O.2       2 ALA2        0.0000 
     10 O         139.1900  291.3400  350.9800 O.2       2 ALA2        0.0000 
     11 O         140.3300  292.7300  349.8400 O.2       2 ALA2        0.0000 
     12 N         140.5400  291.3200  350.3200 N.am      2 ALA2        0.0000 
     13 N         141.4600  294.1100  348.7100 N.am      2 ALA2        0.0000 
     14 O         138.4700  291.8800  352.9000 O.2       2 ALA2        0.0000 
     15 N         138.6800  290.4800  353.3800 N.am      2 ALA2        0.0000 
     16 N         140.0300  290.4600  352.7200 N.am      2 ALA2        0.0000 
     17 N         141.1700  291.8400  351.5800 N.am      2 ALA2        0.0000 
     18 O         141.8700  296.0400  349.4900 O.2       2 ALA2        0.0000 
     19 N         142.5100  291.8200  350.9200 N.am      2 ALA2        0.0000 
     20 N         139.3100  291.0000  354.6400 N.am      2 ALA2        0.0000 
     21 N         140.6500  290.9800  353.9800 N.am      2 ALA2        0.0000 
     22 O         142.8600  285.3400  355.2300 O.2       2 ALA2        0.0000 
     23 N         143.3500  290.9400  352.6600 N.am      2 ALA2        0.0000 
     24 O         143.9900  286.7300  354.1000 O.2       2 ALA2        0.0000 
     25 O         144.2000  285.3200  354.5700 O.2       2 ALA2        0.0000 
     26 O         145.1200  288.1100  352.9600 O.2       2 ALA2        0.0000 
     27 O         145.3400  286.7100  353.4400 O.2       2 ALA2        0.0000 
     28 O         144.4000  288.6500  354.8800 O.2       2 ALA2        0.0000 
     29 O         144.6100  287.2500  355.3600 O.2       2 ALA2        0.0000 
     30 O         146.8800  290.0200  353.0800 O.2       2 ALA2        0.0000 
     31 O         146.1600  290.5600  355.0000 O.2       2 ALA2        0.0000 
     32 OD1       142.5000  296.5600  350.7500 O.co2     3 ASP3        0.0000 
     33 OD1       143.1200  297.0900  352.0100 O.co2     3 ASP3        0.0000 
     34 OD1       143.3300  295.6800  352.4900 O.co2     3 ASP3        0.0000 
     35 OD1       143.7400  297.6100  353.2700 O.co2     3 ASP3        0.0000 
     36 NZ        142.0900  294.6400  349.9700 N.4       4 LYS4        0.0000 
     37 NZ        142.3000  293.2300  350.4400 N.4       4 LYS4        0.0000 
     38 NZ        142.7100  295.1600  351.2300 N.4       4 LYS4        0.0000 
     39 NZ        142.9200  293.7500  351.7000 N.4       4 LYS4        0.0000 
     40 NZ        144.2700  293.7300  351.0500 N.4       4 LYS4        0.0000 
     41 NZ        144.4800  292.3300  351.5200 N.4       4 LYS4        0.0000 
     42 NZ        141.7700  297.1100  352.6700 N.4       4 LYS4        0.0000 
     43 NZ        145.1100  292.8500  352.7800 N.4       4 LYS4        0.0000 
     44 NZ        146.6700  291.4300  352.6000 N.4       4 LYS4        0.0000 
     45 NZ        142.4000  297.6300  353.9300 N.4       4 LYS4        0.0000 
     46 CA        137.2100  295.5800  350.2000 C.3       5 GLY6        0.0000 
     47 CA        137.4200  294.1700  350.6800 C.3       5 GLY6        0.0000 
     48 CA        137.6300  292.7600  351.1600 C.3       5 GLY6        0.0000 
     49 CA        138.5500  295.5600  349.5500 C.3       5 GLY6        0.0000 
     50 CA        139.9000  295.5400  348.8900 C.3       5 GLY6        0.0000 
     51 CA        138.9600  297.4900  350.3300 C.3       5 GLY6        0.0000 
     52 CA        139.1800  296.0800  350.8100 C.3       5 GLY6        0.0000 
     53 CA        143.5800  284.8000  353.3100 C.3       5 GLY6        0.0000 
     54 CA        144.9300  284.7800  352.6500 C.3       5 GLY6        0.0000 
     55 CA        142.0000  290.9600  353.3200 C.3       5 GLY6        0.0000 
     56 CA        144.7000  290.9200  352.0000 C.3       5 GLY6        0.0000 
     57 CA        143.5500  294.2800  352.9600 C.3       5 GLY6        0.0000 
     58 CA        143.7600  292.8700  353.4400 C.3       5 GLY6        0.0000 
     59 CA        144.8300  285.8400  355.8300 C.3       5 GLY6        0.0000 
     60 CA        145.3200  291.4500  353.2600 C.3       5 GLY6        0.0000 
     61 CA        145.5300  290.0400  353.7400 C.3       5 GLY6        0.0000 
     62 CA        145.7500  288.6300  354.2200 C.3       5 GLY6        0.0000 
     63 CA        145.9600  287.2300  354.7000 C.3       5 GLY6        0.0000 
     64 CA        142.6100  296.2300  354.4000 C.3       5 GLY6        0.0000 
     65 CA        142.8200  294.8200  354.8800 C.3       5 GLY6        0.0000 
     66 CA        143.0400  293.4100  355.3600 C.3       5 GLY6        0.0000 
     67 CA        143.9600  296.2100  353.7500 C.3       5 GLY6        0.0000 
     68 CA        144.1700  294.8000  354.2200 C.3       5 GLY6        0.0000 
     69 CA        144.6000  291.9900  355.1800 C.3       5 GLY6        0.0000 
     70 CA        145.7300  293.3700  354.0400 C.3       5 GLY6        0.0000 
     71 CA        145.9400  291.9700  354.5200 C.3       5 GLY6        0.0000 
     72 DU        138.7700  294.1500  350.0200 H         6 CUB7        0.0000 
     73 DU        140.1100  294.1300  349.3700 H         6 CUB7        0.0000 
     74 DU        138.0400  294.6900  351.9400 H         6 CUB7        0.0000 
     75 DU        138.2600  293.2900  352.4200 H         6 CUB7        0.0000 
     76 DU        139.3900  294.6700  351.2800 H         6 CUB7        0.0000 
     77 DU        139.8200  291.8600  352.2400 H         6 CUB7        0.0000 
     78 DU        140.5200  296.0600  350.1500 H         6 CUB7        0.0000 
     79 DU        140.7400  294.6600  350.6300 H         6 CUB7        0.0000 
     80 DU        140.9500  293.2500  351.1000 H         6 CUB7        0.0000 
     81 DU        139.8000  296.6000  352.0700 H         6 CUB7        0.0000 
     82 DU        140.4400  292.3900  353.5000 H         6 CUB7        0.0000 
     83 DU        141.1500  296.5800  351.4100 H         6 CUB7        0.0000 
     84 DU        141.7900  292.3700  352.8400 H         6 CUB7        0.0000 
     85 DU        143.1400  292.3500  352.1800 H         6 CUB7        0.0000 
     86 DU        140.8500  294.3200  354.2800 H         6 CUB7        0.0000 
     87 DU        141.9900  295.7000  353.1400 H         6 CUB7        0.0000 
     88 DU        142.2000  294.3000  353.6200 H         6 CUB7        0.0000 
@<TRIPOS>BOND
@<TRIPOS>SUBSTRUCTURE
     1 SER1        1 GROUP   
     2 ALA2        7 GROUP   
     3 ASP3       32 GROUP   
     4 LYS4       36 GROUP   
     5 GLY6       46 GROUP   
     6 CUB7       72 GROUP   
@<TRIPOS>SET

