#    Name: 6i0m_2_GDP
#    Modification time : Fri May 22 19:42:22 2020

@<TRIPOS>MOLECULE
6i0m_2_GDP
   39    41     1     0     1
SMALL
NO_CHARGES


@<TRIPOS>ATOM
      1 PB        184.7580  301.6660  371.8570 P.3       1 GDP602      0.0000 
      2 O1B       184.3930  301.8040  370.4060 O.co2     1 GDP602      0.0000 
      3 O2B       184.7020  300.2560  372.3750 O.co2     1 GDP602      0.0000 
      4 O3B       184.1280  302.6860  372.7630 O.co2     1 GDP602      0.0000 
      5 O3A       186.3210  301.9840  371.8830 O.3       1 GDP602      0.0000 
      6 PA        186.8490  303.4520  372.2150 P.3       1 GDP602      0.0000 
      7 O1A       185.7700  304.4680  371.9710 O.co2     1 GDP602      0.0000 
      8 O2A       187.5350  303.3830  373.5460 O.co2     1 GDP602      0.0000 
      9 O5'       187.9770  303.6260  371.0970 O.3       1 GDP602      0.0000 
     10 C5'       188.0070  304.7870  370.2780 C.3       1 GDP602      0.0000 
     11 C4'       189.4410  304.9680  369.8340 C.3       1 GDP602      0.0000 
     12 O4'       190.1880  305.4190  370.9560 O.3       1 GDP602      0.0000 
     13 C3'       190.0230  303.6430  369.3770 C.3       1 GDP602      0.0000 
     14 O3'       190.5820  303.7820  368.0680 O.3       1 GDP602      0.0000 
     15 C2'       191.0670  303.2760  370.4140 C.3       1 GDP602      0.0000 
     16 O2'       192.3000  302.8420  369.8320 O.3       1 GDP602      0.0000 
     17 C1'       191.2750  304.5410  371.2310 C.3       1 GDP602      0.0000 
     18 N9        191.3490  304.2560  372.6850 N.pl3     1 GDP602      0.0000 
     19 C8        190.6880  303.2890  373.3480 C.2       1 GDP602      0.0000 
     20 N7        191.0020  303.3150  374.6670 N.2       1 GDP602      0.0000 
     21 C5        191.8810  304.3120  374.8610 C.2       1 GDP602      0.0000 
     22 C6        192.6160  304.8840  376.0130 C.2       1 GDP602      0.0000 
     23 O6        192.4810  304.4190  377.1640 O.2       1 GDP602      0.0000 
     24 N1        193.4310  305.9170  375.7890 N.am      1 GDP602      0.0000 
     25 C2        193.5960  306.4380  374.5630 C.2       1 GDP602      0.0000 
     26 N2        194.4430  307.4840  374.4260 N.pl3     1 GDP602      0.0000 
     27 N3        192.9590  305.9680  373.4630 N.2       1 GDP602      0.0000 
     28 C4        192.1070  304.9250  373.5500 C.2       1 GDP602      0.0000 
     29 H5'       187.6720  305.6590  370.8430 H         1 GDP602      0.0000 
     30 H5''      187.3550  304.6580  369.4120 H         1 GDP602      0.0000 
     31 H4'       189.4880  305.6980  369.0130 H         1 GDP602      0.0000 
     32 H3'       189.2300  302.8820  369.3760 H         1 GDP602      0.0000 
     33 H2'       190.6590  302.4820  371.0530 H         1 GDP602      0.0000 
     34 HO2'      192.1380  302.0730  369.2690 H         1 GDP602      0.0000 
     35 H1'       192.2140  305.0110  370.9050 H         1 GDP602      0.0000 
     36 H8        190.0010  302.5880  372.8910 H         1 GDP602      0.0000 
     37 HN1       193.9530  306.3300  376.5870 H         1 GDP602      0.0000 
     38 HN21      194.9280  307.8500  375.2330 H         1 GDP602      0.0000 
     39 HN22      194.5900  307.8990  373.5170 H         1 GDP602      0.0000 
@<TRIPOS>BOND
     1    1    2 ar   
     2    1    3 ar   
     3    1    4 ar   
     4    1    5 1    
     5    5    6 1    
     6    6    7 ar   
     7    6    8 ar   
     8    6    9 1    
     9    9   10 1    
    10   10   11 1    
    11   10   29 1    
    12   10   30 1    
    13   11   12 1    
    14   11   13 1    
    15   11   31 1    
    16   12   17 1    
    17   13   14 1    
    18   13   15 1    
    19   13   32 1    
    20   15   16 1    
    21   15   17 1    
    22   15   33 1    
    23   16   34 1    
    24   17   18 1    
    25   17   35 1    
    26   18   19 1    
    27   18   28 1    
    28   19   20 2    
    29   19   36 1    
    30   20   21 1    
    31   21   22 1    
    32   21   28 2    
    33   22   23 2    
    34   22   24 am   
    35   24   25 1    
    36   24   37 1    
    37   25   26 1    
    38   25   27 2    
    39   26   38 1    
    40   26   39 1    
    41   27   28 1    
@<TRIPOS>SUBSTRUCTURE
     1 GDP602      1 GROUP   
@<TRIPOS>SET
ATOM$ORANGE STATIC     ATOMS   COLORGROUP SYSTEM 
20 10 10 11 11 13 13 15 15 17 17 19 19 21 21 22 22 25 \
25 28 28 

