#    Name: 6i0m_3_GDP
#    Modification time : Fri May 22 19:42:26 2020

@<TRIPOS>MOLECULE
6i0m_3_GDP
   39    41     1     0     1
SMALL
NO_CHARGES


@<TRIPOS>ATOM
      1 PB        183.6710  295.8600  373.4110 P.3       1 GDP603      0.0000 
      2 O1B       184.3240  294.7820  372.6020 O.co2     1 GDP603      0.0000 
      3 O2B       183.1370  297.0050  372.6060 O.co2     1 GDP603      0.0000 
      4 O3B       184.4170  296.2700  374.6440 O.co2     1 GDP603      0.0000 
      5 O3A       182.3590  295.1530  373.9800 O.3       1 GDP603      0.0000 
      6 PA        181.5300  295.7680  375.2020 P.3       1 GDP603      0.0000 
      7 O1A       180.0900  295.4260  374.9830 O.co2     1 GDP603      0.0000 
      8 O2A       181.9250  297.2000  375.3680 O.co2     1 GDP603      0.0000 
      9 O5'       182.0640  294.9300  376.4540 O.3       1 GDP603      0.0000 
     10 C5'       181.6450  293.5830  376.6190 C.3       1 GDP603      0.0000 
     11 C4'       181.3020  293.2840  378.0680 C.3       1 GDP603      0.0000 
     12 O4'       181.7940  292.0020  378.4350 O.3       1 GDP603      0.0000 
     13 C3'       181.9200  294.2880  379.0090 C.3       1 GDP603      0.0000 
     14 O3'       180.8590  294.9310  379.7120 O.3       1 GDP603      0.0000 
     15 C2'       182.8330  293.5030  379.9250 C.3       1 GDP603      0.0000 
     16 O2'       182.6330  293.8150  381.3050 O.3       1 GDP603      0.0000 
     17 C1'       182.5010  292.0520  379.6690 C.3       1 GDP603      0.0000 
     18 N9        183.7240  291.2430  379.5220 N.pl3     1 GDP603      0.0000 
     19 C8        183.9830  290.0980  380.1670 C.2       1 GDP603      0.0000 
     20 N7        185.1950  289.6190  379.8150 N.2       1 GDP603      0.0000 
     21 C5        185.7250  290.4740  378.9330 C.2       1 GDP603      0.0000 
     22 C6        186.9770  290.5640  378.1690 C.2       1 GDP603      0.0000 
     23 O6        187.8460  289.6830  378.2800 O.2       1 GDP603      0.0000 
     24 N1        187.1480  291.6080  377.3620 N.am      1 GDP603      0.0000 
     25 C2        186.2190  292.5610  377.2350 C.2       1 GDP603      0.0000 
     26 N2        186.4670  293.5870  376.3990 N.pl3     1 GDP603      0.0000 
     27 N3        185.0480  292.5460  377.9010 N.2       1 GDP603      0.0000 
     28 C4        184.7570  291.5490  378.7530 C.2       1 GDP603      0.0000 
     29 H5'       180.7710  293.3950  375.9930 H         1 GDP603      0.0000 
     30 H5''      182.4420  292.9120  376.2900 H         1 GDP603      0.0000 
     31 H4'       180.2100  293.3140  378.1870 H         1 GDP603      0.0000 
     32 H3'       182.5090  295.0180  378.4360 H         1 GDP603      0.0000 
     33 H2'       183.8780  293.6890  379.6390 H         1 GDP603      0.0000 
     34 HO2'      182.7900  294.7590  381.4480 H         1 GDP603      0.0000 
     35 H1'       181.8770  291.6680  380.4880 H         1 GDP603      0.0000 
     36 H8        183.3110  289.6200  380.8680 H         1 GDP603      0.0000 
     37 HN1       188.0300  291.6860  376.8160 H         1 GDP603      0.0000 
     38 HN21      187.3360  293.6230  375.8860 H         1 GDP603      0.0000 
     39 HN22      185.7820  294.3210  376.2830 H         1 GDP603      0.0000 
@<TRIPOS>BOND
     1   11   31 1    
     2   12   17 1    
     3   13   14 1    
     4   13   15 1    
     5   13   32 1    
     6   15   16 1    
     7   15   17 1    
     8   15   33 1    
     9   16   34 1    
    10   17   18 1    
    11   17   35 1    
    12   18   19 1    
    13   18   28 1    
    14   19   20 2    
    15   19   36 1    
    16   20   21 1    
    17   21   22 1    
    18   21   28 2    
    19   22   23 2    
    20   22   24 am   
    21   24   25 1    
    22   24   37 1    
    23   25   26 1    
    24   25   27 2    
    25   26   38 1    
    26   26   39 1    
    27   27   28 1    
    28    1    2 ar   
    29    1    3 ar   
    30    1    4 ar   
    31    1    5 1    
    32    5    6 1    
    33    6    7 ar   
    34    6    8 ar   
    35    6    9 1    
    36    9   10 1    
    37   10   11 1    
    38   10   29 1    
    39   10   30 1    
    40   11   12 1    
    41   11   13 1    
@<TRIPOS>SUBSTRUCTURE
     1 GDP603      1 GROUP   
@<TRIPOS>SET
ATOM$ORANGE STATIC     ATOMS   COLORGROUP SYSTEM 
20 10 10 11 11 13 13 15 15 17 17 19 19 21 21 22 22 25 \
25 28 28 

