#    Name: 6i0m_5_GDP
#    Modification time : Fri May 22 19:42:33 2020

@<TRIPOS>MOLECULE
6i0m_5_GDP
   39    41     1     0     1
SMALL
NO_CHARGES


@<TRIPOS>ATOM
      1 PB        179.9530  308.3790  370.6470 P.3       1 GDP602      0.0000 
      2 O1B       179.8460  307.5920  369.3710 O.co2     1 GDP602      0.0000 
      3 O2B       180.8720  307.7710  371.6700 O.co2     1 GDP602      0.0000 
      4 O3B       178.6420  308.8630  371.2090 O.co2     1 GDP602      0.0000 
      5 O3A       180.7120  309.7190  370.2050 O.3       1 GDP602      0.0000 
      6 PA        182.2500  309.6630  369.7580 P.3       1 GDP602      0.0000 
      7 O1A       182.3390  310.1550  368.3410 O.co2     1 GDP602      0.0000 
      8 O2A       182.8280  308.3260  370.1290 O.co2     1 GDP602      0.0000 
      9 O5'       182.8950  310.7800  370.7070 O.3       1 GDP602      0.0000 
     10 C5'       183.9860  310.4680  371.5650 C.3       1 GDP602      0.0000 
     11 C4'       184.4480  311.7650  372.2010 C.3       1 GDP602      0.0000 
     12 O4'       185.0190  312.5830  371.1880 O.3       1 GDP602      0.0000 
     13 C3'       183.2760  312.5220  372.7940 C.3       1 GDP602      0.0000 
     14 O3'       183.6350  313.0150  374.0870 O.3       1 GDP602      0.0000 
     15 C2'       182.9850  313.6490  371.8220 C.3       1 GDP602      0.0000 
     16 O2'       182.6780  314.8760  372.4890 O.3       1 GDP602      0.0000 
     17 C1'       184.2500  313.7660  370.9830 C.3       1 GDP602      0.0000 
     18 N9        183.9870  313.9070  369.5290 N.pl3     1 GDP602      0.0000 
     19 C8        182.8260  313.6910  368.8830 C.2       1 GDP602      0.0000 
     20 N7        182.9650  313.9240  367.5530 N.2       1 GDP602      0.0000 
     21 C5        184.2350  314.2960  367.3360 C.2       1 GDP602      0.0000 
     22 C6        185.0470  314.6880  366.1650 C.2       1 GDP602      0.0000 
     23 O6        184.5510  314.7220  365.0210 O.2       1 GDP602      0.0000 
     24 N1        186.3300  315.0030  366.3660 N.am      1 GDP602      0.0000 
     25 C2        186.8860  314.9720  367.5890 C.2       1 GDP602      0.0000 
     26 N2        188.1900  315.3030  367.7110 N.pl3     1 GDP602      0.0000 
     27 N3        186.2040  314.6240  368.7050 N.2       1 GDP602      0.0000 
     28 C4        184.9000  314.2870  368.6400 C.2       1 GDP602      0.0000 
     29 H5'       184.7990  310.0180  370.9930 H         1 GDP602      0.0000 
     30 H5''      183.6690  309.7630  372.3360 H         1 GDP602      0.0000 
     31 H4'       185.1840  311.5490  372.9880 H         1 GDP602      0.0000 
     32 H3'       182.4030  311.8560  372.8590 H         1 GDP602      0.0000 
     33 H2'       182.1400  313.3460  371.1900 H         1 GDP602      0.0000 
     34 HO2'      181.9050  314.7500  373.0560 H         1 GDP602      0.0000 
     35 H1'       184.8190  314.6370  371.3370 H         1 GDP602      0.0000 
     36 H8        181.9060  313.3740  369.3590 H         1 GDP602      0.0000 
     37 HN1       186.9160  315.2790  365.5520 H         1 GDP602      0.0000 
     38 HN21      188.7230  315.5670  366.8950 H         1 GDP602      0.0000 
     39 HN22      188.6310  315.2890  368.6190 H         1 GDP602      0.0000 
@<TRIPOS>BOND
     1    1    2 ar   
     2    1    3 ar   
     3    1    4 ar   
     4    1    5 1    
     5    5    6 1    
     6    6    7 ar   
     7    6    8 ar   
     8    6    9 1    
     9    9   10 1    
    10   10   11 1    
    11   10   29 1    
    12   10   30 1    
    13   11   12 1    
    14   11   13 1    
    15   11   31 1    
    16   12   17 1    
    17   13   14 1    
    18   13   15 1    
    19   13   32 1    
    20   15   16 1    
    21   15   17 1    
    22   15   33 1    
    23   16   34 1    
    24   17   18 1    
    25   17   35 1    
    26   18   19 1    
    27   18   28 1    
    28   19   20 2    
    29   19   36 1    
    30   20   21 1    
    31   21   22 1    
    32   21   28 2    
    33   22   23 2    
    34   22   24 am   
    35   24   25 1    
    36   24   37 1    
    37   25   26 1    
    38   25   27 2    
    39   26   38 1    
    40   26   39 1    
    41   27   28 1    
@<TRIPOS>SUBSTRUCTURE
     1 GDP602      1 GROUP   
@<TRIPOS>SET
ATOM$ORANGE STATIC     ATOMS   COLORGROUP SYSTEM 
20 10 10 11 11 13 13 15 15 17 17 19 19 21 21 22 22 25 \
25 28 28 

