#    Name: 6fhl_1_ADP
#    Modification time : Fri May 22 19:28:33 2020

@<TRIPOS>MOLECULE
6fhl_1_ADP
   27    29     1     0     1
SMALL
NO_CHARGES


@<TRIPOS>ATOM
      1 PB        125.0270  137.5530  193.4900 P.3       1 ADP401      0.0000 
      2 O1B       124.0510  138.1610  192.5250 O.co2     1 ADP401      0.0000 
      3 O2B       124.3210  137.2560  194.8370 O.co2     1 ADP401      0.0000 
      4 O3B       126.3640  138.1780  193.5860 O.co2     1 ADP401      0.0000 
      5 PA        124.6860  134.8870  193.2960 P.3       1 ADP401      0.0000 
      6 O1A       123.2080  135.0610  193.0710 O.co2     1 ADP401      0.0000 
      7 O2A       125.1050  134.4650  194.6670 O.co2     1 ADP401      0.0000 
      8 O3A       125.4290  136.1810  192.9400 O.3       1 ADP401      0.0000 
      9 O5'       125.2850  133.8500  192.2920 O.3       1 ADP401      0.0000 
     10 C5'       126.0230  134.3430  191.1970 C.3       1 ADP401      0.0000 
     11 C4'       127.4500  133.8140  191.2480 C.3       1 ADP401      0.0000 
     12 O4'       127.4550  132.4430  191.6050 O.3       1 ADP401      0.0000 
     13 C3'       128.1230  133.8650  189.9030 C.3       1 ADP401      0.0000 
     14 O3'       129.5400  133.9730  189.9640 O.3       1 ADP401      0.0000 
     15 C2'       127.7990  132.5480  189.3710 C.3       1 ADP401      0.0000 
     16 O2'       128.7370  132.2020  188.4050 O.3       1 ADP401      0.0000 
     17 C1'       127.9510  131.6610  190.5380 C.3       1 ADP401      0.0000 
     18 N9        127.1480  130.4720  190.3150 N.pl3     1 ADP401      0.0000 
     19 C8        125.8370  130.4290  190.1170 C.2       1 ADP401      0.0000 
     20 N7        125.4060  129.1620  189.9300 N.2       1 ADP401      0.0000 
     21 C5        126.4900  128.3860  190.0120 C.ar      1 ADP401      0.0000 
     22 C6        126.7820  126.9540  189.9000 C.ar      1 ADP401      0.0000 
     23 N6        125.8320  126.0410  189.6570 N.pl3     1 ADP401      0.0000 
     24 N1        128.0470  126.5740  190.0520 N.ar      1 ADP401      0.0000 
     25 C2        129.0200  127.4540  190.2920 C.ar      1 ADP401      0.0000 
     26 N3        128.8590  128.7670  190.4050 N.ar      1 ADP401      0.0000 
     27 C4        127.6310  129.2700  190.2710 C.ar      1 ADP401      0.0000 
@<TRIPOS>BOND
     1    1    2 ar   
     2    1    3 ar   
     3    1    4 ar   
     4    1    8 1    
     5    5    6 ar   
     6    5    7 ar   
     7    5    8 1    
     8    5    9 1    
     9    9   10 1    
    10   10   11 1    
    11   11   12 1    
    12   11   13 1    
    13   12   17 1    
    14   13   14 1    
    15   13   15 1    
    16   15   16 1    
    17   15   17 1    
    18   17   18 1    
    19   18   19 1    
    20   18   27 1    
    21   19   20 2    
    22   20   21 1    
    23   21   22 ar   
    24   21   27 ar   
    25   22   23 1    
    26   22   24 ar   
    27   24   25 ar   
    28   25   26 ar   
    29   26   27 ar   
@<TRIPOS>SUBSTRUCTURE
     1 ADP401      1 GROUP   
@<TRIPOS>SET
ATOM$ORANGE STATIC     ATOMS   COLORGROUP SYSTEM 
20 10 10 11 11 13 13 15 15 17 17 19 19 21 21 22 22 25 \
25 27 27 

