#    Name: 6fhl_4_ADP
#    Modification time : Fri May 22 19:28:47 2020

@<TRIPOS>MOLECULE
6fhl_4_ADP
   27    29     1     0     1
SMALL
NO_CHARGES


@<TRIPOS>ATOM
      1 PB        156.2960  133.3230  112.9170 P.3       1 ADP401      0.0000 
      2 O1B       156.6520  132.2240  111.9580 O.co2     1 ADP401      0.0000 
      3 O2B       157.0290  133.1040  114.2650 O.co2     1 ADP401      0.0000 
      4 O3B       154.8700  133.7040  113.0120 O.co2     1 ADP401      0.0000 
      5 PA        158.2710  135.1450  112.7110 P.3       1 ADP401      0.0000 
      6 O1A       159.2900  134.0590  112.4910 O.co2     1 ADP401      0.0000 
      7 O2A       158.2220  135.7450  114.0790 O.co2     1 ADP401      0.0000 
      8 O3A       156.8690  134.6290  112.3580 O.3       1 ADP401      0.0000 
      9 O5'       158.4770  136.3180  111.7000 O.3       1 ADP401      0.0000 
     10 C5'       157.5940  136.4080  110.6050 C.3       1 ADP401      0.0000 
     11 C4'       156.8410  137.7310  110.6490 C.3       1 ADP401      0.0000 
     12 O4'       157.7190  138.7860  110.9990 O.3       1 ADP401      0.0000 
     13 C3'       156.2910  138.1170  109.3020 C.3       1 ADP401      0.0000 
     14 O3'       155.1360  138.9450  109.3600 O.3       1 ADP401      0.0000 
     15 C2'       157.3860  138.9140  108.7650 C.3       1 ADP401      0.0000 
     16 O2'       156.8880  139.7770  107.7940 O.3       1 ADP401      0.0000 
     17 C1'       157.8400  139.6980  109.9260 C.3       1 ADP401      0.0000 
     18 N9        159.2200  140.0910  109.7000 N.pl3     1 ADP401      0.0000 
     19 C8        160.2510  139.2800  109.5060 C.2       1 ADP401      0.0000 
     20 N7        161.3970  139.9730  109.3140 N.2       1 ADP401      0.0000 
     21 C5        161.0640  141.2660  109.3890 C.ar      1 ADP401      0.0000 
     22 C6        161.7610  142.5480  109.2690 C.ar      1 ADP401      0.0000 
     23 N6        163.0750  142.6360  109.0240 N.pl3     1 ADP401      0.0000 
     24 N1        161.0360  143.6540  109.4150 N.ar      1 ADP401      0.0000 
     25 C2        159.7260  143.6070  109.6570 C.ar      1 ADP401      0.0000 
     26 N3        159.0050  142.4980  109.7770 N.ar      1 ADP401      0.0000 
     27 C4        159.6220  141.3230  109.6480 C.ar      1 ADP401      0.0000 
@<TRIPOS>BOND
     1    1    2 ar   
     2    1    3 ar   
     3    1    4 ar   
     4    1    8 1    
     5    5    6 ar   
     6    5    7 ar   
     7    5    8 1    
     8    5    9 1    
     9    9   10 1    
    10   10   11 1    
    11   11   12 1    
    12   11   13 1    
    13   12   17 1    
    14   13   14 1    
    15   13   15 1    
    16   15   16 1    
    17   15   17 1    
    18   17   18 1    
    19   18   19 1    
    20   18   27 1    
    21   19   20 2    
    22   20   21 1    
    23   21   22 ar   
    24   21   27 ar   
    25   22   23 1    
    26   22   24 ar   
    27   24   25 ar   
    28   25   26 ar   
    29   26   27 ar   
@<TRIPOS>SUBSTRUCTURE
     1 ADP401      1 GROUP   
@<TRIPOS>SET
ATOM$ORANGE STATIC     ATOMS   COLORGROUP SYSTEM 
20 10 10 11 11 13 13 15 15 17 17 19 19 21 21 22 22 25 \
25 27 27 

