#    Name: 6fhl_5_ADP
#    Modification time : Fri May 22 19:28:54 2020

@<TRIPOS>MOLECULE
6fhl_5_ADP
   27    29     1     0     1
SMALL
NO_CHARGES


@<TRIPOS>ATOM
      1 PB        128.7120  151.8150   85.9760 P.3       1 ADP401      0.0000 
      2 O1B       128.6200  152.9610   85.0100 O.co2     1 ADP401      0.0000 
      3 O2B       128.0490  152.2060   87.3210 O.co2     1 ADP401      0.0000 
      4 O3B       130.0120  151.1170   86.0770 O.co2     1 ADP401      0.0000 
      5 PA        126.3700  150.4970   85.7770 P.3       1 ADP401      0.0000 
      6 O1A       125.6280  151.7870   85.5490 O.co2     1 ADP401      0.0000 
      7 O2A       126.2790  149.9100   87.1490 O.co2     1 ADP401      0.0000 
      8 O3A       127.8530  150.6730   85.4240 O.3       1 ADP401      0.0000 
      9 O5'       125.8990  149.3970   84.7730 O.3       1 ADP401      0.0000 
     10 C5'       126.7390  149.0980   83.6800 C.3       1 ADP401      0.0000 
     11 C4'       127.1660  147.6380   83.7340 C.3       1 ADP401      0.0000 
     12 O4'       126.0680  146.8160   84.0880 O.3       1 ADP401      0.0000 
     13 C3'       127.6120  147.1270   82.3890 C.3       1 ADP401      0.0000 
     14 O3'       128.5450  146.0550   82.4550 O.3       1 ADP401      0.0000 
     15 C2'       126.3640  146.6010   81.8550 C.3       1 ADP401      0.0000 
     16 O2'       126.6490  145.6410   80.8900 O.3       1 ADP401      0.0000 
     17 C1'       125.7400  145.9500   83.0200 C.3       1 ADP401      0.0000 
     18 N9        124.3070  145.8840   82.7940 N.pl3     1 ADP401      0.0000 
     19 C8        123.4910  146.9100   82.5930 C.2       1 ADP401      0.0000 
     20 N7        122.2170  146.4990   82.4030 N.2       1 ADP401      0.0000 
     21 C5        122.2420  145.1650   82.4860 C.ar      1 ADP401      0.0000 
     22 C6        121.2680  144.0770   82.3720 C.ar      1 ADP401      0.0000 
     23 N6        119.9690  144.2940   82.1260 N.pl3     1 ADP401      0.0000 
     24 N1        121.7180  142.8350   82.5260 N.ar      1 ADP401      0.0000 
     25 C2        123.0040  142.5800   82.7700 C.ar      1 ADP401      0.0000 
     26 N3        123.9610  143.4940   82.8850 N.ar      1 ADP401      0.0000 
     27 C4        123.6310  144.7780   82.7490 C.ar      1 ADP401      0.0000 
@<TRIPOS>BOND
     1    1    2 ar   
     2    1    3 ar   
     3    1    4 ar   
     4    1    8 1    
     5    5    6 ar   
     6    5    7 ar   
     7    5    8 1    
     8    5    9 1    
     9    9   10 1    
    10   10   11 1    
    11   11   12 1    
    12   11   13 1    
    13   12   17 1    
    14   13   14 1    
    15   13   15 1    
    16   15   16 1    
    17   15   17 1    
    18   17   18 1    
    19   18   19 1    
    20   18   27 1    
    21   19   20 2    
    22   20   21 1    
    23   21   22 ar   
    24   21   27 ar   
    25   22   23 1    
    26   22   24 ar   
    27   24   25 ar   
    28   25   26 ar   
    29   26   27 ar   
@<TRIPOS>SUBSTRUCTURE
     1 ADP401      1 GROUP   
@<TRIPOS>SET
ATOM$ORANGE STATIC     ATOMS   COLORGROUP SYSTEM 
20 10 10 11 11 13 13 15 15 17 17 19 19 21 21 22 22 25 \
25 27 27 

