#    Name: 6fhl_3_ADP
#    Modification time : Fri May 22 19:28:40 2020

@<TRIPOS>MOLECULE
6fhl_3_ADP
   27    29     1     0     1
SMALL
NO_CHARGES


@<TRIPOS>ATOM
      1 PB        125.1410  145.1130  139.7310 P.3       1 ADP401      0.0000 
      2 O1B       124.5430  146.0940  138.7650 O.co2     1 ADP401      0.0000 
      3 O2B       124.3740  145.1650  141.0770 O.co2     1 ADP401      0.0000 
      4 O3B       126.6160  145.0720  139.8290 O.co2     1 ADP401      0.0000 
      5 PA        123.6390  142.8840  139.5350 P.3       1 ADP401      0.0000 
      6 O1A       122.3970  143.7030  139.3080 O.co2     1 ADP401      0.0000 
      7 O2A       123.8230  142.3190  140.9070 O.co2     1 ADP401      0.0000 
      8 O3A       124.8850  143.7070  139.1800 O.3       1 ADP401      0.0000 
      9 O5'       123.7110  141.6890  138.5310 O.3       1 ADP401      0.0000 
     10 C5'       124.5940  141.7980  137.4370 C.3       1 ADP401      0.0000 
     11 C4'       125.6310  140.6850  137.4900 C.3       1 ADP401      0.0000 
     12 O4'       125.0200  139.4580  137.8460 O.3       1 ADP401      0.0000 
     13 C3'       126.2570  140.4280  136.1450 C.3       1 ADP401      0.0000 
     14 O3'       127.5720  139.8890  136.2090 O.3       1 ADP401      0.0000 
     15 C2'       125.3770  139.3970  135.6120 C.3       1 ADP401      0.0000 
     16 O2'       126.0620  138.6660  134.6470 O.3       1 ADP401      0.0000 
     17 C1'       125.1140  138.5360  136.7790 C.3       1 ADP401      0.0000 
     18 N9        123.8620  137.8340  136.5540 N.pl3     1 ADP401      0.0000 
     19 C8        122.6720  138.3840  136.3550 C.2       1 ADP401      0.0000 
     20 N7        121.7180  137.4450  136.1670 N.2       1 ADP401      0.0000 
     21 C5        122.3390  136.2640  136.2490 C.ar      1 ADP401      0.0000 
     22 C6        121.9570  134.8550  136.1370 C.ar      1 ADP401      0.0000 
     23 N6        120.6990  134.4650  135.8920 N.pl3     1 ADP401      0.0000 
     24 N1        122.9170  133.9470  136.2900 N.ar      1 ADP401      0.0000 
     25 C2        124.1810  134.2960  136.5330 C.ar      1 ADP401      0.0000 
     26 N3        124.6260  135.5430  136.6460 N.ar      1 ADP401      0.0000 
     27 C4        123.7550  136.5420  136.5100 C.ar      1 ADP401      0.0000 
@<TRIPOS>BOND
     1    1    2 ar   
     2    1    3 ar   
     3    1    4 ar   
     4    1    8 1    
     5    5    6 ar   
     6    5    7 ar   
     7    5    8 1    
     8    5    9 1    
     9    9   10 1    
    10   10   11 1    
    11   11   12 1    
    12   11   13 1    
    13   12   17 1    
    14   13   14 1    
    15   13   15 1    
    16   15   16 1    
    17   15   17 1    
    18   17   18 1    
    19   18   19 1    
    20   18   27 1    
    21   19   20 2    
    22   20   21 1    
    23   21   22 ar   
    24   21   27 ar   
    25   22   23 1    
    26   22   24 ar   
    27   24   25 ar   
    28   25   26 ar   
    29   26   27 ar   
@<TRIPOS>SUBSTRUCTURE
     1 ADP401      1 GROUP   
@<TRIPOS>SET
ATOM$ORANGE STATIC     ATOMS   COLORGROUP SYSTEM 
20 10 10 11 11 13 13 15 15 17 17 19 19 21 21 22 22 25 \
25 27 27 

