#    Name: 6p8x_4_GDP_CAVITY_N1_ALL
#    Modification time : Fri May 22 19:28:55 2020

@<TRIPOS>MOLECULE
6p8x_4_GDP_CAVITY_N1_ALL
   83     0     6     0     0
SMALL
NO_CHARGES


@<TRIPOS>ATOM
      1 N          -8.1700   99.9700  -25.6400 N.am      1 ALA2        0.0000 
      2 O          -7.0700  100.4800  -26.5200 O.2       1 ALA2        0.0000 
      3 O          -6.6700  101.4500  -25.4400 O.2       1 ALA2        0.0000 
      4 O          -5.5700  101.9700  -26.3200 O.2       1 ALA2        0.0000 
      5 N          -9.2400  103.9500  -24.6400 N.am      1 ALA2        0.0000 
      6 N          -8.1400  104.4600  -25.5200 N.am      1 ALA2        0.0000 
      7 O          -4.0700  103.4600  -26.1300 O.2       1 ALA2        0.0000 
      8 N          -8.8500  104.9100  -23.5700 N.am      1 ALA2        0.0000 
      9 N          -7.7500  105.4300  -24.4500 N.am      1 ALA2        0.0000 
     10 N          -4.9300  102.3700  -22.7300 N.am      1 ALA2        0.0000 
     11 N          -6.6400  105.9500  -25.3200 N.am      1 ALA2        0.0000 
     12 N          -3.8300  102.8900  -23.6000 N.am      1 ALA2        0.0000 
     13 N          -8.4500  105.8800  -22.4900 N.am      1 ALA2        0.0000 
     14 N          -7.5100  104.8600  -21.9200 N.am      1 ALA2        0.0000 
     15 N          -7.3500  106.4000  -23.3700 N.am      1 ALA2        0.0000 
     16 N          -6.4100  105.3800  -22.8000 N.am      1 ALA2        0.0000 
     17 O          -6.2500  106.9200  -24.2500 O.2       1 ALA2        0.0000 
     18 N          -5.3100  105.9000  -23.6800 N.am      1 ALA2        0.0000 
     19 N          -3.4300  103.8600  -22.5300 N.am      1 ALA2        0.0000 
     20 N          -5.1500  107.4400  -25.1300 N.am      1 ALA2        0.0000 
     21 N          -5.0700  105.3300  -21.1500 N.am      1 ALA2        0.0000 
     22 N          -4.9100  106.8700  -22.6000 N.am      1 ALA2        0.0000 
     23 N          -3.9700  105.8500  -22.0300 N.am      1 ALA2        0.0000 
     24 N          -3.8100  107.3900  -23.4800 N.am      1 ALA2        0.0000 
     25 O           0.1100  104.8400  -22.6400 O.2       1 ALA2        0.0000 
     26 O           0.5000  105.8100  -21.5700 O.2       1 ALA2        0.0000 
     27 OD1        -4.1300  104.3100  -20.5800 O.co2     2 ASP3        0.0000 
     28 OD1        -3.0300  104.8300  -21.4600 O.co2     2 ASP3        0.0000 
     29 NZ        -10.8800  105.4200  -23.2600 N.4       3 LYS4        0.0000 
     30 NZ         -4.6700  106.3000  -20.0800 N.4       3 LYS4        0.0000 
     31 NZ         -3.3400  106.2500  -18.4300 N.4       3 LYS4        0.0000 
     32 NZ          1.8400  105.7600  -19.9200 N.4       3 LYS4        0.0000 
     33 NZ          1.1400  106.2100  -17.9700 N.4       3 LYS4        0.0000 
     34 NZ          0.4400  106.6600  -16.0200 N.4       3 LYS4        0.0000 
     35 CZ         -3.5700  106.8200  -20.9600 C.ar      4 PHE5        0.0000 
     36 CZ         -2.6300  105.8000  -20.3800 C.ar      4 PHE5        0.0000 
     37 CZ         -2.4700  107.3400  -21.8300 C.ar      4 PHE5        0.0000 
     38 CZ         -1.5300  106.3200  -21.2600 C.ar      4 PHE5        0.0000 
     39 CZ         -0.4300  106.8300  -22.1400 C.ar      4 PHE5        0.0000 
     40 CZ         -3.1700  107.7900  -19.8800 C.ar      4 PHE5        0.0000 
     41 CZ         -2.2400  106.7700  -19.3100 C.ar      4 PHE5        0.0000 
     42 CZ         -0.2000  106.2600  -19.6200 C.ar      4 PHE5        0.0000 
     43 CZ          0.9000  106.7800  -20.4900 C.ar      4 PHE5        0.0000 
     44 CZ         -1.8400  107.7400  -18.2400 C.ar      4 PHE5        0.0000 
     45 CZ         -0.9000  106.7200  -17.6600 C.ar      4 PHE5        0.0000 
     46 CZ          0.2000  107.2300  -18.5400 C.ar      4 PHE5        0.0000 
     47 CZ         -1.4400  108.7100  -17.1700 C.ar      4 PHE5        0.0000 
     48 CA        -10.2100  100.4700  -25.3400 C.3       5 GLY6        0.0000 
     49 CA         -9.1100  100.9900  -26.2100 C.3       5 GLY6        0.0000 
     50 CA         -8.0000  101.5000  -27.0900 C.3       5 GLY6        0.0000 
     51 CA        -10.7400  102.4600  -24.8400 C.3       5 GLY6        0.0000 
     52 CA         -8.7100  101.9600  -25.1400 C.3       5 GLY6        0.0000 
     53 CA         -7.7700  100.9300  -24.5700 C.3       5 GLY6        0.0000 
     54 CA         -8.5400  103.4900  -26.5900 C.3       5 GLY6        0.0000 
     55 CA         -7.6100  102.4700  -26.0200 C.3       5 GLY6        0.0000 
     56 CA         -6.2700  102.4200  -24.3700 C.3       5 GLY6        0.0000 
     57 CA         -5.1700  102.9400  -25.2500 C.3       5 GLY6        0.0000 
     58 CA         -5.8700  103.3900  -23.3000 C.3       5 GLY6        0.0000 
     59 CA         -4.7700  103.9100  -24.1800 C.3       5 GLY6        0.0000 
     60 CA         -5.5400  106.4700  -26.2000 C.3       5 GLY6        0.0000 
     61 CA         -3.6700  104.4300  -25.0500 C.3       5 GLY6        0.0000 
     62 CA         -4.2100  106.4200  -24.5500 C.3       5 GLY6        0.0000 
     63 CA         -3.2700  105.4000  -23.9800 C.3       5 GLY6        0.0000 
     64 CA         -2.3300  104.3800  -23.4100 C.3       5 GLY6        0.0000 
     65 CA         -2.8700  106.3700  -22.9100 C.3       5 GLY6        0.0000 
     66 CA         -0.9900  104.3300  -21.7600 C.3       5 GLY6        0.0000 
     67 CA         -0.8300  105.8600  -23.2100 C.3       5 GLY6        0.0000 
     68 CA         -0.6000  105.2900  -20.6900 C.3       5 GLY6        0.0000 
     69 CA          0.3400  104.2700  -20.1100 C.3       5 GLY6        0.0000 
     70 CA          1.4400  104.7900  -20.9900 C.3       5 GLY6        0.0000 
     71 CA          1.6100  106.3300  -22.4400 C.3       5 GLY6        0.0000 
     72 CA          0.7400  105.2400  -19.0400 C.3       5 GLY6        0.0000 
     73 CA          0.0400  105.6900  -17.0900 C.3       5 GLY6        0.0000 
     74 DU         -8.3100  102.9200  -24.0700 H         6 CUB7        0.0000 
     75 DU         -7.2100  103.4400  -24.9400 H         6 CUB7        0.0000 
     76 DU         -6.1100  103.9600  -25.8200 H         6 CUB7        0.0000 
     77 DU         -7.9100  103.8900  -22.9900 H         6 CUB7        0.0000 
     78 DU         -6.8100  104.4100  -23.8700 H         6 CUB7        0.0000 
     79 DU         -5.7100  104.9300  -24.7500 H         6 CUB7        0.0000 
     80 DU         -4.6100  105.4500  -25.6300 H         6 CUB7        0.0000 
     81 DU         -5.4700  104.3600  -22.2300 H         6 CUB7        0.0000 
     82 DU         -4.3700  104.8800  -23.1000 H         6 CUB7        0.0000 
     83 DU         -1.9300  105.3500  -22.3300 H         6 CUB7        0.0000 
@<TRIPOS>BOND
@<TRIPOS>SUBSTRUCTURE
     1 ALA2        1 GROUP   
     2 ASP3       27 GROUP   
     3 LYS4       29 GROUP   
     4 PHE5       35 GROUP   
     5 GLY6       48 GROUP   
     6 CUB7       74 GROUP   
@<TRIPOS>SET

