#    Name: 6p8x_3_GDP_CAVITY_N1_6
#    Modification time : Fri May 22 19:28:51 2020

@<TRIPOS>MOLECULE
6p8x_3_GDP_CAVITY_N1_6
   69     0     6     0     0
SMALL
NO_CHARGES


@<TRIPOS>ATOM
      1 O           4.8400   88.3200  -59.8000 O.2       1 ALA2        0.0000 
      2 N           5.7700   87.3000  -59.2200 N.am      1 ALA2        0.0000 
      3 O           5.0000   89.8600  -61.2500 O.2       1 ALA2        0.0000 
      4 O           3.3600   91.3300  -59.8700 O.2       1 ALA2        0.0000 
      5 N           4.3000   90.3100  -59.3000 N.am      1 ALA2        0.0000 
      6 N           4.4600   91.8500  -60.7500 N.am      1 ALA2        0.0000 
      7 N           3.4300   89.2200  -55.9000 N.am      1 ALA2        0.0000 
      8 N           4.5300   89.7400  -56.7700 N.am      1 ALA2        0.0000 
      9 N           4.7000   91.2800  -58.2200 N.am      1 ALA2        0.0000 
     10 N           5.8000   91.8000  -59.1000 N.am      1 ALA2        0.0000 
     11 OD1         3.5000   88.3700  -61.4400 O.co2     2 ASP3        0.0000 
     12 OD1         4.6000   88.8900  -62.3200 O.co2     2 ASP3        0.0000 
     13 OD1         3.9700   87.2300  -56.4000 O.co2     2 ASP3        0.0000 
     14 OD1         5.0700   87.7500  -57.2700 O.co2     2 ASP3        0.0000 
     15 OD1         6.1700   88.2700  -58.1500 O.co2     2 ASP3        0.0000 
     16 OD1         5.4700   88.7200  -56.2000 O.co2     2 ASP3        0.0000 
     17 OD1         6.5700   89.2400  -57.0800 O.co2     2 ASP3        0.0000 
     18 OD1         5.8700   89.6900  -55.1300 O.co2     2 ASP3        0.0000 
     19 OD1         6.9700   90.2100  -56.0100 O.co2     2 ASP3        0.0000 
     20 OD1         5.0300   93.1000  -51.6000 O.co2     2 ASP3        0.0000 
     21 OD1         5.5900   95.6100  -51.9800 O.co2     2 ASP3        0.0000 
     22 OD1         6.5300   94.5900  -51.4100 O.co2     2 ASP3        0.0000 
     23 OD1         6.6900   96.1200  -52.8600 O.co2     2 ASP3        0.0000 
     24 NZ          3.8300   90.1900  -54.8200 N.4       3 LYS4        0.0000 
     25 NZ          4.7700   89.1700  -54.2500 N.4       3 LYS4        0.0000 
     26 NZ          4.9300   90.7100  -55.7000 N.4       3 LYS4        0.0000 
     27 NZ          5.1700   90.1400  -53.1800 N.4       3 LYS4        0.0000 
     28 NZ          6.2700   90.6600  -54.0500 N.4       3 LYS4        0.0000 
     29 NZ          5.7300   92.6500  -53.5600 N.4       3 LYS4        0.0000 
     30 NZ          7.6100   90.6100  -52.4100 N.4       3 LYS4        0.0000 
     31 NZ          9.6500   90.1000  -52.7100 N.4       3 LYS4        0.0000 
     32 NZ          5.9700   92.0800  -51.0300 N.4       3 LYS4        0.0000 
     33 NZ          5.1900   94.6400  -53.0600 N.4       3 LYS4        0.0000 
     34 NZ          7.0700   92.6000  -51.9100 N.4       3 LYS4        0.0000 
     35 NZ          8.0100   91.5700  -51.3400 N.4       3 LYS4        0.0000 
     36 CZ          6.0300   91.2300  -56.5800 C.ar      4 PHE5        0.0000 
     37 CZ          8.0700   90.7200  -56.8800 C.ar      4 PHE5        0.0000 
     38 CZ          7.3700   91.1700  -54.9300 C.ar      4 PHE5        0.0000 
     39 CZ          6.6700   91.6300  -52.9800 C.ar      4 PHE5        0.0000 
     40 CZ          7.7700   92.1400  -53.8600 C.ar      4 PHE5        0.0000 
     41 CZ          8.7100   91.1200  -53.2900 C.ar      4 PHE5        0.0000 
     42 CZ          6.1300   93.6200  -52.4800 C.ar      4 PHE5        0.0000 
     43 CA          2.2400   86.3100  -59.1200 C.3       5 GLY6        0.0000 
     44 CA          3.3400   86.8300  -59.9900 C.3       5 GLY6        0.0000 
     45 CA          4.4400   87.3500  -60.8700 C.3       5 GLY6        0.0000 
     46 CA          2.6400   87.2800  -58.0400 C.3       5 GLY6        0.0000 
     47 CA          3.5700   86.2600  -57.4700 C.3       5 GLY6        0.0000 
     48 CA          3.7400   87.8000  -58.9200 C.3       5 GLY6        0.0000 
     49 CA          2.9600   90.3600  -60.9400 C.3       5 GLY6        0.0000 
     50 CA          4.0600   90.8800  -61.8200 C.3       5 GLY6        0.0000 
     51 CA          5.9400   88.8400  -60.6700 C.3       5 GLY6        0.0000 
     52 CA          5.4000   90.8300  -60.1800 C.3       5 GLY6        0.0000 
     53 CA          6.3400   89.8100  -59.6000 C.3       5 GLY6        0.0000 
     54 CA          6.7400   90.7800  -58.5300 C.3       5 GLY6        0.0000 
     55 CA          7.6700   89.7500  -57.9600 C.3       5 GLY6        0.0000 
     56 CA          9.0100   89.7000  -56.3100 C.3       5 GLY6        0.0000 
     57 CA          8.3100   90.1500  -54.3600 C.3       5 GLY6        0.0000 
     58 CA          9.4100   90.6700  -55.2400 C.3       5 GLY6        0.0000 
     59 CA         10.3500   89.6500  -54.6600 C.3       5 GLY6        0.0000 
     60 CA          8.5500   89.5800  -51.8400 C.3       5 GLY6        0.0000 
     61 CA          9.8100   91.6400  -54.1600 C.3       5 GLY6        0.0000 
     62 CA          8.1700   93.1100  -52.7900 C.3       5 GLY6        0.0000 
     63 CA          9.1100   92.0900  -52.2100 C.3       5 GLY6        0.0000 
     64 DU          1.5400   86.7600  -57.1600 H         6 CUB7        0.0000 
     65 DU          3.9000   89.3400  -60.3700 H         6 CUB7        0.0000 
     66 DU          3.0300   88.2500  -56.9700 H         6 CUB7        0.0000 
     67 DU          4.1400   88.7700  -57.8500 H         6 CUB7        0.0000 
     68 DU          5.2400   89.2900  -58.7200 H         6 CUB7        0.0000 
     69 DU          5.6400   90.2600  -57.6500 H         6 CUB7        0.0000 
@<TRIPOS>BOND
@<TRIPOS>SUBSTRUCTURE
     1 ALA2        1 GROUP   
     2 ASP3       11 GROUP   
     3 LYS4       24 GROUP   
     4 PHE5       36 GROUP   
     5 GLY6       43 GROUP   
     6 CUB7       64 GROUP   
@<TRIPOS>SET

