#    Name: 6p8x_3_GDP
#    Modification time : Fri May 22 19:28:49 2020

@<TRIPOS>MOLECULE
6p8x_3_GDP
   28    30     1     0     1
SMALL
NO_CHARGES


@<TRIPOS>ATOM
      1 PB          4.6960   86.6610  -62.6400 P.3       1 GDP303      0.0000 
      2 O1B         4.4980   87.7520  -63.6380 O.co2     1 GDP303      0.0000 
      3 O2B         5.9400   85.8620  -62.8510 O.co2     1 GDP303      0.0000 
      4 O3B         3.4700   85.8470  -62.3990 O.co2     1 GDP303      0.0000 
      5 O3A         4.9690   87.3700  -61.2240 O.3       1 GDP303      0.0000 
      6 PA          4.7490   88.9260  -60.8700 P.3       1 GDP303      0.0000 
      7 O1A         5.8050   89.7130  -61.5670 O.co2     1 GDP303      0.0000 
      8 O2A         3.3070   89.2770  -61.0600 O.co2     1 GDP303      0.0000 
      9 O5'         5.0550   88.9630  -59.3010 O.3       1 GDP303      0.0000 
     10 C5'         4.5530   87.9530  -58.4300 C.3       1 GDP303      0.0000 
     11 C4'         4.5020   88.4680  -56.9980 C.3       1 GDP303      0.0000 
     12 O4'         5.8170   88.4950  -56.4450 O.3       1 GDP303      0.0000 
     13 C3'         3.9980   89.8980  -56.9990 C.3       1 GDP303      0.0000 
     14 O3'         3.2560   90.1450  -55.8080 O.3       1 GDP303      0.0000 
     15 C2'         5.2670   90.7220  -57.0120 C.3       1 GDP303      0.0000 
     16 O2'         5.0830   91.9740  -56.3620 O.3       1 GDP303      0.0000 
     17 C1'         6.2300   89.8500  -56.2330 C.3       1 GDP303      0.0000 
     18 N9          7.6410   90.0450  -56.6400 N.pl3     1 GDP303      0.0000 
     19 C8          8.1130   90.0730  -57.8890 C.2       1 GDP303      0.0000 
     20 N7          9.4490   90.2500  -57.8980 N.2       1 GDP303      0.0000 
     21 C5          9.8540   90.3370  -56.6270 C.2       1 GDP303      0.0000 
     22 C6         11.1410   90.5260  -55.9280 C.2       1 GDP303      0.0000 
     23 O6         12.1930   90.6510  -56.5720 O.2       1 GDP303      0.0000 
     24 N1         11.1340   90.5610  -54.5890 N.am      1 GDP303      0.0000 
     25 C2         10.0090   90.4310  -53.8710 C.2       1 GDP303      0.0000 
     26 N2         10.0890   90.4750  -52.5220 N.pl3     1 GDP303      0.0000 
     27 N3          8.7950   90.2550  -54.4510 N.2       1 GDP303      0.0000 
     28 C4          8.6590   90.2020  -55.7980 C.2       1 GDP303      0.0000 
@<TRIPOS>BOND
     1    1    2 ar   
     2    1    3 ar   
     3    1    4 ar   
     4    1    5 1    
     5    5    6 1    
     6    6    7 ar   
     7    6    8 ar   
     8    6    9 1    
     9    9   10 1    
    10   10   11 1    
    11   11   12 1    
    12   11   13 1    
    13   12   17 1    
    14   13   14 1    
    15   13   15 1    
    16   15   16 1    
    17   15   17 1    
    18   17   18 1    
    19   18   19 1    
    20   18   28 1    
    21   19   20 2    
    22   20   21 1    
    23   21   22 1    
    24   21   28 2    
    25   22   23 2    
    26   22   24 am   
    27   24   25 1    
    28   25   26 1    
    29   25   27 2    
    30   27   28 1    
@<TRIPOS>SUBSTRUCTURE
     1 GDP303      1 GROUP   
@<TRIPOS>SET
ATOM$ORANGE STATIC     ATOMS   COLORGROUP SYSTEM 
20 10 10 11 11 13 13 15 15 17 17 19 19 21 21 22 22 25 \
25 28 28 

