#    Name: 6p8x_4_GDP
#    Modification time : Fri May 22 19:28:53 2020

@<TRIPOS>MOLECULE
6p8x_4_GDP
   28    30     1     0     1
SMALL
NO_CHARGES


@<TRIPOS>ATOM
      1 PB         -4.3020  102.3060  -27.4590 P.3       1 GDP303      0.0000 
      2 O1B        -4.5360  103.4810  -28.3480 O.co2     1 GDP303      0.0000 
      3 O2B        -3.0790  101.5230  -27.8060 O.co2     1 GDP303      0.0000 
      4 O3B        -5.5100  101.4590  -27.2290 O.co2     1 GDP303      0.0000 
      5 O3A        -3.9600  102.8990  -26.0020 O.3       1 GDP303      0.0000 
      6 PA         -4.2580  104.4100  -25.5370 P.3       1 GDP303      0.0000 
      7 O1A        -3.3190  105.3020  -26.2750 O.co2     1 GDP303      0.0000 
      8 O2A        -5.7330  104.6360  -25.6030 O.co2     1 GDP303      0.0000 
      9 O5'        -3.8570  104.4070  -23.9900 O.3       1 GDP303      0.0000 
     10 C5'        -4.7220  103.7890  -23.0460 C.3       1 GDP303      0.0000 
     11 C4'        -4.5650  104.4060  -21.6620 C.3       1 GDP303      0.0000 
     12 O4'        -3.2090  104.3200  -21.2290 O.3       1 GDP303      0.0000 
     13 C3'        -4.9450  105.8740  -21.6500 C.3       1 GDP303      0.0000 
     14 O3'        -5.6600  106.1420  -20.4470 O.3       1 GDP303      0.0000 
     15 C2'        -3.6130  106.5880  -21.6570 C.3       1 GDP303      0.0000 
     16 O2'        -3.6750  107.8520  -21.0000 O.3       1 GDP303      0.0000 
     17 C1'        -2.7150  105.6150  -20.9190 C.3       1 GDP303      0.0000 
     18 N9         -1.3080  105.7000  -21.3480 N.pl3     1 GDP303      0.0000 
     19 C8         -0.8640  105.6360  -22.6060 C.2       1 GDP303      0.0000 
     20 N7          0.4760  105.7290  -22.6470 N.2       1 GDP303      0.0000 
     21 C5          0.9090  105.8550  -21.3900 C.2       1 GDP303      0.0000 
     22 C6          2.2170  106.0030  -20.7280 C.2       1 GDP303      0.0000 
     23 O6          3.2560  106.0300  -21.3990 O.2       1 GDP303      0.0000 
     24 N1          2.2390  106.1020  -19.3930 N.am      1 GDP303      0.0000 
     25 C2          1.1190  106.0720  -18.6500 C.2       1 GDP303      0.0000 
     26 N2          1.2190  106.1770  -17.3090 N.pl3     1 GDP303      0.0000 
     27 N3         -0.1130  105.9420  -19.1950 N.2       1 GDP303      0.0000 
     28 C4         -0.2730  105.8330  -20.5320 C.2       1 GDP303      0.0000 
@<TRIPOS>BOND
     1    1    2 ar   
     2    1    3 ar   
     3    1    4 ar   
     4    1    5 1    
     5    5    6 1    
     6    6    7 ar   
     7    6    8 ar   
     8    6    9 1    
     9    9   10 1    
    10   10   11 1    
    11   11   12 1    
    12   11   13 1    
    13   12   17 1    
    14   13   14 1    
    15   13   15 1    
    16   15   16 1    
    17   15   17 1    
    18   17   18 1    
    19   18   19 1    
    20   18   28 1    
    21   19   20 2    
    22   20   21 1    
    23   21   22 1    
    24   21   28 2    
    25   22   23 2    
    26   22   24 am   
    27   24   25 1    
    28   25   26 1    
    29   25   27 2    
    30   27   28 1    
@<TRIPOS>SUBSTRUCTURE
     1 GDP303      1 GROUP   
@<TRIPOS>SET
ATOM$ORANGE STATIC     ATOMS   COLORGROUP SYSTEM 
20 10 10 11 11 13 13 15 15 17 17 19 19 21 21 22 22 25 \
25 28 28 

