#    Name: 6fmu_1_FAD
#    Modification time : Fri May 22 19:35:05 2020

@<TRIPOS>MOLECULE
6fmu_1_FAD
   84    89     1     0     1
SMALL
NO_CHARGES


@<TRIPOS>ATOM
      1 PA        142.3680    3.6370   69.1400 P.3       1 FAD601      0.0000 
      2 O1A       141.9660    2.8500   70.3920 O.co2     1 FAD601      0.0000 
      3 O2A       141.7430    3.2060   67.8610 O.co2     1 FAD601      0.0000 
      4 O5B       144.0370    3.5520   68.8920 O.3       1 FAD601      0.0000 
      5 C5B       144.9270    3.9070   69.9210 C.3       1 FAD601      0.0000 
      6 C4B       146.2330    3.0360   69.6200 C.3       1 FAD601      0.0000 
      7 O4B       147.2300    3.5030   70.3260 O.3       1 FAD601      0.0000 
      8 C3B       145.9780    1.6100   70.0650 C.3       1 FAD601      0.0000 
      9 O3B       146.5310    0.7470   69.1270 O.3       1 FAD601      0.0000 
     10 C2B       146.7230    1.5510   71.4210 C.3       1 FAD601      0.0000 
     11 O2B       147.0520    0.1050   71.8360 O.3       1 FAD601      0.0000 
     12 C1B       147.7880    2.2600   71.1490 C.3       1 FAD601      0.0000 
     13 N9A       148.4930    2.8500   72.3120 N.pl3     1 FAD601      0.0000 
     14 C8A       147.9740    3.1770   73.5320 C.2       1 FAD601      0.0000 
     15 N7A       148.9580    3.6920   74.2770 N.2       1 FAD601      0.0000 
     16 C5A       150.0910    3.6960   73.5020 C.ar      1 FAD601      0.0000 
     17 C6A       151.3730    4.0940   73.7530 C.ar      1 FAD601      0.0000 
     18 N6A       151.9630    4.6920   74.9440 N.pl3     1 FAD601      0.0000 
     19 N1A       152.3200    3.9720   72.8290 N.ar      1 FAD601      0.0000 
     20 C2A       152.0180    3.4610   71.6040 C.ar      1 FAD601      0.0000 
     21 N3A       150.7560    3.0600   71.3510 N.ar      1 FAD601      0.0000 
     22 C4A       149.7970    3.1680   72.2920 C.ar      1 FAD601      0.0000 
     23 N1        133.2310    3.6740   66.5700 N.2       1 FAD601      0.0000 
     24 C2        132.3880    3.9280   65.3950 C.2       1 FAD601      0.0000 
     25 O2        132.4640    4.9700   64.8510 O.2       1 FAD601      0.0000 
     26 N3        131.4440    2.9000   64.8870 N.am      1 FAD601      0.0000 
     27 C4        131.3240    1.6100   65.5070 C.2       1 FAD601      0.0000 
     28 O4        130.5470    0.7650   65.0930 O.2       1 FAD601      0.0000 
     29 C4X       132.1920    1.3720   66.7080 C.2       1 FAD601      0.0000 
     30 N5        132.1100    0.1240   67.3830 N.2       1 FAD601      0.0000 
     31 C5X       132.9640   -0.1860   68.5540 C.ar      1 FAD601      0.0000 
     32 C6        132.8650   -1.4460   69.1830 C.ar      1 FAD601      0.0000 
     33 C7        133.6580   -1.6960   70.2840 C.ar      1 FAD601      0.0000 
     34 C7M       133.4870   -3.0900   70.8800 C.3       1 FAD601      0.0000 
     35 C8        134.5240   -0.6710   70.7380 C.ar      1 FAD601      0.0000 
     36 C8M       135.4670   -0.9590   71.9950 C.3       1 FAD601      0.0000 
     37 C9        134.6350    0.5440   70.1220 C.ar      1 FAD601      0.0000 
     38 C9A       133.8390    0.8080   69.0140 C.ar      1 FAD601      0.0000 
     39 N10       133.9250    2.1230   68.3530 N.pl3     1 FAD601      0.0000 
     40 C10       133.1080    2.3900   67.1980 C.2       1 FAD601      0.0000 
     41 C1'       134.8210    3.1850   68.8200 C.3       1 FAD601      0.0000 
     42 C2'       136.0840    3.2550   67.9560 C.3       1 FAD601      0.0000 
     43 O2'       136.7370    2.0250   68.0050 O.3       1 FAD601      0.0000 
     44 C3'       136.9290    4.3250   68.5910 C.3       1 FAD601      0.0000 
     45 O3'       136.2080    5.5510   68.6890 O.3       1 FAD601      0.0000 
     46 C4'       138.1770    4.5120   67.7420 C.3       1 FAD601      0.0000 
     47 O4'       138.8930    3.2900   67.5500 O.3       1 FAD601      0.0000 
     48 C5'       138.9980    5.4910   68.5320 C.3       1 FAD601      0.0000 
     49 O5'       140.1980    5.7560   67.7590 O.3       1 FAD601      0.0000 
     50 P         141.4710    6.3960   68.5590 P.3       1 FAD601      0.0000 
     51 O1P       142.3870    6.8360   67.5010 O.co2     1 FAD601      0.0000 
     52 O2P       140.9730    7.4210   69.4820 O.co2     1 FAD601      0.0000 
     53 O3P       142.1720    5.2270   69.4870 O.3       1 FAD601      0.0000 
     54 H51A      144.5570    3.6710   70.7860 H         1 FAD601      0.0000 
     55 H52A      145.1280    4.8550   69.8850 H         1 FAD601      0.0000 
     56 H4B       146.4500    3.0600   68.6750 H         1 FAD601      0.0000 
     57 H3B       145.0290    1.4480   70.1820 H         1 FAD601      0.0000 
     58 HO3A      146.1810   -0.0230   69.2090 H         1 FAD601      0.0000 
     59 H2B       146.1970    1.9910   72.1070 H         1 FAD601      0.0000 
     60 HO2A      146.9820    0.0290   72.6800 H         1 FAD601      0.0000 
     61 H1B       148.4020    1.7440   70.6030 H         1 FAD601      0.0000 
     62 H8A       147.0910    3.0630   73.7990 H         1 FAD601      0.0000 
     63 H61A      152.0150    5.5470   75.0160 H         1 FAD601      0.0000 
     64 H62A      152.2590    4.1880   75.5760 H         1 FAD601      0.0000 
     65 H2A       152.6770    3.3800   70.9530 H         1 FAD601      0.0000 
     66 HN3       130.9600    3.0820   64.2000 H         1 FAD601      0.0000 
     67 H6        132.2450   -1.9990   68.7670 H         1 FAD601      0.0000 
     68 HM71      133.5980   -3.7540   70.1820 H         1 FAD601      0.0000 
     69 HM72      132.6070   -3.1700   71.2780 H         1 FAD601      0.0000 
     70 HM73      134.1650   -3.2320   71.5600 H         1 FAD601      0.0000 
     71 HM81      136.1750   -1.5690   71.7360 H         1 FAD601      0.0000 
     72 HM82      134.9430   -1.3560   72.7080 H         1 FAD601      0.0000 
     73 HM83      135.8560   -0.1260   72.3060 H         1 FAD601      0.0000 
     74 H9        135.2710    1.0050   70.6200 H         1 FAD601      0.0000 
     75 H1'1      135.0820    2.9930   69.7340 H         1 FAD601      0.0000 
     76 H1'2      134.3570    4.0370   68.7930 H         1 FAD601      0.0000 
     77 H2'       135.8610    3.4900   67.0410 H         1 FAD601      0.0000 
     78 HO2'      136.3220    1.4640   67.5210 H         1 FAD601      0.0000 
     79 H3'       137.1890    4.0400   69.4810 H         1 FAD601      0.0000 
     80 HO3'      135.7930    5.5780   69.4300 H         1 FAD601      0.0000 
     81 H4'       137.9400    4.8960   66.8830 H         1 FAD601      0.0000 
     82 HO4'      139.3630    3.3440   66.8440 H         1 FAD601      0.0000 
     83 H5'1      138.5040    6.3150   68.6670 H         1 FAD601      0.0000 
     84 H5'2      139.2370    5.1130   69.3930 H         1 FAD601      0.0000 
@<TRIPOS>BOND
     1    1    2 ar   
     2    1    3 ar   
     3    1    4 1    
     4    1   53 1    
     5    4    5 1    
     6    5    6 1    
     7    5   54 1    
     8    5   55 1    
     9    6    7 1    
    10    6    8 1    
    11    6   56 1    
    12    7   12 1    
    13    8    9 1    
    14    8   10 1    
    15    8   57 1    
    16    9   58 1    
    17   10   11 1    
    18   10   12 1    
    19   10   59 1    
    20   12   61 1    
    21   12   13 1    
    22   11   60 1    
    23   13   14 1    
    24   13   22 1    
    25   14   15 2    
    26   15   16 1    
    27   14   62 1    
    28   16   17 ar   
    29   16   22 ar   
    30   17   18 1    
    31   17   19 ar   
    32   19   20 ar   
    33   18   63 1    
    34   18   64 1    
    35   20   21 ar   
    36   21   22 ar   
    37   20   65 1    
    38   23   24 1    
    39   23   40 2    
    40   24   25 2    
    41   24   26 am   
    42   26   27 am   
    43   27   28 2    
    44   26   66 1    
    45   27   29 1    
    46   29   30 2    
    47   29   40 1    
    48   30   31 1    
    49   31   32 ar   
    50   31   38 ar   
    51   32   33 ar   
    52   33   34 1    
    53   32   67 1    
    54   33   35 ar   
    55   34   68 1    
    56   34   69 1    
    57   34   70 1    
    58   35   36 1    
    59   35   37 ar   
    60   37   74 1    
    61   36   71 1    
    62   36   72 1    
    63   36   73 1    
    64   37   38 ar   
    65   38   39 1    
    66   39   40 1    
    67   39   41 1    
    68   41   42 1    
    69   41   75 1    
    70   41   76 1    
    71   42   43 1    
    72   42   44 1    
    73   42   77 1    
    74   43   78 1    
    75   44   45 1    
    76   44   46 1    
    77   44   79 1    
    78   45   80 1    
    79   46   47 1    
    80   46   48 1    
    81   46   81 1    
    82   47   82 1    
    83   48   49 1    
    84   48   83 1    
    85   48   84 1    
    86   49   50 1    
    87   50   51 ar   
    88   50   52 ar   
    89   50   53 1    
@<TRIPOS>SUBSTRUCTURE
     1 FAD601      1 GROUP   
@<TRIPOS>SET
ATOM$ORANGE STATIC     ATOMS   COLORGROUP SYSTEM 
54 5 5 6 6 8 8 10 10 12 12 14 14 16 16 17 17 20 \
20 22 22 24 24 27 27 29 29 31 31 32 32 33 33 34 34 35 \
35 36 36 37 37 38 38 40 40 41 41 42 42 44 44 46 46 48 \
48 

