#    Name: 6g19_1_ANP
#    Modification time : Fri May 22 19:28:57 2020

@<TRIPOS>MOLECULE
6g19_1_ANP
   31    33     1     0     1
SMALL
NO_CHARGES


@<TRIPOS>ATOM
      1 PG         98.2810  140.6000  118.6550 P.3       1 ANP1102     0.0000 
      2 O1G        98.1460  140.9990  117.1410 O.co2     1 ANP1102     0.0000 
      3 O2G        99.6900  140.8080  119.1030 O.co2     1 ANP1102     0.0000 
      4 O3G        97.8950  139.0800  118.8330 O.co2     1 ANP1102     0.0000 
      5 PB         97.1090  140.8290  121.0860 P.3       1 ANP1102     0.0000 
      6 O1B        95.9050  139.8450  121.0750 O.co2     1 ANP1102     0.0000 
      7 O2B        98.3640  140.0800  121.3830 O.co2     1 ANP1102     0.0000 
      8 N3B        97.2410  141.5520  119.5840 N.3       1 ANP1102     0.0000 
      9 PA         96.0870  143.2250  121.8000 P.3       1 ANP1102     0.0000 
     10 O1A        95.5230  142.9810  120.3980 O.co2     1 ANP1102     0.0000 
     11 O2A        96.9380  144.4340  121.9010 O.co2     1 ANP1102     0.0000 
     12 O3A        96.8930  141.9180  122.1760 O.3       1 ANP1102     0.0000 
     13 O5'        94.9520  143.3100  122.9030 O.3       1 ANP1102     0.0000 
     14 C5'        95.2710  143.5150  124.2950 C.3       1 ANP1102     0.0000 
     15 C4'        95.2260  144.9970  124.5690 C.3       1 ANP1102     0.0000 
     16 O4'        94.2320  145.6030  123.7210 O.3       1 ANP1102     0.0000 
     17 C3'        94.8240  145.3850  125.9850 C.3       1 ANP1102     0.0000 
     18 O3'        95.3450  146.6630  126.3350 O.3       1 ANP1102     0.0000 
     19 C2'        93.2970  145.4000  125.9000 C.3       1 ANP1102     0.0000 
     20 O2'        92.7730  146.3320  126.8380 O.3       1 ANP1102     0.0000 
     21 C1'        93.0580  145.8760  124.4630 C.3       1 ANP1102     0.0000 
     22 N9         91.9290  145.2460  123.7760 N.pl3     1 ANP1102     0.0000 
     23 C8         91.9910  144.2750  122.8120 C.2       1 ANP1102     0.0000 
     24 N7         90.8160  143.9110  122.3490 N.2       1 ANP1102     0.0000 
     25 C5         89.9240  144.7010  123.0630 C.ar      1 ANP1102     0.0000 
     26 C6         88.5180  144.8070  123.0340 C.ar      1 ANP1102     0.0000 
     27 N6         87.7350  144.0810  122.2370 N.pl3     1 ANP1102     0.0000 
     28 N1         87.9410  145.7060  123.8660 N.ar      1 ANP1102     0.0000 
     29 C2         88.7230  146.4440  124.6600 C.ar      1 ANP1102     0.0000 
     30 N3         90.0540  146.4330  124.7720 N.ar      1 ANP1102     0.0000 
     31 C4         90.6010  145.5500  123.9280 C.ar      1 ANP1102     0.0000 
@<TRIPOS>BOND
     1    1    2 ar   
     2    1    3 ar   
     3    1    4 ar   
     4    1    8 1    
     5    5    6 ar   
     6    5    7 ar   
     7    5    8 1    
     8    5   12 1    
     9    9   10 ar   
    10    9   11 ar   
    11    9   12 1    
    12    9   13 1    
    13   13   14 1    
    14   14   15 1    
    15   15   16 1    
    16   15   17 1    
    17   16   21 1    
    18   17   18 1    
    19   17   19 1    
    20   19   20 1    
    21   19   21 1    
    22   21   22 1    
    23   22   23 1    
    24   22   31 1    
    25   23   24 2    
    26   24   25 1    
    27   25   26 ar   
    28   25   31 ar   
    29   26   27 1    
    30   26   28 ar   
    31   28   29 ar   
    32   29   30 ar   
    33   30   31 ar   
@<TRIPOS>SUBSTRUCTURE
     1 ANP1102     1 GROUP   
@<TRIPOS>SET
ATOM$ORANGE STATIC     ATOMS   COLORGROUP SYSTEM 
20 14 14 15 15 17 17 19 19 21 21 23 23 25 25 26 26 29 \
29 31 31 

