#    Name: 6n8t_1_ATP
#    Modification time : Fri May 22 19:25:27 2020

@<TRIPOS>MOLECULE
6n8t_1_ATP
   31    32     1     0     1
SMALL
NO_CHARGES


@<TRIPOS>ATOM
      1 PG        105.1700  142.2560  140.0330 P.3       1 ATP1001     0.0000 
      2 O1G       105.5240  144.2750  139.7560 Du        1 ATP1001     0.0000 
      3 O2G       104.0970  141.9830  141.2330 O.co2     1 ATP1001     0.0000 
      4 O3G       106.3870  141.4390  140.2540 O.co2     1 ATP1001     0.0000 
      5 PB        103.8450  140.6180  138.4070 P.3       1 ATP1001     0.0000 
      6 O1B       103.5810  140.1990  139.8210 O.co2     1 ATP1001     0.0000 
      7 O2B       104.4650  139.7460  137.3510 O.co2     1 ATP1001     0.0000 
      8 O3B       104.6600  141.9560  138.5490 O.3       1 ATP1001     0.0000 
      9 PA        101.5440  139.9270  137.4780 P.3       1 ATP1001     0.0000 
     10 O1A       101.5790  139.0730  138.7110 O.co2     1 ATP1001     0.0000 
     11 O2A       101.8950  139.2720  136.1810 O.co2     1 ATP1001     0.0000 
     12 O3A       102.4960  141.1280  137.8140 O.3       1 ATP1001     0.0000 
     13 O5'       100.1880  140.7700  137.3800 O.3       1 ATP1001     0.0000 
     14 C5'        99.8430  141.7540  136.4060 C.3       1 ATP1001     0.0000 
     15 C4'        98.9150  142.7170  137.1550 C.3       1 ATP1001     0.0000 
     16 O4'        97.6130  142.8050  136.6080 O.3       1 ATP1001     0.0000 
     17 C3'        98.7270  142.2920  138.5950 C.3       1 ATP1001     0.0000 
     18 O3'        98.9240  143.4810  139.3720 O.3       1 ATP1001     0.0000 
     19 C2'        97.3340  141.7010  138.6910 C.3       1 ATP1001     0.0000 
     20 O2'        96.6230  142.1740  139.8250 O.3       1 ATP1001     0.0000 
     21 C1'        96.6210  142.2640  137.4930 C.3       1 ATP1001     0.0000 
     22 N9         95.9290  141.2170  136.7360 N.pl3     1 ATP1001     0.0000 
     23 C8         96.4660  140.6690  135.6340 C.2       1 ATP1001     0.0000 
     24 N7         95.6660  139.7250  135.1130 N.2       1 ATP1001     0.0000 
     25 C5         94.5700  139.6820  135.8710 C.ar      1 ATP1001     0.0000 
     26 C6         93.3490  138.8800  135.8060 C.ar      1 ATP1001     0.0000 
     27 N6         93.2760  137.9830  134.8180 N.pl3     1 ATP1001     0.0000 
     28 N1         92.4110  139.0900  136.7600 N.ar      1 ATP1001     0.0000 
     29 C2         92.6080  140.0270  137.7250 C.ar      1 ATP1001     0.0000 
     30 N3         93.7170  140.7980  137.8420 N.ar      1 ATP1001     0.0000 
     31 C4         94.7300  140.6650  136.9510 C.ar      1 ATP1001     0.0000 
@<TRIPOS>BOND
     1    1    3 ar   
     2    1    4 ar   
     3    1    8 1    
     4    5    6 ar   
     5    5    7 ar   
     6    5    8 1    
     7    5   12 1    
     8    9   10 ar   
     9    9   11 ar   
    10    9   12 1    
    11    9   13 1    
    12   13   14 1    
    13   14   15 1    
    14   15   16 1    
    15   15   17 1    
    16   16   21 1    
    17   17   18 1    
    18   17   19 1    
    19   19   20 1    
    20   19   21 1    
    21   21   22 1    
    22   22   23 1    
    23   22   31 1    
    24   23   24 2    
    25   24   25 1    
    26   25   26 ar   
    27   25   31 ar   
    28   26   27 1    
    29   26   28 ar   
    30   28   29 ar   
    31   29   30 ar   
    32   30   31 ar   
@<TRIPOS>SUBSTRUCTURE
     1 ATP1001     1 GROUP   
@<TRIPOS>SET
ATOM$ORANGE STATIC     ATOMS   COLORGROUP SYSTEM 
20 14 14 15 15 17 17 19 19 21 21 23 23 25 25 26 26 29 \
29 31 31 

