#    Name: 6n8t_8_ATP
#    Modification time : Fri May 22 19:27:49 2020

@<TRIPOS>MOLECULE
6n8t_8_ATP
   31    33     1     0     1
SMALL
NO_CHARGES


@<TRIPOS>ATOM
      1 PG        154.4150  105.8440  116.3140 P.3       1 ATP1002     0.0000 
      2 O1G       155.6220  106.6690  115.9350 O.co2     1 ATP1002     0.0000 
      3 O2G       153.1070  106.3660  115.7710 O.co2     1 ATP1002     0.0000 
      4 O3G       154.3700  105.4370  117.7670 O.co2     1 ATP1002     0.0000 
      5 PB        156.0700  103.7270  115.5450 P.3       1 ATP1002     0.0000 
      6 O1B       156.9860  104.5110  116.4550 O.co2     1 ATP1002     0.0000 
      7 O2B       156.4790  103.4580  114.1160 O.co2     1 ATP1002     0.0000 
      8 O3B       154.6340  104.4540  115.5300 O.3       1 ATP1002     0.0000 
      9 PA        156.9400  101.3770  116.7830 P.3       1 ATP1002     0.0000 
     10 O1A       157.4050  101.9120  118.1160 O.co2     1 ATP1002     0.0000 
     11 O2A       157.9320  101.1920  115.6590 O.co2     1 ATP1002     0.0000 
     12 O3A       155.7460  102.3170  116.2510 O.3       1 ATP1002     0.0000 
     13 O5'       156.1980   99.9710  117.0350 O.3       1 ATP1002     0.0000 
     14 C5'       156.5350   99.1670  118.1640 C.3       1 ATP1002     0.0000 
     15 C4'       156.2240   97.7070  117.8610 C.3       1 ATP1002     0.0000 
     16 O4'       156.9840   97.2750  116.7290 O.3       1 ATP1002     0.0000 
     17 C3'       156.5840   96.8100  119.0350 C.3       1 ATP1002     0.0000 
     18 O3'       155.4030   96.1610  119.5260 O.3       1 ATP1002     0.0000 
     19 C2'       157.6240   95.8270  118.5150 C.3       1 ATP1002     0.0000 
     20 O2'       157.2120   94.4600  118.6480 O.3       1 ATP1002     0.0000 
     21 C1'       157.8240   96.1620  117.0450 C.3       1 ATP1002     0.0000 
     22 N9        159.2430   96.5210  116.7970 N.pl3     1 ATP1002     0.0000 
     23 C8        159.6870   97.3470  115.8310 C.2       1 ATP1002     0.0000 
     24 N7        161.0380   97.4680  115.8720 N.2       1 ATP1002     0.0000 
     25 C5        161.4820   96.7040  116.8870 C.ar      1 ATP1002     0.0000 
     26 C6        162.8000   96.3770  117.4800 C.ar      1 ATP1002     0.0000 
     27 N6        163.9430   96.9070  116.9820 N.pl3     1 ATP1002     0.0000 
     28 N1        162.8220   95.5330  118.5360 N.ar      1 ATP1002     0.0000 
     29 C2        161.6930   95.0010  119.0400 C.ar      1 ATP1002     0.0000 
     30 N3        160.4650   95.2530  118.5520 N.ar      1 ATP1002     0.0000 
     31 C4        160.2950   96.0820  117.4940 C.ar      1 ATP1002     0.0000 
@<TRIPOS>BOND
     1    1    2 ar   
     2    1    3 ar   
     3    1    4 ar   
     4    1    8 1    
     5    5    6 ar   
     6    5    7 ar   
     7    5    8 1    
     8    5   12 1    
     9    9   10 ar   
    10    9   11 ar   
    11    9   12 1    
    12    9   13 1    
    13   13   14 1    
    14   14   15 1    
    15   15   16 1    
    16   15   17 1    
    17   16   21 1    
    18   17   18 1    
    19   17   19 1    
    20   19   20 1    
    21   19   21 1    
    22   21   22 1    
    23   22   23 1    
    24   22   31 1    
    25   23   24 2    
    26   24   25 1    
    27   25   26 ar   
    28   25   31 ar   
    29   26   27 1    
    30   26   28 ar   
    31   28   29 ar   
    32   29   30 ar   
    33   30   31 ar   
@<TRIPOS>SUBSTRUCTURE
     1 ATP1002     1 GROUP   
@<TRIPOS>SET
ATOM$ORANGE STATIC     ATOMS   COLORGROUP SYSTEM 
20 14 14 15 15 17 17 19 19 21 21 23 23 25 25 26 26 29 \
29 31 31 

