#    Name: 6n8t_12_ATP
#    Modification time : Fri May 22 19:29:21 2020

@<TRIPOS>MOLECULE
6n8t_12_ATP
   31    32     1     0     1
SMALL
NO_CHARGES


@<TRIPOS>ATOM
      1 PG        149.9620  157.0190  112.9570 P.3       1 ATP1002     0.0000 
      2 O1G       150.9420  155.2590  112.5090 Du        1 ATP1002     0.0000 
      3 O2G       149.4870  157.1110  114.5030 O.co2     1 ATP1002     0.0000 
      4 O3G       148.8370  157.3650  112.0590 O.co2     1 ATP1002     0.0000 
      5 PB        150.9930  158.8470  111.3180 P.3       1 ATP1002     0.0000 
      6 O1B       149.5470  158.7230  110.9470 O.co2     1 ATP1002     0.0000 
      7 O2B       152.1210  158.6220  110.3490 O.co2     1 ATP1002     0.0000 
      8 O3B       151.2030  157.9460  112.5910 O.3       1 ATP1002     0.0000 
      9 PA        151.2110  161.4580  110.9590 P.3       1 ATP1002     0.0000 
     10 O1A       150.1080  162.3520  111.4810 O.co2     1 ATP1002     0.0000 
     11 O2A       151.2250  161.0580  109.5120 O.co2     1 ATP1002     0.0000 
     12 O3A       151.2210  160.2540  111.9640 O.3       1 ATP1002     0.0000 
     13 O5'       152.6550  162.0440  111.3190 O.3       1 ATP1002     0.0000 
     14 C5'       152.9890  162.6040  112.5900 C.3       1 ATP1002     0.0000 
     15 C4'       154.4850  162.9010  112.5120 C.3       1 ATP1002     0.0000 
     16 O4'       154.9380  163.3740  111.2470 O.3       1 ATP1002     0.0000 
     17 C3'       154.7760  163.9980  113.5100 C.3       1 ATP1002     0.0000 
     18 O3'       155.9390  163.5960  114.2660 O.3       1 ATP1002     0.0000 
     19 C2'       154.9090  165.2620  112.6860 C.3       1 ATP1002     0.0000 
     20 O2'       155.9240  166.1520  113.1420 O.3       1 ATP1002     0.0000 
     21 C1'       155.3090  164.7650  111.3260 C.3       1 ATP1002     0.0000 
     22 N9        154.5980  165.5200  110.2740 N.pl3     1 ATP1002     0.0000 
     23 C8        153.9320  164.9290  109.2680 C.2       1 ATP1002     0.0000 
     24 N7        153.3670  165.8260  108.4440 N.2       1 ATP1002     0.0000 
     25 C5        153.6370  167.0300  108.9170 C.ar      1 ATP1002     0.0000 
     26 C6        153.3050  168.3860  108.4640 C.ar      1 ATP1002     0.0000 
     27 N6        152.5400  168.5410  107.3700 N.pl3     1 ATP1002     0.0000 
     28 N1        153.7880  169.4040  109.2040 N.ar      1 ATP1002     0.0000 
     29 C2        154.5370  169.1800  110.3120 C.ar      1 ATP1002     0.0000 
     30 N3        154.8760  167.9630  110.7740 N.ar      1 ATP1002     0.0000 
     31 C4        154.4620  166.8500  110.1230 C.ar      1 ATP1002     0.0000 
@<TRIPOS>BOND
     1    1    3 ar   
     2    1    4 ar   
     3    1    8 1    
     4    5    6 ar   
     5    5    7 ar   
     6    5    8 1    
     7    5   12 1    
     8    9   10 ar   
     9    9   11 ar   
    10    9   12 1    
    11    9   13 1    
    12   13   14 1    
    13   14   15 1    
    14   15   16 1    
    15   15   17 1    
    16   16   21 1    
    17   17   18 1    
    18   17   19 1    
    19   19   20 1    
    20   19   21 1    
    21   21   22 1    
    22   22   23 1    
    23   22   31 1    
    24   23   24 2    
    25   24   25 1    
    26   25   26 ar   
    27   25   31 ar   
    28   26   27 1    
    29   26   28 ar   
    30   28   29 ar   
    31   29   30 ar   
    32   30   31 ar   
@<TRIPOS>SUBSTRUCTURE
     1 ATP1002     1 GROUP   
@<TRIPOS>SET
ATOM$ORANGE STATIC     ATOMS   COLORGROUP SYSTEM 
20 14 14 15 15 17 17 19 19 21 21 23 23 25 25 26 26 29 \
29 31 31 

