#    Name: 6n8t_9_ATP
#    Modification time : Fri May 22 19:28:10 2020

@<TRIPOS>MOLECULE
6n8t_9_ATP
   31    32     1     0     1
SMALL
NO_CHARGES


@<TRIPOS>ATOM
      1 PG        149.8430  163.0220  150.6800 P.3       1 ATP1001     0.0000 
      2 O1G       150.5660  164.0310  152.3310 Du        1 ATP1001     0.0000 
      3 O2G       148.2690  163.2890  150.4160 O.co2     1 ATP1001     0.0000 
      4 O3G       150.1000  161.5710  150.6670 O.co2     1 ATP1001     0.0000 
      5 PB        150.8560  165.2410  149.7380 P.3       1 ATP1001     0.0000 
      6 O1B       149.9640  165.6170  150.8840 O.co2     1 ATP1001     0.0000 
      7 O2B       150.6280  165.7970  148.3640 O.co2     1 ATP1001     0.0000 
      8 O3B       150.8030  163.6850  149.6010 O.3       1 ATP1001     0.0000 
      9 PA        152.3300  166.3480  151.5530 P.3       1 ATP1001     0.0000 
     10 O1A       151.1820  167.3100  151.3070 O.co2     1 ATP1001     0.0000 
     11 O2A       152.3640  165.4490  152.7550 O.co2     1 ATP1001     0.0000 
     12 O3A       152.3300  165.5440  150.1950 O.3       1 ATP1001     0.0000 
     13 O5'       153.7460  167.0840  151.4630 O.3       1 ATP1001     0.0000 
     14 C5'       154.7220  166.9110  150.4380 C.3       1 ATP1001     0.0000 
     15 C4'       156.0230  167.4220  151.0570 C.3       1 ATP1001     0.0000 
     16 O4'       156.8320  168.1500  150.1470 O.3       1 ATP1001     0.0000 
     17 C3'       155.7190  168.3460  152.2140 C.3       1 ATP1001     0.0000 
     18 O3'       156.2580  167.7230  153.3920 O.3       1 ATP1001     0.0000 
     19 C2'       156.3240  169.6970  151.8840 C.3       1 ATP1001     0.0000 
     20 O2'       157.3590  170.0650  152.7820 O.3       1 ATP1001     0.0000 
     21 C1'       156.9770  169.5210  150.5400 C.3       1 ATP1001     0.0000 
     22 N9        156.3430  170.3820  149.5120 N.pl3     1 ATP1001     0.0000 
     23 C8        155.5960  169.9060  148.4960 C.2       1 ATP1001     0.0000 
     24 N7        155.1490  170.9090  147.7020 N.2       1 ATP1001     0.0000 
     25 C5        155.6100  172.0560  148.2060 C.ar      1 ATP1001     0.0000 
     26 C6        155.4780  173.4680  147.8110 C.ar      1 ATP1001     0.0000 
     27 N6        154.7600  173.7760  146.7140 N.pl3     1 ATP1001     0.0000 
     28 N1        156.1070  174.3830  148.5810 N.ar      1 ATP1001     0.0000 
     29 C2        156.8100  174.0040  149.6700 C.ar      1 ATP1001     0.0000 
     30 N3        156.9700  172.7320  150.0900 N.ar      1 ATP1001     0.0000 
     31 C4        156.4040  171.7150  149.4030 C.ar      1 ATP1001     0.0000 
@<TRIPOS>BOND
     1    1    3 ar   
     2    1    4 ar   
     3    1    8 1    
     4    5    6 ar   
     5    5    7 ar   
     6    5    8 1    
     7    5   12 1    
     8    9   10 ar   
     9    9   11 ar   
    10    9   12 1    
    11    9   13 1    
    12   13   14 1    
    13   14   15 1    
    14   15   16 1    
    15   15   17 1    
    16   16   21 1    
    17   17   18 1    
    18   17   19 1    
    19   19   20 1    
    20   19   21 1    
    21   21   22 1    
    22   22   23 1    
    23   22   31 1    
    24   23   24 2    
    25   24   25 1    
    26   25   26 ar   
    27   25   31 ar   
    28   26   27 1    
    29   26   28 ar   
    30   28   29 ar   
    31   29   30 ar   
    32   30   31 ar   
@<TRIPOS>SUBSTRUCTURE
     1 ATP1001     1 GROUP   
@<TRIPOS>SET
ATOM$ORANGE STATIC     ATOMS   COLORGROUP SYSTEM 
20 14 14 15 15 17 17 19 19 21 21 23 23 25 25 26 26 29 \
29 31 31 

