#    Name: 6n8t_11_ATP
#    Modification time : Fri May 22 19:28:58 2020

@<TRIPOS>MOLECULE
6n8t_11_ATP
   31    32     1     0     1
SMALL
NO_CHARGES


@<TRIPOS>ATOM
      1 PG        118.4310  165.1840  146.1260 P.3       1 ATP1001     0.0000 
      2 O1G       120.0580  166.3420  146.6140 Du        1 ATP1001     0.0000 
      3 O2G       117.1390  165.4640  147.0530 O.co2     1 ATP1001     0.0000 
      4 O3G       118.7090  163.7360  146.0170 O.co2     1 ATP1001     0.0000 
      5 PB        117.0630  166.6160  144.3290 P.3       1 ATP1001     0.0000 
      6 O1B       116.1340  166.6170  145.5120 O.co2     1 ATP1001     0.0000 
      7 O2B       116.6210  166.2270  142.9720 O.co2     1 ATP1001     0.0000 
      8 O3B       118.3260  165.7300  144.6410 O.3       1 ATP1001     0.0000 
      9 PA        116.8440  169.0470  145.0940 P.3       1 ATP1001     0.0000 
     10 O1A       117.6140  168.9070  146.3870 O.co2     1 ATP1001     0.0000 
     11 O2A       115.3540  168.7600  144.9940 O.co2     1 ATP1001     0.0000 
     12 O3A       117.5910  168.0760  144.1210 O.3       1 ATP1001     0.0000 
     13 O5'       117.1530  170.4200  144.3310 O.3       1 ATP1001     0.0000 
     14 C5'       118.3510  170.7570  143.6240 C.3       1 ATP1001     0.0000 
     15 C4'       118.5660  172.2470  143.9150 C.3       1 ATP1001     0.0000 
     16 O4'       118.0870  173.1370  142.9030 O.3       1 ATP1001     0.0000 
     17 C3'       117.8280  172.6240  145.1780 C.3       1 ATP1001     0.0000 
     18 O3'       118.7650  173.3450  145.9960 O.3       1 ATP1001     0.0000 
     19 C2'       116.6190  173.4220  144.7290 C.3       1 ATP1001     0.0000 
     20 O2'       116.3320  174.5250  145.5750 O.3       1 ATP1001     0.0000 
     21 C1'       117.0530  173.9920  143.4090 C.3       1 ATP1001     0.0000 
     22 N9        115.9630  173.9770  142.4210 N.pl3     1 ATP1001     0.0000 
     23 C8        115.7810  172.9370  141.5970 C.2       1 ATP1001     0.0000 
     24 N7        114.7390  173.1300  140.7760 N.2       1 ATP1001     0.0000 
     25 C5        114.2260  174.3200  141.0740 C.ar      1 ATP1001     0.0000 
     26 C6        113.1120  175.0730  140.5180 C.ar      1 ATP1001     0.0000 
     27 N6        112.4360  174.4830  139.5320 N.pl3     1 ATP1001     0.0000 
     28 N1        112.8470  176.2810  141.0450 N.ar      1 ATP1001     0.0000 
     29 C2        113.6110  176.7620  142.0600 C.ar      1 ATP1001     0.0000 
     30 N3        114.6590  176.1170  142.6160 N.ar      1 ATP1001     0.0000 
     31 C4        115.0210  174.8970  142.1640 C.ar      1 ATP1001     0.0000 
@<TRIPOS>BOND
     1    1    3 ar   
     2    1    4 ar   
     3    1    8 1    
     4    5    6 ar   
     5    5    7 ar   
     6    5    8 1    
     7    5   12 1    
     8    9   10 ar   
     9    9   11 ar   
    10    9   12 1    
    11    9   13 1    
    12   13   14 1    
    13   14   15 1    
    14   15   16 1    
    15   15   17 1    
    16   16   21 1    
    17   17   18 1    
    18   17   19 1    
    19   19   20 1    
    20   19   21 1    
    21   21   22 1    
    22   22   23 1    
    23   22   31 1    
    24   23   24 2    
    25   24   25 1    
    26   25   26 ar   
    27   25   31 ar   
    28   26   27 1    
    29   26   28 ar   
    30   28   29 ar   
    31   29   30 ar   
    32   30   31 ar   
@<TRIPOS>SUBSTRUCTURE
     1 ATP1001     1 GROUP   
@<TRIPOS>SET
ATOM$ORANGE STATIC     ATOMS   COLORGROUP SYSTEM 
20 14 14 15 15 17 17 19 19 21 21 23 23 25 25 26 26 29 \
29 31 31 

