#    Name: 6n8t_10_ATP
#    Modification time : Fri May 22 19:28:29 2020

@<TRIPOS>MOLECULE
6n8t_10_ATP
   31    32     1     0     1
SMALL
NO_CHARGES


@<TRIPOS>ATOM
      1 PG        165.3870  133.1630  115.7590 P.3       1 ATP1002     0.0000 
      2 O1G       164.0720  132.1680  116.9900 Du        1 ATP1002     0.0000 
      3 O2G       165.1510  134.7600  115.7430 O.co2     1 ATP1002     0.0000 
      4 O3G       165.4290  132.6530  114.3700 O.co2     1 ATP1002     0.0000 
      5 PB        167.9970  133.1830  115.7970 P.3       1 ATP1002     0.0000 
      6 O1B       168.2210  134.5900  116.2390 O.co2     1 ATP1002     0.0000 
      7 O2B       168.0850  132.7000  114.3880 O.co2     1 ATP1002     0.0000 
      8 O3B       166.6950  132.6850  116.5020 O.3       1 ATP1002     0.0000 
      9 PA        170.4120  133.1700  116.2210 P.3       1 ATP1002     0.0000 
     10 O1A       170.3090  134.4410  117.0460 O.co2     1 ATP1002     0.0000 
     11 O2A       170.5950  133.2730  114.7320 O.co2     1 ATP1002     0.0000 
     12 O3A       169.0930  132.4200  116.5390 O.3       1 ATP1002     0.0000 
     13 O5'       171.3360  132.0030  116.7800 O.3       1 ATP1002     0.0000 
     14 C5'       171.7140  131.8100  118.1370 C.3       1 ATP1002     0.0000 
     15 C4'       172.9230  130.9100  117.9680 C.3       1 ATP1002     0.0000 
     16 O4'       173.6060  131.1090  116.7340 O.3       1 ATP1002     0.0000 
     17 C3'       173.9070  131.1790  119.0730 C.3       1 ATP1002     0.0000 
     18 O3'       174.0710  129.9310  119.7630 O.3       1 ATP1002     0.0000 
     19 C2'       175.1530  131.7310  118.4160 C.3       1 ATP1002     0.0000 
     20 O2'       176.3290  131.0970  118.8620 O.3       1 ATP1002     0.0000 
     21 C1'       175.0000  131.3560  116.9680 C.3       1 ATP1002     0.0000 
     22 N9        175.4540  132.4220  116.0470 N.pl3     1 ATP1002     0.0000 
     23 C8        174.9820  132.5170  114.8100 C.2       1 ATP1002     0.0000 
     24 N7        175.5320  133.5330  114.1210 N.2       1 ATP1002     0.0000 
     25 C5        176.3880  134.1260  114.9260 C.ar      1 ATP1002     0.0000 
     26 C6        177.2700  135.2820  114.7540 C.ar      1 ATP1002     0.0000 
     27 N6        177.2830  135.9190  113.5630 N.pl3     1 ATP1002     0.0000 
     28 N1        178.0200  135.6130  115.8190 N.ar      1 ATP1002     0.0000 
     29 C2        177.9450  134.9140  116.9810 C.ar      1 ATP1002     0.0000 
     30 N3        177.1540  133.8480  117.1930 N.ar      1 ATP1002     0.0000 
     31 C4        176.3570  133.3970  116.2120 C.ar      1 ATP1002     0.0000 
@<TRIPOS>BOND
     1    1    3 ar   
     2    1    4 ar   
     3    1    8 1    
     4    5    6 ar   
     5    5    7 ar   
     6    5    8 1    
     7    5   12 1    
     8    9   10 ar   
     9    9   11 ar   
    10    9   12 1    
    11    9   13 1    
    12   13   14 1    
    13   14   15 1    
    14   15   16 1    
    15   15   17 1    
    16   16   21 1    
    17   17   18 1    
    18   17   19 1    
    19   19   20 1    
    20   19   21 1    
    21   21   22 1    
    22   22   23 1    
    23   22   31 1    
    24   23   24 2    
    25   24   25 1    
    26   25   26 ar   
    27   25   31 ar   
    28   26   27 1    
    29   26   28 ar   
    30   28   29 ar   
    31   29   30 ar   
    32   30   31 ar   
@<TRIPOS>SUBSTRUCTURE
     1 ATP1002     1 GROUP   
@<TRIPOS>SET
ATOM$ORANGE STATIC     ATOMS   COLORGROUP SYSTEM 
20 14 14 15 15 17 17 19 19 21 21 23 23 25 25 26 26 29 \
29 31 31 

