#    Name: 6n8t_3_ATP
#    Modification time : Fri May 22 19:26:16 2020

@<TRIPOS>MOLECULE
6n8t_3_ATP
   31    32     1     0     1
SMALL
NO_CHARGES


@<TRIPOS>ATOM
      1 PG        116.9090  113.2290  142.5630 P.3       1 ATP1001     0.0000 
      2 O1G       115.1810  113.3290  141.4420 Du        1 ATP1001     0.0000 
      3 O2G       116.6590  112.7520  144.0850 O.co2     1 ATP1001     0.0000 
      4 O3G       117.7690  114.4300  142.5140 O.co2     1 ATP1001     0.0000 
      5 PB        117.6870  110.7820  142.4580 P.3       1 ATP1001     0.0000 
      6 O1B       117.9600  111.0800  143.9120 O.co2     1 ATP1001     0.0000 
      7 O2B       118.5250  109.8170  141.6810 O.co2     1 ATP1001     0.0000 
      8 O3B       117.6070  112.1270  141.6750 O.3       1 ATP1001     0.0000 
      9 PA        115.6950  110.0400  143.8310 P.3       1 ATP1001     0.0000 
     10 O1A       115.2820  111.4130  144.2980 O.co2     1 ATP1001     0.0000 
     11 O2A       116.7130  109.2090  144.5680 O.co2     1 ATP1001     0.0000 
     12 O3A       116.2140  110.2960  142.3840 O.3       1 ATP1001     0.0000 
     13 O5'       114.4590  109.1190  143.4250 O.3       1 ATP1001     0.0000 
     14 C5'       113.9460  109.0090  142.1030 C.3       1 ATP1001     0.0000 
     15 C4'       112.4570  109.2640  142.2700 C.3       1 ATP1001     0.0000 
     16 O4'       111.6480  108.1140  142.1250 O.3       1 ATP1001     0.0000 
     17 C3'       112.1660  109.7780  143.6420 C.3       1 ATP1001     0.0000 
     18 O3'       111.0810  110.7010  143.4540 O.3       1 ATP1001     0.0000 
     19 C2'       111.8650  108.5350  144.4590 C.3       1 ATP1001     0.0000 
     20 O2'       110.7850  108.7200  145.3650 O.3       1 ATP1001     0.0000 
     21 C1'       111.4010  107.5480  143.4150 C.3       1 ATP1001     0.0000 
     22 N9        112.1660  106.3010  143.4550 N.pl3     1 ATP1001     0.0000 
     23 C8        113.2970  106.1030  142.7590 C.2       1 ATP1001     0.0000 
     24 N7        113.7960  104.8710  142.9690 N.2       1 ATP1001     0.0000 
     25 C5        112.9520  104.2540  143.7840 C.ar      1 ATP1001     0.0000 
     26 C6        112.9410  102.9210  144.3580 C.ar      1 ATP1001     0.0000 
     27 N6        113.9530  102.1080  144.0400 N.pl3     1 ATP1001     0.0000 
     28 N1        111.9110  102.6120  145.1620 N.ar      1 ATP1001     0.0000 
     29 C2        110.9490  103.5190  145.4400 C.ar      1 ATP1001     0.0000 
     30 N3        110.9060  104.7630  144.9420 N.ar      1 ATP1001     0.0000 
     31 C4        111.8740  105.1910  144.1190 C.ar      1 ATP1001     0.0000 
@<TRIPOS>BOND
     1    1    3 ar   
     2    1    4 ar   
     3    1    8 1    
     4    5    6 ar   
     5    5    7 ar   
     6    5    8 1    
     7    5   12 1    
     8    9   10 ar   
     9    9   11 ar   
    10    9   12 1    
    11    9   13 1    
    12   13   14 1    
    13   14   15 1    
    14   15   16 1    
    15   15   17 1    
    16   16   21 1    
    17   17   18 1    
    18   17   19 1    
    19   19   20 1    
    20   19   21 1    
    21   21   22 1    
    22   22   23 1    
    23   22   31 1    
    24   23   24 2    
    25   24   25 1    
    26   25   26 ar   
    27   25   31 ar   
    28   26   27 1    
    29   26   28 ar   
    30   28   29 ar   
    31   29   30 ar   
    32   30   31 ar   
@<TRIPOS>SUBSTRUCTURE
     1 ATP1001     1 GROUP   
@<TRIPOS>SET
ATOM$ORANGE STATIC     ATOMS   COLORGROUP SYSTEM 
20 14 14 15 15 17 17 19 19 21 21 23 23 25 25 26 26 29 \
29 31 31 

