#    Name: 6n8t_5_ATP
#    Modification time : Fri May 22 19:26:49 2020

@<TRIPOS>MOLECULE
6n8t_5_ATP
   31    32     1     0     1
SMALL
NO_CHARGES


@<TRIPOS>ATOM
      1 PG        146.3290  111.0710  150.9510 P.3       1 ATP1001     0.0000 
      2 O1G       144.8900  110.5010  149.5840 Du        1 ATP1001     0.0000 
      3 O2G       146.2780  110.2300  152.3300 O.co2     1 ATP1001     0.0000 
      4 O3G       146.3870  112.5170  151.2380 O.co2     1 ATP1001     0.0000 
      5 PB        148.7250  110.0870  150.8990 P.3       1 ATP1001     0.0000 
      6 O1B       148.6540  110.7420  152.2460 O.co2     1 ATP1001     0.0000 
      7 O2B       149.9890  110.0250  150.0890 O.co2     1 ATP1001     0.0000 
      8 O3B       147.5810  110.7220  150.0460 O.3       1 ATP1001     0.0000 
      9 PA        148.5150  108.1720  152.5090 P.3       1 ATP1001     0.0000 
     10 O1A       147.6430  109.1140  153.2950 O.co2     1 ATP1001     0.0000 
     11 O2A       149.9890  108.1500  152.7570 O.co2     1 ATP1001     0.0000 
     12 O3A       148.2370  108.6290  151.0560 O.3       1 ATP1001     0.0000 
     13 O5'       147.9470  106.6930  152.3540 O.3       1 ATP1001     0.0000 
     14 C5'       148.7360  105.5100  152.2850 C.3       1 ATP1001     0.0000 
     15 C4'       147.8080  104.4500  152.8470 C.3       1 ATP1001     0.0000 
     16 O4'       148.3200  103.1340  152.7760 O.3       1 ATP1001     0.0000 
     17 C3'       147.5900  104.7220  154.3110 C.3       1 ATP1001     0.0000 
     18 O3'       146.1870  104.5120  154.5390 O.3       1 ATP1001     0.0000 
     19 C2'       148.5090  103.7770  155.0560 C.3       1 ATP1001     0.0000 
     20 O2'       147.8620  103.1580  156.1520 O.3       1 ATP1001     0.0000 
     21 C1'       148.8040  102.6930  154.0560 C.3       1 ATP1001     0.0000 
     22 N9        150.2450  102.4720  153.9070 N.pl3     1 ATP1001     0.0000 
     23 C8        151.0550  101.9870  154.8640 C.2       1 ATP1001     0.0000 
     24 N7        152.3220  101.9010  154.4240 N.2       1 ATP1001     0.0000 
     25 C5        152.3510  102.3540  153.1720 C.ar      1 ATP1001     0.0000 
     26 C6        153.3970  102.4940  152.1480 C.ar      1 ATP1001     0.0000 
     27 N6        154.6730  102.1600  152.4190 N.pl3     1 ATP1001     0.0000 
     28 N1        153.0170  103.0080  150.9590 N.ar      1 ATP1001     0.0000 
     29 C2        151.7350  103.3470  150.7150 C.ar      1 ATP1001     0.0000 
     30 N3        150.7290  103.2200  151.5950 N.ar      1 ATP1001     0.0000 
     31 C4        150.9730  102.7270  152.8250 C.ar      1 ATP1001     0.0000 
@<TRIPOS>BOND
     1    1    3 ar   
     2    1    4 ar   
     3    1    8 1    
     4    5    6 ar   
     5    5    7 ar   
     6    5    8 1    
     7    5   12 1    
     8    9   10 ar   
     9    9   11 ar   
    10    9   12 1    
    11    9   13 1    
    12   13   14 1    
    13   14   15 1    
    14   15   16 1    
    15   15   17 1    
    16   16   21 1    
    17   17   18 1    
    18   17   19 1    
    19   19   20 1    
    20   19   21 1    
    21   21   22 1    
    22   22   23 1    
    23   22   31 1    
    24   23   24 2    
    25   24   25 1    
    26   25   26 ar   
    27   25   31 ar   
    28   26   27 1    
    29   26   28 ar   
    30   28   29 ar   
    31   29   30 ar   
    32   30   31 ar   
@<TRIPOS>SUBSTRUCTURE
     1 ATP1001     1 GROUP   
@<TRIPOS>SET
ATOM$ORANGE STATIC     ATOMS   COLORGROUP SYSTEM 
20 14 14 15 15 17 17 19 19 21 21 23 23 25 25 26 26 29 \
29 31 31 

