#    Name: 6n8t_4_ATP
#    Modification time : Fri May 22 19:26:26 2020

@<TRIPOS>MOLECULE
6n8t_4_ATP
   31    32     1     0     1
SMALL
NO_CHARGES


@<TRIPOS>ATOM
      1 PG        108.7110  123.4370   97.6150 P.3       1 ATP1002     0.0000 
      2 O1G       109.4010  122.6510   99.3940 Du        1 ATP1002     0.0000 
      3 O2G       109.0980  122.5320   96.3230 O.co2     1 ATP1002     0.0000 
      4 O3G       109.0650  124.8540   97.3720 O.co2     1 ATP1002     0.0000 
      5 PB        106.3760  122.6110   96.8640 P.3       1 ATP1002     0.0000 
      6 O1B       105.9660  121.3060   97.4770 O.co2     1 ATP1002     0.0000 
      7 O2B       107.0900  122.6920   95.5820 O.co2     1 ATP1002     0.0000 
      8 O3B       107.1630  123.3910   97.9720 O.3       1 ATP1002     0.0000 
      9 PA        103.8560  122.9390   97.4310 P.3       1 ATP1002     0.0000 
     10 O1A       103.9390  123.7590   98.6980 O.co2     1 ATP1002     0.0000 
     11 O2A       103.7870  121.4410   97.5070 O.co2     1 ATP1002     0.0000 
     12 O3A       105.0860  123.4410   96.5850 O.3       1 ATP1002     0.0000 
     13 O5'       102.6740  123.4220   96.4720 O.3       1 ATP1002     0.0000 
     14 C5'       101.4700  123.9610   97.0230 C.3       1 ATP1002     0.0000 
     15 C4'       100.8690  124.8430   95.9460 C.3       1 ATP1002     0.0000 
     16 O4'       100.9680  124.3320   94.6190 O.3       1 ATP1002     0.0000 
     17 C3'        99.3930  124.9240   96.2440 C.3       1 ATP1002     0.0000 
     18 O3'        99.1820  125.9520   97.2290 O.3       1 ATP1002     0.0000 
     19 C2'        98.7480  125.1160   94.8930 C.3       1 ATP1002     0.0000 
     20 O2'        98.7720  126.4660   94.4650 O.3       1 ATP1002     0.0000 
     21 C1'        99.6670  124.3330   93.9900 C.3       1 ATP1002     0.0000 
     22 N9         99.2030  122.9270   93.8570 N.pl3     1 ATP1002     0.0000 
     23 C8         99.5480  122.1280   92.8410 C.2       1 ATP1002     0.0000 
     24 N7         99.0210  120.8990   92.9510 N.2       1 ATP1002     0.0000 
     25 C5         98.3480  120.8610   94.0920 C.ar      1 ATP1002     0.0000 
     26 C6         97.5460  119.8230   94.7520 C.ar      1 ATP1002     0.0000 
     27 N6         97.5090  118.5940   94.1940 N.pl3     1 ATP1002     0.0000 
     28 N1         96.9600  120.1710   95.9090 N.ar      1 ATP1002     0.0000 
     29 C2         97.0800  121.4230   96.4090 C.ar      1 ATP1002     0.0000 
     30 N3         97.7860  122.4230   95.8420 N.ar      1 ATP1002     0.0000 
     31 C4         98.4410  122.2090   94.6910 C.ar      1 ATP1002     0.0000 
@<TRIPOS>BOND
     1    1    3 ar   
     2    1    4 ar   
     3    1    8 1    
     4    5    6 ar   
     5    5    7 ar   
     6    5    8 1    
     7    5   12 1    
     8    9   10 ar   
     9    9   11 ar   
    10    9   12 1    
    11    9   13 1    
    12   13   14 1    
    13   14   15 1    
    14   15   16 1    
    15   15   17 1    
    16   16   21 1    
    17   17   18 1    
    18   17   19 1    
    19   19   20 1    
    20   19   21 1    
    21   21   22 1    
    22   22   23 1    
    23   22   31 1    
    24   23   24 2    
    25   24   25 1    
    26   25   26 ar   
    27   25   31 ar   
    28   26   27 1    
    29   26   28 ar   
    30   28   29 ar   
    31   29   30 ar   
    32   30   31 ar   
@<TRIPOS>SUBSTRUCTURE
     1 ATP1002     1 GROUP   
@<TRIPOS>SET
ATOM$ORANGE STATIC     ATOMS   COLORGROUP SYSTEM 
20 14 14 15 15 17 17 19 19 21 21 23 23 25 25 26 26 29 \
29 31 31 

