#    Name: 6n8t_2_ATP
#    Modification time : Fri May 22 19:25:49 2020

@<TRIPOS>MOLECULE
6n8t_2_ATP
   31    32     1     0     1
SMALL
NO_CHARGES


@<TRIPOS>ATOM
      1 PG        122.4560  158.7160   97.5660 P.3       1 ATP1002     0.0000 
      2 O1G       122.1390  160.5300   96.6430 Du        1 ATP1002     0.0000 
      3 O2G       121.8370  158.6640   99.0650 O.co2     1 ATP1002     0.0000 
      4 O3G       123.8720  158.2780   97.5840 O.co2     1 ATP1002     0.0000 
      5 PB        120.1200  157.8250   96.5060 P.3       1 ATP1002     0.0000 
      6 O1B       119.7370  157.1270   97.7860 O.co2     1 ATP1002     0.0000 
      7 O2B       119.6410  157.3990   95.1530 O.co2     1 ATP1002     0.0000 
      8 O3B       121.7020  157.8300   96.4720 O.3       1 ATP1002     0.0000 
      9 PA        118.1370  159.3200   97.0440 P.3       1 ATP1002     0.0000 
     10 O1A       118.1700  158.3960   98.2310 O.co2     1 ATP1002     0.0000 
     11 O2A       117.2570  159.0490   95.8450 O.co2     1 ATP1002     0.0000 
     12 O3A       119.6620  159.3180   96.6460 O.3       1 ATP1002     0.0000 
     13 O5'       117.9870  160.8390   97.5180 O.3       1 ATP1002     0.0000 
     14 C5'       117.7610  161.9440   96.6650 C.3       1 ATP1002     0.0000 
     15 C4'       117.9350  163.1720   97.5310 C.3       1 ATP1002     0.0000 
     16 O4'       117.4880  164.3320   96.8520 O.3       1 ATP1002     0.0000 
     17 C3'       117.1050  163.0710   98.7850 C.3       1 ATP1002     0.0000 
     18 O3'       117.9260  163.5420   99.8710 O.3       1 ATP1002     0.0000 
     19 C2'       115.8450  163.8740   98.5030 C.3       1 ATP1002     0.0000 
     20 O2'       115.4650  164.7930   99.5180 O.3       1 ATP1002     0.0000 
     21 C1'       116.1840  164.7130   97.3180 C.3       1 ATP1002     0.0000 
     22 N9        115.1510  164.4950   96.2980 N.pl3     1 ATP1002     0.0000 
     23 C8        115.4040  164.3330   94.9950 C.2       1 ATP1002     0.0000 
     24 N7        114.2690  164.1650   94.2880 N.2       1 ATP1002     0.0000 
     25 C5        113.2530  164.2180   95.1470 C.ar      1 ATP1002     0.0000 
     26 C6        111.7990  164.0930   95.0100 C.ar      1 ATP1002     0.0000 
     27 N6        111.3110  163.9050   93.7640 N.pl3     1 ATP1002     0.0000 
     28 N1        111.0530  164.1990   96.1470 N.ar      1 ATP1002     0.0000 
     29 C2        111.6420  164.3930   97.3480 C.ar      1 ATP1002     0.0000 
     30 N3        112.9740  164.4930   97.5420 N.ar      1 ATP1002     0.0000 
     31 C4        113.8270  164.4190   96.4860 C.ar      1 ATP1002     0.0000 
@<TRIPOS>BOND
     1    1    3 ar   
     2    1    4 ar   
     3    1    8 1    
     4    5    6 ar   
     5    5    7 ar   
     6    5    8 1    
     7    5   12 1    
     8    9   10 ar   
     9    9   11 ar   
    10    9   12 1    
    11    9   13 1    
    12   13   14 1    
    13   14   15 1    
    14   15   16 1    
    15   15   17 1    
    16   16   21 1    
    17   17   18 1    
    18   17   19 1    
    19   19   20 1    
    20   19   21 1    
    21   21   22 1    
    22   22   23 1    
    23   22   31 1    
    24   23   24 2    
    25   24   25 1    
    26   25   26 ar   
    27   25   31 ar   
    28   26   27 1    
    29   26   28 ar   
    30   28   29 ar   
    31   29   30 ar   
    32   30   31 ar   
@<TRIPOS>SUBSTRUCTURE
     1 ATP1002     1 GROUP   
@<TRIPOS>SET
ATOM$ORANGE STATIC     ATOMS   COLORGROUP SYSTEM 
20 14 14 15 15 17 17 19 19 21 21 23 23 25 25 26 26 29 \
29 31 31 

