#    Name: 6n8t_7_ATP
#    Modification time : Fri May 22 19:27:31 2020

@<TRIPOS>MOLECULE
6n8t_7_ATP
   31    32     1     0     1
SMALL
NO_CHARGES


@<TRIPOS>ATOM
      1 PG        162.1070  137.3400  152.0970 P.3       1 ATP1001     0.0000 
      2 O1G       160.5630  136.2840  152.9530 Du        1 ATP1001     0.0000 
      3 O2G       162.0320  138.9260  152.3990 O.co2     1 ATP1001     0.0000 
      4 O3G       162.2670  137.1210  150.6420 O.co2     1 ATP1001     0.0000 
      5 PB        164.6830  137.0380  152.3920 P.3       1 ATP1001     0.0000 
      6 O1B       164.9880  138.2900  153.1440 O.co2     1 ATP1001     0.0000 
      7 O2B       164.8930  136.8420  150.9280 O.co2     1 ATP1001     0.0000 
      8 O3B       163.2640  136.5690  152.8450 O.3       1 ATP1001     0.0000 
      9 PA        167.0170  136.6490  153.0380 P.3       1 ATP1001     0.0000 
     10 O1A       166.9400  137.7310  154.0990 O.co2     1 ATP1001     0.0000 
     11 O2A       167.3860  137.0260  151.6300 O.co2     1 ATP1001     0.0000 
     12 O3A       165.6020  136.0140  153.0580 O.3       1 ATP1001     0.0000 
     13 O5'       167.7490  135.2890  153.4220 O.3       1 ATP1001     0.0000 
     14 C5'       167.9390  134.7830  154.7360 C.3       1 ATP1001     0.0000 
     15 C4'       169.0670  133.7970  154.4960 C.3       1 ATP1001     0.0000 
     16 O4'       169.9080  134.1570  153.4070 O.3       1 ATP1001     0.0000 
     17 C3'       169.9310  133.7170  155.7250 C.3       1 ATP1001     0.0000 
     18 O3'       169.8880  132.3450  156.1450 O.3       1 ATP1001     0.0000 
     19 C2'       171.2950  134.2360  155.3250 C.3       1 ATP1001     0.0000 
     20 O2'       172.3420  133.3880  155.7380 O.3       1 ATP1001     0.0000 
     21 C1'       171.2810  134.1810  153.8230 C.3       1 ATP1001     0.0000 
     22 N9        171.9450  135.3480  153.1990 N.pl3     1 ATP1001     0.0000 
     23 C8        171.6360  135.7470  151.9710 C.2       1 ATP1001     0.0000 
     24 N7        172.3630  136.8070  151.5720 N.2       1 ATP1001     0.0000 
     25 C5        173.1700  137.1180  152.5640 C.ar      1 ATP1001     0.0000 
     26 C6        174.1740  138.1690  152.7300 C.ar      1 ATP1001     0.0000 
     27 N6        174.3920  139.0270  151.7090 N.pl3     1 ATP1001     0.0000 
     28 N1        174.8190  138.1860  153.9090 N.ar      1 ATP1001     0.0000 
     29 C2        174.5370  137.2830  154.8810 C.ar      1 ATP1001     0.0000 
     30 N3        173.6270  136.2980  154.7840 N.ar      1 ATP1001     0.0000 
     31 C4        172.9130  136.1530  153.6540 C.ar      1 ATP1001     0.0000 
@<TRIPOS>BOND
     1    1    3 ar   
     2    1    4 ar   
     3    1    8 1    
     4    5    6 ar   
     5    5    7 ar   
     6    5    8 1    
     7    5   12 1    
     8    9   10 ar   
     9    9   11 ar   
    10    9   12 1    
    11    9   13 1    
    12   13   14 1    
    13   14   15 1    
    14   15   16 1    
    15   15   17 1    
    16   16   21 1    
    17   17   18 1    
    18   17   19 1    
    19   19   20 1    
    20   19   21 1    
    21   21   22 1    
    22   22   23 1    
    23   22   31 1    
    24   23   24 2    
    25   24   25 1    
    26   25   26 ar   
    27   25   31 ar   
    28   26   27 1    
    29   26   28 ar   
    30   28   29 ar   
    31   29   30 ar   
    32   30   31 ar   
@<TRIPOS>SUBSTRUCTURE
     1 ATP1001     1 GROUP   
@<TRIPOS>SET
ATOM$ORANGE STATIC     ATOMS   COLORGROUP SYSTEM 
20 14 14 15 15 17 17 19 19 21 21 23 23 25 25 26 26 29 \
29 31 31 

