#    Name: 6n8t_6_ATP
#    Modification time : Fri May 22 19:27:10 2020

@<TRIPOS>MOLECULE
6n8t_6_ATP
   31    32     1     0     1
SMALL
NO_CHARGES


@<TRIPOS>ATOM
      1 PG        124.4830  101.0250  107.9530 P.3       1 ATP1002     0.0000 
      2 O1G       123.3330  101.9610  106.5210 Du        1 ATP1002     0.0000 
      3 O2G       124.0960  101.4940  109.4550 O.co2     1 ATP1002     0.0000 
      4 O3G       125.9460  101.1140  107.7520 O.co2     1 ATP1002     0.0000 
      5 PB        124.2560   98.5990  108.8300 P.3       1 ATP1002     0.0000 
      6 O1B       125.2490   99.2930  109.7280 O.co2     1 ATP1002     0.0000 
      7 O2B       124.4680   97.1920  108.3630 O.co2     1 ATP1002     0.0000 
      8 O3B       124.0670   99.5350  107.5880 O.3       1 ATP1002     0.0000 
      9 PA        122.6450   97.6770  110.6690 P.3       1 ATP1002     0.0000 
     10 O1A       122.0840   98.5410  111.7750 O.co2     1 ATP1002     0.0000 
     11 O2A       123.9060   96.8570  110.8630 O.co2     1 ATP1002     0.0000 
     12 O3A       122.8410   98.6900  109.4970 O.3       1 ATP1002     0.0000 
     13 O5'       121.5150   96.7920  109.9600 O.3       1 ATP1002     0.0000 
     14 C5'       120.8580   95.6970  110.5890 C.3       1 ATP1002     0.0000 
     15 C4'       119.4020   95.7740  110.1690 C.3       1 ATP1002     0.0000 
     16 O4'       119.0180   94.8010  109.2090 O.3       1 ATP1002     0.0000 
     17 C3'       118.6100   95.4580  111.4110 C.3       1 ATP1002     0.0000 
     18 O3'       117.4820   96.3430  111.4360 O.3       1 ATP1002     0.0000 
     19 C2'       118.2920   93.9800  111.3280 C.3       1 ATP1002     0.0000 
     20 O2'       116.9220   93.7060  111.5580 O.3       1 ATP1002     0.0000 
     21 C1'       118.5960   93.6050  109.8920 C.3       1 ATP1002     0.0000 
     22 N9        119.7240   92.6590  109.8920 N.pl3     1 ATP1002     0.0000 
     23 C8        120.8330   92.8500  109.1590 C.2       1 ATP1002     0.0000 
     24 N7        121.7160   91.8540  109.3320 N.2       1 ATP1002     0.0000 
     25 C5        121.1800   91.0030  110.1910 C.ar      1 ATP1002     0.0000 
     26 C6        121.6700   89.7590  110.7670 C.ar      1 ATP1002     0.0000 
     27 N6        122.8960   89.3690  110.3950 N.pl3     1 ATP1002     0.0000 
     28 N1        120.8550   89.1070  111.6250 N.ar      1 ATP1002     0.0000 
     29 C2        119.6350   89.6130  111.9310 C.ar      1 ATP1002     0.0000 
     30 N3        119.1360   90.7740  111.4500 N.ar      1 ATP1002     0.0000 
     31 C4        119.8530   91.5040  110.5640 C.ar      1 ATP1002     0.0000 
@<TRIPOS>BOND
     1    1    3 ar   
     2    1    4 ar   
     3    1    8 1    
     4    5    6 ar   
     5    5    7 ar   
     6    5    8 1    
     7    5   12 1    
     8    9   10 ar   
     9    9   11 ar   
    10    9   12 1    
    11    9   13 1    
    12   13   14 1    
    13   14   15 1    
    14   15   16 1    
    15   15   17 1    
    16   16   21 1    
    17   17   18 1    
    18   17   19 1    
    19   19   20 1    
    20   19   21 1    
    21   21   22 1    
    22   22   23 1    
    23   22   31 1    
    24   23   24 2    
    25   24   25 1    
    26   25   26 ar   
    27   25   31 ar   
    28   26   27 1    
    29   26   28 ar   
    30   28   29 ar   
    31   29   30 ar   
    32   30   31 ar   
@<TRIPOS>SUBSTRUCTURE
     1 ATP1002     1 GROUP   
@<TRIPOS>SET
ATOM$ORANGE STATIC     ATOMS   COLORGROUP SYSTEM 
20 14 14 15 15 17 17 19 19 21 21 23 23 25 25 26 26 29 \
29 31 31 

