#    Name: 5uti_1_GGB
#    Modification time : Fri May 22 19:18:51 2020

@<TRIPOS>MOLECULE
5uti_1_GGB
   12    11     1     0     0
SMALL
NO_CHARGES


@<TRIPOS>ATOM
      1 N          15.5680   13.3250   89.5200 N.4       1 GGB403      0.0000 
      2 CA         14.6120   13.7100   90.5770 C.3       1 GGB403      0.0000 
      3 CB         13.2680   13.0000   90.2600 C.3       1 GGB403      0.0000 
      4 CG         12.2180   13.3500   91.2850 C.3       1 GGB403      0.0000 
      5 C          15.0930   13.3400   92.0210 C.2       1 GGB403      0.0000 
      6 OD         12.2790   12.3420   92.3010 O.3       1 GGB403      0.0000 
      7 NE         11.1250   12.4270   93.1150 N.pl3     1 GGB403      0.0000 
      8 CZ         11.4170   12.8080   94.4940 C.cat     1 GGB403      0.0000 
      9 NH1        12.5650   13.3500   94.8700 N.pl3     1 GGB403      0.0000 
     10 NH2        10.4030   12.5810   95.4350 N.pl3     1 GGB403      0.0000 
     11 OA1        15.8760   12.2960   92.0160 O.co2     1 GGB403      0.0000 
     12 OA2        14.7730   13.9460   93.0340 O.co2     1 GGB403      0.0000 
@<TRIPOS>BOND
     1    1    2 1    
     2    2    3 1    
     3    2    5 1    
     4    3    4 1    
     5    4    6 1    
     6    5   11 ar   
     7    5   12 ar   
     8    6    7 1    
     9    7    8 ar   
    10    8    9 ar   
    11    8   10 ar   
@<TRIPOS>SUBSTRUCTURE
     1 GGB403      1 GROUP   
@<TRIPOS>SET

