#    Name: 5uti_1_GGB_CAVITY_N1_6
#    Modification time : Fri May 22 19:18:51 2020

@<TRIPOS>MOLECULE
5uti_1_GGB_CAVITY_N1_6
   42     0     6     0     0
SMALL
NO_CHARGES


@<TRIPOS>ATOM
      1 OG         12.5000   16.4200   86.1700 O.3       1 SER1        0.0000 
      2 O           8.3700   12.1900   88.5200 O.2       2 ALA2        0.0000 
      3 O           8.9300   13.3200   87.7200 O.2       2 ALA2        0.0000 
      4 O           9.4800   14.4600   86.9100 O.2       2 ALA2        0.0000 
      5 O           9.6300   13.8500   88.9300 O.2       2 ALA2        0.0000 
      6 N          13.4300   13.2400   90.7000 N.am      2 ALA2        0.0000 
      7 N          14.6400   12.4100   90.3700 N.am      2 ALA2        0.0000 
      8 N          15.2000   13.5400   89.5600 N.am      2 ALA2        0.0000 
      9 O          15.3400   12.9400   91.5900 O.2       2 ALA2        0.0000 
     10 N          13.0700   13.9900   94.2800 N.am      2 ALA2        0.0000 
     11 O          14.8300   14.2900   93.1400 O.2       2 ALA2        0.0000 
     12 NZ         10.1300   12.4900   87.3800 N.4       3 LYS4        0.0000 
     13 NZ         10.9700   12.4100   90.6300 N.4       3 LYS4        0.0000 
     14 NZ         11.6700   12.9400   91.8400 N.4       3 LYS4        0.0000 
     15 CZ         10.0400   15.5900   86.1000 C.ar      4 PHE5        0.0000 
     16 CZ         10.1800   14.9800   88.1200 C.ar      4 PHE5        0.0000 
     17 CZ         11.3900   14.1500   87.7900 C.ar      4 PHE5        0.0000 
     18 CZ         11.9400   15.2900   86.9800 C.ar      4 PHE5        0.0000 
     19 CZ         11.5300   13.5400   89.8200 C.ar      4 PHE5        0.0000 
     20 CZ         12.0900   14.6800   89.0100 C.ar      4 PHE5        0.0000 
     21 CZ         12.6400   15.8100   88.2000 C.ar      4 PHE5        0.0000 
     22 CZ         12.2300   14.0700   91.0400 C.ar      4 PHE5        0.0000 
     23 CZ         12.7900   15.2000   90.2300 C.ar      4 PHE5        0.0000 
     24 CZ         13.9900   14.3700   89.8900 C.ar      4 PHE5        0.0000 
     25 CZ         12.9300   14.6000   92.2500 C.ar      4 PHE5        0.0000 
     26 CA         11.8900   12.8000   86.2400 C.3       5 GLY6        0.0000 
     27 CA         12.4500   13.9300   85.4300 C.3       5 GLY6        0.0000 
     28 CA         12.0300   12.1900   88.2700 C.3       5 GLY6        0.0000 
     29 CA         12.5900   13.3200   87.4600 C.3       5 GLY6        0.0000 
     30 CA         12.7300   12.7100   89.4800 C.3       5 GLY6        0.0000 
     31 CA         13.2900   13.8500   88.6700 C.3       5 GLY6        0.0000 
     32 CA         12.8800   12.1100   91.5100 C.3       5 GLY6        0.0000 
     33 CA         11.8200   12.3300   93.8700 C.3       5 GLY6        0.0000 
     34 CA         12.3700   13.4600   93.0600 C.3       5 GLY6        0.0000 
     35 CA         13.5800   12.6300   92.7300 C.3       5 GLY6        0.0000 
     36 CA         14.7800   11.8000   92.4000 C.3       5 GLY6        0.0000 
     37 CA         14.6900   14.9000   91.1100 C.3       5 GLY6        0.0000 
     38 CA         14.2800   13.1600   93.9500 C.3       5 GLY6        0.0000 
     39 DU         10.6900   13.6300   86.5700 H         6 CUB7        0.0000 
     40 DU         11.2400   14.7600   85.7600 H         6 CUB7        0.0000 
     41 DU         10.8300   13.0200   88.6000 H         6 CUB7        0.0000 
     42 DU         14.1300   13.7700   91.9200 H         6 CUB7        0.0000 
@<TRIPOS>BOND
@<TRIPOS>SUBSTRUCTURE
     1 SER1        1 GROUP   
     2 ALA2        2 GROUP   
     3 LYS4       12 GROUP   
     4 PHE5       15 GROUP   
     5 GLY6       26 GROUP   
     6 CUB7       39 GROUP   
@<TRIPOS>SET

