#    Name: 5uti_1_GGB_CAVITY_N1_ALL
#    Modification time : Fri May 22 19:18:51 2020

@<TRIPOS>MOLECULE
5uti_1_GGB_CAVITY_N1_ALL
   87     0     7     0     0
SMALL
NO_CHARGES


@<TRIPOS>ATOM
      1 OG          5.6200   12.5700   84.3900 O.3       1 SER1        0.0000 
      2 OG          5.1200   13.9300   85.9500 O.3       1 SER1        0.0000 
      3 OG          6.3200   13.1000   85.6100 O.3       1 SER1        0.0000 
      4 OG          8.1900   18.3800   85.9500 O.3       1 SER1        0.0000 
      5 OG          8.8900   18.9100   87.1700 O.3       1 SER1        0.0000 
      6 OG         11.3000   17.2500   86.5000 O.3       1 SER1        0.0000 
      7 OG         12.5000   16.4200   86.1700 O.3       1 SER1        0.0000 
      8 N           5.7700   11.9700   86.4200 N.am      2 ALA2        0.0000 
      9 O           6.4700   12.4900   87.6400 O.2       2 ALA2        0.0000 
     10 O           7.6700   11.6600   87.3100 O.2       2 ALA2        0.0000 
     11 O           5.8200   14.4600   87.1600 O.2       2 ALA2        0.0000 
     12 O           7.0200   13.6300   86.8300 O.2       2 ALA2        0.0000 
     13 O           8.2300   12.8000   86.5000 O.2       2 ALA2        0.0000 
     14 O           6.3800   15.5900   86.3600 O.2       2 ALA2        0.0000 
     15 O           7.5800   14.7600   86.0200 O.2       2 ALA2        0.0000 
     16 O           8.3700   12.1900   88.5200 O.2       2 ALA2        0.0000 
     17 O           8.9300   13.3200   87.7200 O.2       2 ALA2        0.0000 
     18 O           9.4800   14.4600   86.9100 O.2       2 ALA2        0.0000 
     19 O           7.6300   17.2500   86.7600 O.2       2 ALA2        0.0000 
     20 O           8.8400   16.4200   86.4300 O.2       2 ALA2        0.0000 
     21 O           9.6300   13.8500   88.9300 O.2       2 ALA2        0.0000 
     22 N          13.4300   13.2400   90.7000 N.am      2 ALA2        0.0000 
     23 N          14.6400   12.4100   90.3700 N.am      2 ALA2        0.0000 
     24 N          15.2000   13.5400   89.5600 N.am      2 ALA2        0.0000 
     25 O          15.3400   12.9400   91.5900 O.2       2 ALA2        0.0000 
     26 N          13.0700   13.9900   94.2800 N.am      2 ALA2        0.0000 
     27 O          14.8300   14.2900   93.1400 O.2       2 ALA2        0.0000 
     28 OD1         4.9800   14.5400   83.9200 O.co2     3 ASP3        0.0000 
     29 OD1         4.3300   16.5000   83.4400 O.co2     3 ASP3        0.0000 
     30 OD1         6.2300   16.2000   84.3300 O.co2     3 ASP3        0.0000 
     31 OD1         7.4400   15.3700   83.9900 O.co2     3 ASP3        0.0000 
     32 OD1         6.7900   17.3300   83.5200 O.co2     3 ASP3        0.0000 
     33 OD1         7.9900   16.5000   83.1800 O.co2     3 ASP3        0.0000 
     34 OD1         9.2000   15.6700   82.8500 O.co2     3 ASP3        0.0000 
     35 NZ         10.1300   12.4900   87.3800 N.4       4 LYS4        0.0000 
     36 NZ         10.9700   12.4100   90.6300 N.4       4 LYS4        0.0000 
     37 NZ         11.6700   12.9400   91.8400 N.4       4 LYS4        0.0000 
     38 CZ          4.4700   15.8900   85.4700 C.ar      5 PHE5        0.0000 
     39 CZ          5.1700   16.4200   86.6900 C.ar      5 PHE5        0.0000 
     40 CZ         10.0400   15.5900   86.1000 C.ar      5 PHE5        0.0000 
     41 CZ         10.1800   14.9800   88.1200 C.ar      5 PHE5        0.0000 
     42 CZ         11.3900   14.1500   87.7900 C.ar      5 PHE5        0.0000 
     43 CZ         11.9400   15.2900   86.9800 C.ar      5 PHE5        0.0000 
     44 CZ         11.5300   13.5400   89.8200 C.ar      5 PHE5        0.0000 
     45 CZ         12.0900   14.6800   89.0100 C.ar      5 PHE5        0.0000 
     46 CZ         12.6400   15.8100   88.2000 C.ar      5 PHE5        0.0000 
     47 CZ         12.2300   14.0700   91.0400 C.ar      5 PHE5        0.0000 
     48 CZ         12.7900   15.2000   90.2300 C.ar      5 PHE5        0.0000 
     49 CZ         13.9900   14.3700   89.8900 C.ar      5 PHE5        0.0000 
     50 CZ         12.9300   14.6000   92.2500 C.ar      5 PHE5        0.0000 
     51 CA          6.1800   13.7100   83.5900 C.3       6 GLY6        0.0000 
     52 CA          6.9700   11.1400   86.0900 C.3       6 GLY6        0.0000 
     53 CA          7.5300   12.2700   85.2800 C.3       6 GLY6        0.0000 
     54 CA          6.8800   14.2300   84.8000 C.3       6 GLY6        0.0000 
     55 CA          8.0800   13.4000   84.4700 C.3       6 GLY6        0.0000 
     56 CA          3.8200   17.8600   85.0000 C.3       6 GLY6        0.0000 
     57 CA          5.0300   17.0300   84.6600 C.3       6 GLY6        0.0000 
     58 CA          8.6400   14.5400   83.6600 C.3       6 GLY6        0.0000 
     59 CA          5.7300   17.5500   85.8800 C.3       6 GLY6        0.0000 
     60 CA         10.5400   14.2300   84.5400 C.3       6 GLY6        0.0000 
     61 CA         11.7500   13.4000   84.2100 C.3       6 GLY6        0.0000 
     62 CA          6.2800   18.6900   85.0700 C.3       6 GLY6        0.0000 
     63 CA         11.8900   12.8000   86.2400 C.3       6 GLY6        0.0000 
     64 CA         12.4500   13.9300   85.4300 C.3       6 GLY6        0.0000 
     65 CA          6.9800   19.2100   86.2900 C.3       6 GLY6        0.0000 
     66 CA         12.0300   12.1900   88.2700 C.3       6 GLY6        0.0000 
     67 CA         12.5900   13.3200   87.4600 C.3       6 GLY6        0.0000 
     68 CA         12.7300   12.7100   89.4800 C.3       6 GLY6        0.0000 
     69 CA         13.2900   13.8500   88.6700 C.3       6 GLY6        0.0000 
     70 CA         12.8800   12.1100   91.5100 C.3       6 GLY6        0.0000 
     71 CA         11.8200   12.3300   93.8700 C.3       6 GLY6        0.0000 
     72 CA         12.3700   13.4600   93.0600 C.3       6 GLY6        0.0000 
     73 CA         13.5800   12.6300   92.7300 C.3       6 GLY6        0.0000 
     74 CA         14.7800   11.8000   92.4000 C.3       6 GLY6        0.0000 
     75 CA         14.6900   14.9000   91.1100 C.3       6 GLY6        0.0000 
     76 CA         14.2800   13.1600   93.9500 C.3       6 GLY6        0.0000 
     77 DU          5.6800   15.0600   85.1400 H         7 CUB7        0.0000 
     78 DU          8.7800   13.9300   85.6900 H         7 CUB7        0.0000 
     79 DU          6.9300   16.7200   85.5500 H         7 CUB7        0.0000 
     80 DU          8.1400   15.8900   85.2100 H         7 CUB7        0.0000 
     81 DU          9.3400   15.0600   84.8800 H         7 CUB7        0.0000 
     82 DU          7.4900   17.8600   84.7400 H         7 CUB7        0.0000 
     83 DU          8.6900   17.0300   84.4000 H         7 CUB7        0.0000 
     84 DU         10.6900   13.6300   86.5700 H         7 CUB7        0.0000 
     85 DU         11.2400   14.7600   85.7600 H         7 CUB7        0.0000 
     86 DU         10.8300   13.0200   88.6000 H         7 CUB7        0.0000 
     87 DU         14.1300   13.7700   91.9200 H         7 CUB7        0.0000 
@<TRIPOS>BOND
@<TRIPOS>SUBSTRUCTURE
     1 SER1        1 GROUP   
     2 ALA2        8 GROUP   
     3 ASP3       28 GROUP   
     4 LYS4       35 GROUP   
     5 PHE5       38 GROUP   
     6 GLY6       51 GROUP   
     7 CUB7       77 GROUP   
@<TRIPOS>SET

