#    Name: 5uti_1_GGB_CAVITY_N1_4
#    Modification time : Fri May 22 19:18:51 2020

@<TRIPOS>MOLECULE
5uti_1_GGB_CAVITY_N1_4
   30     0     5     0     0
SMALL
NO_CHARGES


@<TRIPOS>ATOM
      1 O           9.6300   13.8500   88.9300 O.2       1 ALA2        0.0000 
      2 N          13.4300   13.2400   90.7000 N.am      1 ALA2        0.0000 
      3 N          14.6400   12.4100   90.3700 N.am      1 ALA2        0.0000 
      4 N          15.2000   13.5400   89.5600 N.am      1 ALA2        0.0000 
      5 O          15.3400   12.9400   91.5900 O.2       1 ALA2        0.0000 
      6 N          13.0700   13.9900   94.2800 N.am      1 ALA2        0.0000 
      7 O          14.8300   14.2900   93.1400 O.2       1 ALA2        0.0000 
      8 NZ         10.9700   12.4100   90.6300 N.4       2 LYS4        0.0000 
      9 NZ         11.6700   12.9400   91.8400 N.4       2 LYS4        0.0000 
     10 CZ         11.3900   14.1500   87.7900 C.ar      3 PHE5        0.0000 
     11 CZ         11.5300   13.5400   89.8200 C.ar      3 PHE5        0.0000 
     12 CZ         12.0900   14.6800   89.0100 C.ar      3 PHE5        0.0000 
     13 CZ         12.6400   15.8100   88.2000 C.ar      3 PHE5        0.0000 
     14 CZ         12.2300   14.0700   91.0400 C.ar      3 PHE5        0.0000 
     15 CZ         12.7900   15.2000   90.2300 C.ar      3 PHE5        0.0000 
     16 CZ         13.9900   14.3700   89.8900 C.ar      3 PHE5        0.0000 
     17 CZ         12.9300   14.6000   92.2500 C.ar      3 PHE5        0.0000 
     18 CA         12.0300   12.1900   88.2700 C.3       4 GLY6        0.0000 
     19 CA         12.5900   13.3200   87.4600 C.3       4 GLY6        0.0000 
     20 CA         12.7300   12.7100   89.4800 C.3       4 GLY6        0.0000 
     21 CA         13.2900   13.8500   88.6700 C.3       4 GLY6        0.0000 
     22 CA         12.8800   12.1100   91.5100 C.3       4 GLY6        0.0000 
     23 CA         11.8200   12.3300   93.8700 C.3       4 GLY6        0.0000 
     24 CA         12.3700   13.4600   93.0600 C.3       4 GLY6        0.0000 
     25 CA         13.5800   12.6300   92.7300 C.3       4 GLY6        0.0000 
     26 CA         14.7800   11.8000   92.4000 C.3       4 GLY6        0.0000 
     27 CA         14.6900   14.9000   91.1100 C.3       4 GLY6        0.0000 
     28 CA         14.2800   13.1600   93.9500 C.3       4 GLY6        0.0000 
     29 DU         10.8300   13.0200   88.6000 H         5 CUB7        0.0000 
     30 DU         14.1300   13.7700   91.9200 H         5 CUB7        0.0000 
@<TRIPOS>BOND
@<TRIPOS>SUBSTRUCTURE
     1 ALA2        1 GROUP   
     2 LYS4        8 GROUP   
     3 PHE5       10 GROUP   
     4 GLY6       18 GROUP   
     5 CUB7       29 GROUP   
@<TRIPOS>SET

