#    Name: 5zix_1_NAP
#    Modification time : Fri May 22 19:24:10 2020

@<TRIPOS>MOLECULE
5zix_1_NAP
   48    52     1     0     1
SMALL
NO_CHARGES


@<TRIPOS>ATOM
      1 PA         20.8090   65.3540   15.0420 P.3       1 NAP404      0.0000 
      2 O1A        19.8440   64.4130   15.6510 O.co2     1 NAP404      0.0000 
      3 O2A        22.2750   64.9390   15.1460 O.co2     1 NAP404      0.0000 
      4 O5B        20.4780   65.6020   13.4470 O.3       1 NAP404      0.0000 
      5 C5B        21.4410   66.1910   12.5500 C.3       1 NAP404      0.0000 
      6 C4B        21.2310   65.5680   11.1930 C.3       1 NAP404      0.0000 
      7 O4B        22.0460   66.2390   10.2050 O.3       1 NAP404      0.0000 
      8 C3B        21.5870   64.0800   11.1000 C.3       1 NAP404      0.0000 
      9 O3B        20.4980   63.3390   10.5610 O.3       1 NAP404      0.0000 
     10 C2B        22.7800   64.0340   10.1500 C.3       1 NAP404      0.0000 
     11 O2B        22.8190   62.8060    9.3910 O.3       1 NAP404      0.0000 
     12 C1B        22.5350   65.2710    9.2990 C.3       1 NAP404      0.0000 
     13 N9A        23.7370   65.7890    8.6560 N.pl3     1 NAP404      0.0000 
     14 C8A        24.8600   66.2870    9.2630 C.2       1 NAP404      0.0000 
     15 N7A        25.7940   66.6720    8.4260 N.2       1 NAP404      0.0000 
     16 C5A        25.2450   66.4100    7.1780 C.ar      1 NAP404      0.0000 
     17 C6A        25.7320   66.5910    5.8700 C.ar      1 NAP404      0.0000 
     18 N6A        26.9350   67.1000    5.5870 N.pl3     1 NAP404      0.0000 
     19 N1A        24.9300   66.2240    4.8460 N.ar      1 NAP404      0.0000 
     20 C2A        23.7270   65.7120    5.1220 C.ar      1 NAP404      0.0000 
     21 N3A        23.1630   65.4950    6.3130 N.ar      1 NAP404      0.0000 
     22 C4A        23.9780   65.8660    7.3070 C.ar      1 NAP404      0.0000 
     23 O3         20.6830   66.8040   15.6850 O.3       1 NAP404      0.0000 
     24 PN         19.4740   67.6210   16.3400 P.3       1 NAP404      0.0000 
     25 O1N        18.3580   67.7030   15.3730 O.co2     1 NAP404      0.0000 
     26 O2N        19.2180   67.0850   17.6980 O.co2     1 NAP404      0.0000 
     27 O5D        20.1130   69.0760   16.4640 O.3       1 NAP404      0.0000 
     28 C5D        20.2970   69.9040   15.2990 C.3       1 NAP404      0.0000 
     29 C4D        20.6690   71.2940   15.7530 C.3       1 NAP404      0.0000 
     30 O4D        19.5400   71.9130   16.4140 O.3       1 NAP404      0.0000 
     31 C3D        21.8330   71.3650   16.7450 C.3       1 NAP404      0.0000 
     32 O3D        22.6450   72.5050   16.4910 O.3       1 NAP404      0.0000 
     33 C2D        21.1170   71.4690   18.0930 C.3       1 NAP404      0.0000 
     34 O2D        21.9160   72.1070   19.0830 O.3       1 NAP404      0.0000 
     35 C1D        19.9140   72.3240   17.7030 C.3       1 NAP404      0.0000 
     36 N1N        18.7060   72.1120   18.6520 N.pl3     1 NAP404      0.0000 
     37 C2N        18.2370   70.8550   18.7540 C.ar      1 NAP404      0.0000 
     38 C3N        17.1600   70.5810   19.5750 C.ar      1 NAP404      0.0000 
     39 C7N        16.6130   69.1860   19.6710 C.2       1 NAP404      0.0000 
     40 O7N        15.6560   68.9560   20.4230 O.2       1 NAP404      0.0000 
     41 N7N        17.1910   68.2430   18.9360 N.am      1 NAP404      0.0000 
     42 C4N        16.5860   71.6270   20.2890 C.ar      1 NAP404      0.0000 
     43 C5N        17.0890   72.9100   20.1660 C.ar      1 NAP404      0.0000 
     44 C6N        18.1600   73.1380   19.3330 C.ar      1 NAP404      0.0000 
     45 P2B        23.2990   61.4250   10.0680 P.3       1 NAP404      0.0000 
     46 O1X        24.2240   61.7090   11.2050 O.co2     1 NAP404      0.0000 
     47 O2X        22.0200   60.7030   10.5030 O.co2     1 NAP404      0.0000 
     48 O3X        23.9540   60.6080    8.9500 O.co2     1 NAP404      0.0000 
@<TRIPOS>BOND
     1    1    2 ar   
     2    1    3 ar   
     3    1    4 1    
     4    1   23 1    
     5    4    5 1    
     6    5    6 1    
     7    6    7 1    
     8    6    8 1    
     9    7   12 1    
    10    8    9 1    
    11    8   10 1    
    12   10   11 1    
    13   10   12 1    
    14   11   45 1    
    15   12   13 1    
    16   13   14 1    
    17   13   22 1    
    18   14   15 2    
    19   15   16 1    
    20   16   17 ar   
    21   16   22 ar   
    22   17   18 1    
    23   17   19 ar   
    24   19   20 ar   
    25   20   21 ar   
    26   21   22 ar   
    27   23   24 1    
    28   24   25 ar   
    29   24   26 ar   
    30   24   27 1    
    31   27   28 1    
    32   28   29 1    
    33   29   30 1    
    34   29   31 1    
    35   30   35 1    
    36   31   32 1    
    37   31   33 1    
    38   33   34 1    
    39   33   35 1    
    40   35   36 1    
    41   36   37 ar   
    42   36   44 ar   
    43   37   38 ar   
    44   38   39 1    
    45   38   42 ar   
    46   39   40 2    
    47   39   41 am   
    48   42   43 ar   
    49   43   44 ar   
    50   45   46 ar   
    51   45   47 ar   
    52   45   48 ar   
@<TRIPOS>SUBSTRUCTURE
     1 NAP404      1 GROUP   
@<TRIPOS>SET
ATOM$ORANGE STATIC     ATOMS   COLORGROUP SYSTEM 
42 5 5 6 6 8 8 10 10 12 12 14 14 16 16 17 17 20 \
20 22 22 28 28 29 29 31 31 33 33 35 35 37 37 38 38 39 \
39 42 42 43 43 44 44 

