#    Name: 5zix_2_NAP
#    Modification time : Fri May 22 19:24:16 2020

@<TRIPOS>MOLECULE
5zix_2_NAP
   48    52     1     0     1
SMALL
NO_CHARGES


@<TRIPOS>ATOM
      1 PA         17.2180   45.3250   22.4730 P.3       1 NAP401      0.0000 
      2 O1A        18.0170   46.5710   22.5280 O.co2     1 NAP401      0.0000 
      3 O2A        15.8660   45.4300   21.7740 O.co2     1 NAP401      0.0000 
      4 O5B        18.0470   44.1070   21.7480 O.3       1 NAP401      0.0000 
      5 C5B        17.3870   42.9110   21.2870 C.3       1 NAP401      0.0000 
      6 C4B        18.0630   42.4860   20.0080 C.3       1 NAP401      0.0000 
      7 O4B        17.5680   41.1940   19.5890 O.3       1 NAP401      0.0000 
      8 C3B        17.8530   43.4270   18.8170 C.3       1 NAP401      0.0000 
      9 O3B        19.1050   43.7930   18.2490 O.3       1 NAP401      0.0000 
     10 C2B        17.0320   42.6070   17.8250 C.3       1 NAP401      0.0000 
     11 O2B        17.3060   42.9790   16.4570 O.3       1 NAP401      0.0000 
     12 C1B        17.4640   41.1920   18.1800 C.3       1 NAP401      0.0000 
     13 N9A        16.5110   40.1640   17.7790 N.pl3     1 NAP401      0.0000 
     14 C8A        15.2080   40.0270   18.1830 C.2       1 NAP401      0.0000 
     15 N7A        14.5940   38.9900   17.6680 N.2       1 NAP401      0.0000 
     16 C5A        15.5610   38.4000   16.8660 C.ar      1 NAP401      0.0000 
     17 C6A        15.5460   37.2560   16.0450 C.ar      1 NAP401      0.0000 
     18 N6A        14.4820   36.4600   15.8980 N.pl3     1 NAP401      0.0000 
     19 N1A        16.6790   36.9490   15.3760 N.ar      1 NAP401      0.0000 
     20 C2A        17.7480   37.7370   15.5250 C.ar      1 NAP401      0.0000 
     21 N3A        17.8800   38.8350   16.2730 N.ar      1 NAP401      0.0000 
     22 C4A        16.7460   39.1150   16.9230 C.ar      1 NAP401      0.0000 
     23 O3         16.9530   44.7520   23.9340 O.3       1 NAP401      0.0000 
     24 PN         17.7810   44.8750   25.2970 P.3       1 NAP401      0.0000 
     25 O1N        17.5500   46.2170   25.8730 O.co2     1 NAP401      0.0000 
     26 O2N        19.1700   44.4160   25.0630 O.co2     1 NAP401      0.0000 
     27 O5D        17.0240   43.8180   26.2160 O.3       1 NAP401      0.0000 
     28 C5D        17.1000   42.4090   25.9250 C.3       1 NAP401      0.0000 
     29 C4D        16.4830   41.6580   27.0790 C.3       1 NAP401      0.0000 
     30 O4D        17.2840   41.8490   28.2690 O.3       1 NAP401      0.0000 
     31 C3D        15.0620   42.0920   27.4470 C.3       1 NAP401      0.0000 
     32 O3D        14.2650   40.9720   27.8140 O.3       1 NAP401      0.0000 
     33 C2D        15.2950   43.0350   28.6300 C.3       1 NAP401      0.0000 
     34 O2D        14.1680   43.1070   29.4940 O.3       1 NAP401      0.0000 
     35 C1D        16.4780   42.3460   29.3040 C.3       1 NAP401      0.0000 
     36 N1N        17.3220   43.3330   30.1490 N.pl3     1 NAP401      0.0000 
     37 C2N        17.7790   44.4290   29.5160 C.ar      1 NAP401      0.0000 
     38 C3N        18.5180   45.3700   30.2050 C.ar      1 NAP401      0.0000 
     39 C7N        19.0340   46.5930   29.5030 C.2       1 NAP401      0.0000 
     40 O7N        18.8030   46.7470   28.2980 O.2       1 NAP401      0.0000 
     41 N7N        19.7340   47.4660   30.2160 N.am      1 NAP401      0.0000 
     42 C4N        18.7770   45.1550   31.5540 C.ar      1 NAP401      0.0000 
     43 C5N        18.3000   44.0170   32.1790 C.ar      1 NAP401      0.0000 
     44 C6N        17.5670   43.1060   31.4550 C.ar      1 NAP401      0.0000 
     45 P2B        16.6660   44.3120   15.8110 P.3       1 NAP401      0.0000 
     46 O1X        15.5310   44.8000   16.6510 O.co2     1 NAP401      0.0000 
     47 O2X        17.8130   45.3230   15.7130 O.co2     1 NAP401      0.0000 
     48 O3X        16.2380   43.9320   14.3880 O.co2     1 NAP401      0.0000 
@<TRIPOS>BOND
     1    1    2 ar   
     2    1    3 ar   
     3    1    4 1    
     4    1   23 1    
     5    4    5 1    
     6    5    6 1    
     7    6    7 1    
     8    6    8 1    
     9    7   12 1    
    10    8    9 1    
    11    8   10 1    
    12   10   11 1    
    13   10   12 1    
    14   11   45 1    
    15   12   13 1    
    16   13   14 1    
    17   13   22 1    
    18   14   15 2    
    19   15   16 1    
    20   16   17 ar   
    21   16   22 ar   
    22   17   18 1    
    23   17   19 ar   
    24   19   20 ar   
    25   20   21 ar   
    26   21   22 ar   
    27   23   24 1    
    28   24   25 ar   
    29   24   26 ar   
    30   24   27 1    
    31   27   28 1    
    32   28   29 1    
    33   29   30 1    
    34   29   31 1    
    35   30   35 1    
    36   31   32 1    
    37   31   33 1    
    38   33   34 1    
    39   33   35 1    
    40   35   36 1    
    41   36   37 ar   
    42   36   44 ar   
    43   37   38 ar   
    44   38   39 1    
    45   38   42 ar   
    46   39   40 2    
    47   39   41 am   
    48   42   43 ar   
    49   43   44 ar   
    50   45   46 ar   
    51   45   47 ar   
    52   45   48 ar   
@<TRIPOS>SUBSTRUCTURE
     1 NAP401      1 GROUP   
@<TRIPOS>SET
ATOM$ORANGE STATIC     ATOMS   COLORGROUP SYSTEM 
42 5 5 6 6 8 8 10 10 12 12 14 14 16 16 17 17 20 \
20 22 22 28 28 29 29 31 31 33 33 35 35 37 37 38 38 39 \
39 42 42 43 43 44 44 

