#    Name: 6hgi_1_C0R
#    Modification time : Fri May 22 19:37:49 2020

@<TRIPOS>MOLECULE
6hgi_1_C0R
   25    28     1     0     0
SMALL
NO_CHARGES


@<TRIPOS>ATOM
      1 C1          4.7060   21.4750   -8.7900 C.3       1 C0R401      0.0000 
      2 C2          4.6810   21.1390  -10.2610 C.3       1 C0R401      0.0000 
      3 C3          3.5220   20.2380  -10.5580 C.2       1 C0R401      0.0000 
      4 C4          2.2660   20.5810   -9.9000 C.2       1 C0R401      0.0000 
      5 C5          2.1950   21.5480   -8.9840 C.2       1 C0R401      0.0000 
      6 C6          0.8600   21.9520   -8.4470 C.3       1 C0R401      0.0000 
      7 C7          0.6700   21.5710   -6.9990 C.3       1 C0R401      0.0000 
      8 C8          1.8220   22.0890   -6.1960 C.3       1 C0R401      0.0000 
      9 C9          3.1520   21.5730   -6.8100 C.3       1 C0R401      0.0000 
     10 C10         3.3620   22.0520   -8.2620 C.3       1 C0R401      0.0000 
     11 C11         4.4180   21.7850   -5.9150 C.3       1 C0R401      0.0000 
     12 C12         4.1720   21.3820   -4.4520 C.3       1 C0R401      0.0000 
     13 C13         2.8530   21.9440   -3.9090 C.3       1 C0R401      0.0000 
     14 C14         1.7160   21.4990   -4.8260 C.3       1 C0R401      0.0000 
     15 C15         0.4570   21.8370   -4.0320 C.3       1 C0R401      0.0000 
     16 C16         0.8700   21.6550   -2.5720 C.3       1 C0R401      0.0000 
     17 C17         2.3630   21.2740   -2.5920 C.3       1 C0R401      0.0000 
     18 C18         2.8890   23.4780   -3.7420 C.3       1 C0R401      0.0000 
     19 C19         3.3160   23.5820   -8.4360 C.3       1 C0R401      0.0000 
     20 C20         3.0340   21.7330   -1.3170 C.2       1 C0R401      0.0000 
     21 C21         4.2270   20.9270   -0.8390 C.3       1 C0R401      0.0000 
     22 O1          3.6090   19.2970  -11.3240 O.2       1 C0R401      0.0000 
     23 O2          4.8910   23.0980   -6.0080 O.3       1 C0R401      0.0000 
     24 O3          2.6830   22.6680   -0.6290 O.2       1 C0R401      0.0000 
     25 O4          4.3590   21.2930    0.5140 O.3       1 C0R401      0.0000 
@<TRIPOS>BOND
     1    1    2 1    
     2    1   10 1    
     3    2    3 1    
     4    3    4 1    
     5    3   22 2    
     6    4    5 2    
     7    5    6 1    
     8    5   10 1    
     9    6    7 1    
    10    7    8 1    
    11    8    9 1    
    12    8   14 1    
    13    9   10 1    
    14    9   11 1    
    15   10   19 1    
    16   11   12 1    
    17   11   23 1    
    18   12   13 1    
    19   13   14 1    
    20   13   17 1    
    21   13   18 1    
    22   14   15 1    
    23   15   16 1    
    24   16   17 1    
    25   17   20 1    
    26   20   21 1    
    27   20   24 2    
    28   21   25 1    
@<TRIPOS>SUBSTRUCTURE
     1 C0R401      1 GROUP   
@<TRIPOS>SET

