#    Name: 6cy8_1_FAD
#    Modification time : Fri May 22 19:24:04 2020

@<TRIPOS>MOLECULE
6cy8_1_FAD
   53    58     1     0     1
SMALL
NO_CHARGES


@<TRIPOS>ATOM
      1 PA          8.4590   52.4660  142.7090 P.3       1 FAD400      0.0000 
      2 O1A         7.2600   51.7140  143.1520 O.co2     1 FAD400      0.0000 
      3 O2A         8.3280   53.9080  142.2040 O.co2     1 FAD400      0.0000 
      4 O5B         9.4500   52.4500  143.8810 O.3       1 FAD400      0.0000 
      5 C5B        10.6030   53.3190  143.9090 C.3       1 FAD400      0.0000 
      6 C4B        11.2370   53.1920  145.2730 C.3       1 FAD400      0.0000 
      7 O4B        10.2620   53.5310  146.2990 O.3       1 FAD400      0.0000 
      8 C3B        11.7170   51.7790  145.6100 C.3       1 FAD400      0.0000 
      9 O3B        12.8820   51.8240  146.4280 O.3       1 FAD400      0.0000 
     10 C2B        10.5130   51.2160  146.3640 C.3       1 FAD400      0.0000 
     11 O2B        10.7590   50.0650  147.1590 O.3       1 FAD400      0.0000 
     12 C1B        10.1440   52.4430  147.1900 C.3       1 FAD400      0.0000 
     13 N9A         8.7960   52.3760  147.7340 N.pl3     1 FAD400      0.0000 
     14 C8A         7.6130   52.4160  147.0470 C.2       1 FAD400      0.0000 
     15 N7A         6.5530   52.2600  147.8060 N.2       1 FAD400      0.0000 
     16 C5A         7.0800   52.0850  149.0800 C.ar      1 FAD400      0.0000 
     17 C6A         6.4820   51.8640  150.3400 C.ar      1 FAD400      0.0000 
     18 N6A         5.1590   51.7920  150.5400 N.pl3     1 FAD400      0.0000 
     19 N1A         7.3040   51.7380  151.4100 N.ar      1 FAD400      0.0000 
     20 C2A         8.6230   51.8210  151.2230 C.ar      1 FAD400      0.0000 
     21 N3A         9.2940   52.0270  150.0900 N.ar      1 FAD400      0.0000 
     22 C4A         8.4620   52.1470  149.0480 C.ar      1 FAD400      0.0000 
     23 N1          5.9190   44.5500  136.3350 N.2       1 FAD400      0.0000 
     24 C2          4.8390   43.8970  135.8130 C.2       1 FAD400      0.0000 
     25 O2          3.6870   44.2830  136.0300 O.2       1 FAD400      0.0000 
     26 N3          5.0260   42.7770  135.0210 N.am      1 FAD400      0.0000 
     27 C4          6.2400   42.2080  134.6980 C.2       1 FAD400      0.0000 
     28 O4          6.2880   41.2080  133.9780 O.2       1 FAD400      0.0000 
     29 C4X         7.3860   42.9070  135.2640 C.2       1 FAD400      0.0000 
     30 N5          8.5760   42.4500  134.9890 N.2       1 FAD400      0.0000 
     31 C5X         9.6680   43.1190  135.5140 C.ar      1 FAD400      0.0000 
     32 C6         10.9460   42.6420  135.2190 C.ar      1 FAD400      0.0000 
     33 C7         12.0770   43.2740  135.7210 C.ar      1 FAD400      0.0000 
     34 C7M        13.4370   42.7260  135.3830 C.3       1 FAD400      0.0000 
     35 C8         11.9330   44.4170  136.5230 C.ar      1 FAD400      0.0000 
     36 C8M        13.1300   45.1260  137.0830 C.3       1 FAD400      0.0000 
     37 C9         10.6610   44.8940  136.8240 C.ar      1 FAD400      0.0000 
     38 C9A         9.5310   44.2550  136.3290 C.ar      1 FAD400      0.0000 
     39 N10         8.2340   44.7540  136.5570 N.pl3     1 FAD400      0.0000 
     40 C10         7.1280   44.0710  136.0700 C.2       1 FAD400      0.0000 
     41 C1'         8.0180   45.8550  137.5170 C.3       1 FAD400      0.0000 
     42 C2'         7.8890   45.2750  138.9380 C.3       1 FAD400      0.0000 
     43 O2'         6.6260   44.6660  139.1920 O.3       1 FAD400      0.0000 
     44 C3'         8.2270   46.2850  140.0370 C.3       1 FAD400      0.0000 
     45 O3'         7.2830   46.2310  141.1020 O.3       1 FAD400      0.0000 
     46 C4'         8.3420   47.7590  139.7510 C.3       1 FAD400      0.0000 
     47 O4'         9.4910   47.9500  138.9320 O.3       1 FAD400      0.0000 
     48 C5'         8.5110   48.3970  141.1110 C.3       1 FAD400      0.0000 
     49 O5'         7.8530   49.6740  141.1080 O.3       1 FAD400      0.0000 
     50 P           8.5080   50.9130  140.4040 P.3       1 FAD400      0.0000 
     51 O1P         9.6120   50.4550  139.4480 O.co2     1 FAD400      0.0000 
     52 O2P         7.4760   51.8070  139.8040 O.co2     1 FAD400      0.0000 
     53 O3P         9.2200   51.6370  141.5990 O.3       1 FAD400      0.0000 
@<TRIPOS>BOND
     1    1    2 ar   
     2    1    3 ar   
     3    1    4 1    
     4    1   53 1    
     5    4    5 1    
     6    5    6 1    
     7    6    7 1    
     8    6    8 1    
     9    7   12 1    
    10    8    9 1    
    11    8   10 1    
    12   10   11 1    
    13   10   12 1    
    14   12   13 1    
    15   13   14 1    
    16   13   22 1    
    17   14   15 2    
    18   15   16 1    
    19   16   17 ar   
    20   16   22 ar   
    21   17   18 1    
    22   17   19 ar   
    23   19   20 ar   
    24   20   21 ar   
    25   21   22 ar   
    26   23   24 1    
    27   23   40 2    
    28   24   25 2    
    29   24   26 am   
    30   26   27 am   
    31   27   28 2    
    32   27   29 1    
    33   29   30 2    
    34   29   40 1    
    35   30   31 1    
    36   31   32 ar   
    37   31   38 ar   
    38   32   33 ar   
    39   33   34 1    
    40   33   35 ar   
    41   35   36 1    
    42   35   37 ar   
    43   37   38 ar   
    44   38   39 1    
    45   39   40 1    
    46   39   41 1    
    47   41   42 1    
    48   42   43 1    
    49   42   44 1    
    50   44   45 1    
    51   44   46 1    
    52   46   47 1    
    53   46   48 1    
    54   48   49 1    
    55   49   50 1    
    56   50   51 ar   
    57   50   52 ar   
    58   50   53 1    
@<TRIPOS>SUBSTRUCTURE
     1 FAD400      1 GROUP   
@<TRIPOS>SET
ATOM$ORANGE STATIC     ATOMS   COLORGROUP SYSTEM 
54 5 5 6 6 8 8 10 10 12 12 14 14 16 16 17 17 20 \
20 22 22 24 24 27 27 29 29 31 31 32 32 33 33 34 34 35 \
35 36 36 37 37 38 38 40 40 41 41 42 42 44 44 46 46 48 \
48 

