#    Name: 6myw_1_FMN
#    Modification time : Fri May 22 19:30:57 2020

@<TRIPOS>MOLECULE
6myw_1_FMN
   31    33     1     0     1
SMALL
NO_CHARGES


@<TRIPOS>ATOM
      1 N1         15.5070    6.8470   57.3190 N.2       1 FMN401      0.0000 
      2 C2         15.8900    7.6330   58.3150 C.2       1 FMN401      0.0000 
      3 O2         15.0300    8.2210   59.0300 O.2       1 FMN401      0.0000 
      4 N3         17.2190    7.9230   58.5130 N.am      1 FMN401      0.0000 
      5 C4         18.2240    7.3720   57.7680 C.2       1 FMN401      0.0000 
      6 O4         19.4180    7.7010   57.9710 O.2       1 FMN401      0.0000 
      7 C4A        17.8320    6.4320   56.7820 C.2       1 FMN401      0.0000 
      8 N5         18.7580    5.8570   56.0330 N.2       1 FMN401      0.0000 
      9 C5A        18.3470    5.2110   54.8800 C.ar      1 FMN401      0.0000 
     10 C6         19.2950    4.6310   54.0270 C.ar      1 FMN401      0.0000 
     11 C7         18.9720    3.9350   52.8420 C.ar      1 FMN401      0.0000 
     12 C7M        20.0290    3.4110   51.9060 C.3       1 FMN401      0.0000 
     13 C8         17.5880    3.7450   52.6080 C.ar      1 FMN401      0.0000 
     14 C8M        17.1900    3.0260   51.3210 C.3       1 FMN401      0.0000 
     15 C9         16.6520    4.3140   53.4620 C.ar      1 FMN401      0.0000 
     16 C9A        16.9720    4.9710   54.6250 C.ar      1 FMN401      0.0000 
     17 N10        16.0030    5.5410   55.4430 N.pl3     1 FMN401      0.0000 
     18 C10        16.4380    6.2780   56.5410 C.2       1 FMN401      0.0000 
     19 C1'        14.6380    5.4880   55.0450 C.3       1 FMN401      0.0000 
     20 C2'        14.3440    6.5900   54.0140 C.3       1 FMN401      0.0000 
     21 O2'        14.4390    7.9250   54.5110 O.3       1 FMN401      0.0000 
     22 C3'        12.9630    6.4370   53.3960 C.3       1 FMN401      0.0000 
     23 O3'        12.0260    6.4380   54.4490 O.3       1 FMN401      0.0000 
     24 C4'        12.8090    5.1580   52.5950 C.3       1 FMN401      0.0000 
     25 O4'        13.8630    5.0200   51.6590 O.3       1 FMN401      0.0000 
     26 C5'        11.4730    5.0850   51.8500 C.3       1 FMN401      0.0000 
     27 O5'        11.1840    6.2110   51.0440 O.3       1 FMN401      0.0000 
     28 P          11.3730    6.0520   49.4520 P.3       1 FMN401      0.0000 
     29 O1P        11.2070    7.4290   48.9550 O.co2     1 FMN401      0.0000 
     30 O2P        10.2640    5.1110   49.0080 O.co2     1 FMN401      0.0000 
     31 O3P        12.7450    5.5020   49.1920 O.co2     1 FMN401      0.0000 
@<TRIPOS>BOND
     1    1    2 1    
     2    1   18 2    
     3    2    3 2    
     4    2    4 am   
     5    4    5 am   
     6    5    6 2    
     7    5    7 1    
     8    7    8 2    
     9    7   18 1    
    10    8    9 1    
    11    9   10 ar   
    12    9   16 ar   
    13   10   11 ar   
    14   11   12 1    
    15   11   13 ar   
    16   13   14 1    
    17   13   15 ar   
    18   15   16 ar   
    19   16   17 1    
    20   17   18 1    
    21   17   19 1    
    22   19   20 1    
    23   20   21 1    
    24   20   22 1    
    25   22   23 1    
    26   22   24 1    
    27   24   25 1    
    28   24   26 1    
    29   26   27 1    
    30   27   28 1    
    31   28   29 ar   
    32   28   30 ar   
    33   28   31 ar   
@<TRIPOS>SUBSTRUCTURE
     1 FMN401      1 GROUP   
@<TRIPOS>SET
ATOM$ORANGE STATIC     ATOMS   COLORGROUP SYSTEM 
34 2 2 5 5 7 7 9 9 10 10 11 11 12 12 13 13 14 \
14 15 15 16 16 18 18 19 19 20 20 22 22 24 24 26 26 

