#    Name: 6myw_2_FMN
#    Modification time : Fri May 22 19:31:02 2020

@<TRIPOS>MOLECULE
6myw_2_FMN
   31    33     1     0     1
SMALL
NO_CHARGES


@<TRIPOS>ATOM
      1 N1        -34.2400    5.6340   57.3270 N.2       1 FMN401      0.0000 
      2 C2        -33.8620    6.4230   58.3410 C.2       1 FMN401      0.0000 
      3 O2        -34.7040    6.9500   59.0730 O.2       1 FMN401      0.0000 
      4 N3        -32.5070    6.7020   58.5020 N.am      1 FMN401      0.0000 
      5 C4        -31.5250    6.1430   57.7660 C.2       1 FMN401      0.0000 
      6 O4        -30.3350    6.4620   57.9840 O.2       1 FMN401      0.0000 
      7 C4A       -31.9000    5.2290   56.7600 C.2       1 FMN401      0.0000 
      8 N5        -31.0090    4.6480   55.9700 N.2       1 FMN401      0.0000 
      9 C5A       -31.4160    4.0390   54.8430 C.ar      1 FMN401      0.0000 
     10 C6        -30.4880    3.5630   53.9380 C.ar      1 FMN401      0.0000 
     11 C7        -30.7930    2.8990   52.7710 C.ar      1 FMN401      0.0000 
     12 C7M       -29.7690    2.4400   51.8090 C.3       1 FMN401      0.0000 
     13 C8        -32.1880    2.7110   52.4730 C.ar      1 FMN401      0.0000 
     14 C8M       -32.5790    2.0210   51.1760 C.3       1 FMN401      0.0000 
     15 C9        -33.1220    3.1810   53.3480 C.ar      1 FMN401      0.0000 
     16 C9A       -32.7610    3.8680   54.5140 C.ar      1 FMN401      0.0000 
     17 N10       -33.7210    4.3800   55.4300 N.pl3     1 FMN401      0.0000 
     18 C10       -33.3220    5.0650   56.5450 C.2       1 FMN401      0.0000 
     19 C1'       -35.1480    4.3840   55.0360 C.3       1 FMN401      0.0000 
     20 C2'       -35.4240    5.4410   53.9560 C.3       1 FMN401      0.0000 
     21 O2'       -35.2960    6.7600   54.5200 O.3       1 FMN401      0.0000 
     22 C3'       -36.8010    5.2590   53.3890 C.3       1 FMN401      0.0000 
     23 O3'       -37.7320    5.2590   54.4700 O.3       1 FMN401      0.0000 
     24 C4'       -36.9450    4.0330   52.5170 C.3       1 FMN401      0.0000 
     25 O4'       -35.8780    4.0130   51.5680 O.3       1 FMN401      0.0000 
     26 C5'       -38.3400    3.9810   51.8810 C.3       1 FMN401      0.0000 
     27 O5'       -38.5580    5.1560   51.0590 O.3       1 FMN401      0.0000 
     28 P         -38.3910    5.0630   49.4310 P.3       1 FMN401      0.0000 
     29 O1P       -38.5900    6.4880   49.0350 O.co2     1 FMN401      0.0000 
     30 O2P       -39.4660    4.1590   48.9340 O.co2     1 FMN401      0.0000 
     31 O3P       -36.9890    4.5640   49.1670 O.co2     1 FMN401      0.0000 
@<TRIPOS>BOND
     1    1    2 1    
     2    1   18 2    
     3    2    3 2    
     4    2    4 am   
     5    4    5 am   
     6    5    6 2    
     7    5    7 1    
     8    7    8 2    
     9    7   18 1    
    10    8    9 1    
    11    9   10 ar   
    12    9   16 ar   
    13   10   11 ar   
    14   11   12 1    
    15   11   13 ar   
    16   13   14 1    
    17   13   15 ar   
    18   15   16 ar   
    19   16   17 1    
    20   17   18 1    
    21   17   19 1    
    22   19   20 1    
    23   20   21 1    
    24   20   22 1    
    25   22   23 1    
    26   22   24 1    
    27   24   25 1    
    28   24   26 1    
    29   26   27 1    
    30   27   28 1    
    31   28   29 ar   
    32   28   30 ar   
    33   28   31 ar   
@<TRIPOS>SUBSTRUCTURE
     1 FMN401      1 GROUP   
@<TRIPOS>SET
ATOM$ORANGE STATIC     ATOMS   COLORGROUP SYSTEM 
34 2 2 5 5 7 7 9 9 10 10 11 11 12 12 13 13 14 \
14 15 15 16 16 18 18 19 19 20 20 22 22 24 24 26 26 

