#    Name: 6myw_2_FMN_CAVITY_N1_12
#    Modification time : Fri May 22 19:31:04 2020

@<TRIPOS>MOLECULE
6myw_2_FMN_CAVITY_N1_12
   88     0     6     0     0
SMALL
NO_CHARGES


@<TRIPOS>ATOM
      1 OG        -35.8400    5.6500   53.5500 O.3       1 SER1        0.0000 
      2 OG        -31.1500    2.7700   52.4400 O.3       1 SER1        0.0000 
      3 OG        -31.8200    2.0300   53.5600 O.3       1 SER1        0.0000 
      4 OG        -33.9600    5.8900   58.8300 O.3       1 SER1        0.0000 
      5 OG        -33.0900    1.2600   58.3100 O.3       1 SER1        0.0000 
      6 OG        -31.5400    5.4700   57.9900 O.3       1 SER1        0.0000 
      7 OG        -32.2000    4.7300   59.1100 O.3       1 SER1        0.0000 
      8 OG        -32.8700    4.0000   60.2400 O.3       1 SER1        0.0000 
      9 OG        -31.0200    4.1700   57.4400 O.3       1 SER1        0.0000 
     10 OG        -31.6900    3.4300   58.5700 O.3       1 SER1        0.0000 
     11 OG        -32.3600    2.7000   59.6900 O.3       1 SER1        0.0000 
     12 OG        -31.8500    1.4000   59.1400 O.3       1 SER1        0.0000 
     13 OG        -30.4500    3.5700   59.4000 O.3       1 SER1        0.0000 
     14 O         -38.3200    5.3800   51.8900 O.2       2 ALA2        0.0000 
     15 O         -37.1400    4.8100   50.2200 O.2       2 ALA2        0.0000 
     16 O         -37.0800    5.5100   52.7200 O.2       2 ALA2        0.0000 
     17 N         -37.7500    4.7800   53.8500 N.am      2 ALA2        0.0000 
     18 N         -34.6000    5.7900   54.3800 N.am      2 ALA2        0.0000 
     19 O         -36.0900    2.2800   57.2000 O.2       2 ALA2        0.0000 
     20 N         -34.0200    5.1900   56.3300 N.am      2 ALA2        0.0000 
     21 O         -34.6900    4.4600   57.4600 O.2       2 ALA2        0.0000 
     22 N         -32.8400    4.6300   54.6600 N.am      2 ALA2        0.0000 
     23 N         -33.5100    3.8900   55.7800 N.am      2 ALA2        0.0000 
     24 O         -34.1800    3.1600   56.9100 O.2       2 ALA2        0.0000 
     25 N         -33.2900    6.6300   57.7100 N.am      2 ALA2        0.0000 
     26 N         -32.7800    5.3300   57.1600 N.am      2 ALA2        0.0000 
     27 O         -33.4500    4.6000   58.2900 O.2       2 ALA2        0.0000 
     28 N         -31.6000    4.7700   55.4900 N.am      2 ALA2        0.0000 
     29 N         -32.2700    4.0300   56.6100 N.am      2 ALA2        0.0000 
     30 O         -32.9300    3.3000   57.7400 O.2       2 ALA2        0.0000 
     31 O         -33.6000    2.5600   58.8600 O.2       2 ALA2        0.0000 
     32 O         -30.4200    4.2100   53.8200 O.2       2 ALA2        0.0000 
     33 O         -31.0900    3.4700   54.9400 O.2       2 ALA2        0.0000 
     34 O         -33.7600    0.5200   59.4400 O.2       2 ALA2        0.0000 
     35 N         -29.2400    3.6400   52.1500 N.am      2 ALA2        0.0000 
     36 N         -29.9100    2.9100   53.2700 N.am      2 ALA2        0.0000 
     37 O         -33.2500   -0.7800   58.8900 O.2       2 ALA2        0.0000 
     38 N         -32.0500    6.7700   58.5400 N.am      2 ALA2        0.0000 
     39 OD1       -36.5000    4.9200   54.6800 O.co2     3 ASP3        0.0000 
     40 OD1       -35.2600    5.0500   55.5000 O.co2     3 ASP3        0.0000 
     41 OD1       -35.9300    4.3200   56.6300 O.co2     3 ASP3        0.0000 
     42 OD1       -34.5300    6.4900   56.8800 O.co2     3 ASP3        0.0000 
     43 CZ        -37.2400    3.4800   53.3000 C.ar      4 PHE5        0.0000 
     44 CZ        -36.0600    2.9200   51.6300 C.ar      4 PHE5        0.0000 
     45 CZ        -35.9900    3.6200   54.1300 C.ar      4 PHE5        0.0000 
     46 CZ        -36.6600    2.8800   55.2500 C.ar      4 PHE5        0.0000 
     47 CZ        -34.8200    3.0500   52.4500 C.ar      4 PHE5        0.0000 
     48 CZ        -36.9700   -1.1900   56.4000 C.ar      4 PHE5        0.0000 
     49 CZ        -36.4600   -2.4900   55.8500 C.ar      4 PHE5        0.0000 
     50 CZ        -34.7500    3.7600   54.9600 C.ar      4 PHE5        0.0000 
     51 CZ        -35.4200    3.0200   56.0800 C.ar      4 PHE5        0.0000 
     52 CZ        -33.5700    3.1900   53.2800 C.ar      4 PHE5        0.0000 
     53 CZ        -36.2400    0.2500   57.7800 C.ar      4 PHE5        0.0000 
     54 CZ        -33.0600    1.8900   52.7400 C.ar      4 PHE5        0.0000 
     55 CZ        -35.7300   -1.0500   57.2300 C.ar      4 PHE5        0.0000 
     56 CZ        -31.8800    1.3300   51.0600 C.ar      4 PHE5        0.0000 
     57 CZ        -35.2200   -2.3500   56.6800 C.ar      4 PHE5        0.0000 
     58 CZ        -33.0000    2.5900   55.2400 C.ar      4 PHE5        0.0000 
     59 CZ        -33.6700    1.8600   56.3600 C.ar      4 PHE5        0.0000 
     60 CZ        -34.3300    1.1200   57.4800 C.ar      4 PHE5        0.0000 
     61 CZ        -29.9700    2.2100   50.7700 C.ar      4 PHE5        0.0000 
     62 CZ        -30.6400    1.4700   51.8900 C.ar      4 PHE5        0.0000 
     63 CA        -36.4100    6.2500   51.6000 C.3       5 GLY6        0.0000 
     64 CA        -35.9000    4.9500   51.0500 C.3       5 GLY6        0.0000 
     65 CA        -35.3900    3.6500   50.5000 C.3       5 GLY6        0.0000 
     66 CA        -37.7100   -2.6300   55.0200 C.3       5 GLY6        0.0000 
     67 CA        -34.6600    5.0900   51.8800 C.3       5 GLY6        0.0000 
     68 CA        -35.3300    4.3500   53.0000 C.3       5 GLY6        0.0000 
     69 CA        -34.1500    3.7900   51.3300 C.3       5 GLY6        0.0000 
     70 CA        -33.6400    2.4900   50.7800 C.3       5 GLY6        0.0000 
     71 CA        -37.6400   -1.9300   57.5200 C.3       5 GLY6        0.0000 
     72 CA        -34.0800    4.4900   53.8300 C.3       5 GLY6        0.0000 
     73 CA        -31.7300    3.3700   50.4900 C.3       5 GLY6        0.0000 
     74 CA        -32.3900    2.6300   51.6100 C.3       5 GLY6        0.0000 
     75 CA        -36.4000   -1.7900   58.3500 C.3       5 GLY6        0.0000 
     76 CA        -35.8900   -3.0900   57.8000 C.3       5 GLY6        0.0000 
     77 CA        -31.6600    4.0700   52.9900 C.3       5 GLY6        0.0000 
     78 CA        -32.3300    3.3300   54.1100 C.3       5 GLY6        0.0000 
     79 CA        -30.4900    3.5100   51.3200 C.3       5 GLY6        0.0000 
     80 CA        -35.1600   -1.6500   59.1800 C.3       5 GLY6        0.0000 
     81 CA        -34.6500   -2.9500   58.6300 C.3       5 GLY6        0.0000 
     82 CA        -34.2700    1.8200   59.9800 C.3       5 GLY6        0.0000 
     83 CA        -30.9600    4.8700   59.9400 C.3       5 GLY6        0.0000 
     84 DU        -37.8100    4.0800   51.3500 H         6 CUB7        0.0000 
     85 DU        -36.5700    4.2100   52.1700 H         6 CUB7        0.0000 
     86 DU        -37.1300   -3.2300   56.9700 H         6 CUB7        0.0000 
     87 DU        -35.9500   -3.7900   55.3000 H         6 CUB7        0.0000 
     88 DU        -34.4900   -0.9100   58.0600 H         6 CUB7        0.0000 
@<TRIPOS>BOND
@<TRIPOS>SUBSTRUCTURE
     1 SER1        1 GROUP   
     2 ALA2       14 GROUP   
     3 ASP3       39 GROUP   
     4 PHE5       43 GROUP   
     5 GLY6       63 GROUP   
     6 CUB7       84 GROUP   
@<TRIPOS>SET

