#    Name: 6myw_3_FMN_CAVITY_N1_ALL
#    Modification time : Fri May 22 19:31:09 2020

@<TRIPOS>MOLECULE
6myw_3_FMN_CAVITY_N1_ALL
   81     0     6     0     0
SMALL
NO_CHARGES


@<TRIPOS>ATOM
      1 OG         41.0600    8.8400   19.2000 O.3       1 SER1        0.0000 
      2 OG         42.7700   15.0800   18.3100 O.3       1 SER1        0.0000 
      3 OG         42.1000   14.3500   19.4300 O.3       1 SER1        0.0000 
      4 OG         42.6200   13.0500   18.8800 O.3       1 SER1        0.0000 
      5 OG         39.2800    9.3600   24.5000 O.3       1 SER1        0.0000 
      6 OG         38.6100    8.6300   25.6200 O.3       1 SER1        0.0000 
      7 OG         43.1300   11.7500   18.3300 O.3       1 SER1        0.0000 
      8 OG         42.4600   11.0100   19.4600 O.3       1 SER1        0.0000 
      9 OG         42.9700    9.7100   18.9100 O.3       1 SER1        0.0000 
     10 OG         42.8400   15.7800   20.8100 O.3       1 SER1        0.0000 
     11 OG         42.6800   13.7500   21.3800 O.3       1 SER1        0.0000 
     12 OG         43.1900   12.4500   20.8300 O.3       1 SER1        0.0000 
     13 OG         42.5200   11.7100   21.9600 O.3       1 SER1        0.0000 
     14 OG         44.3700   11.8900   19.1600 O.3       1 SER1        0.0000 
     15 OG         43.7000   11.1500   20.2900 O.3       1 SER1        0.0000 
     16 OG         43.5400    9.1100   20.8600 O.3       1 SER1        0.0000 
     17 OG         44.0800   15.9200   21.6400 O.3       1 SER1        0.0000 
     18 OG         42.5900   12.4100   24.4600 O.3       1 SER1        0.0000 
     19 OG         44.4300   12.5900   21.6600 O.3       1 SER1        0.0000 
     20 OG         43.7700   11.8500   22.7900 O.3       1 SER1        0.0000 
     21 OG         43.1000   11.1100   23.9100 O.3       1 SER1        0.0000 
     22 OG         43.8300   12.5500   25.2900 O.3       1 SER1        0.0000 
     23 OG         45.0700   12.6900   26.1200 O.3       1 SER1        0.0000 
     24 N          36.3500   11.0900   25.8900 N.am      2 ALA2        0.0000 
     25 N          36.8600    9.7900   25.3400 N.am      2 ALA2        0.0000 
     26 O          36.1900    9.0500   26.4600 O.2       2 ALA2        0.0000 
     27 N          37.3700    8.4900   24.7900 N.am      2 ALA2        0.0000 
     28 O          41.2200   10.8700   18.6300 O.2       2 ALA2        0.0000 
     29 O          40.5500   10.1400   19.7500 O.2       2 ALA2        0.0000 
     30 N          41.5900   15.6500   19.9800 N.am      2 ALA2        0.0000 
     31 N          41.1200    9.5400   21.7000 N.am      2 ALA2        0.0000 
     32 N          39.7900    8.0600   23.9500 N.am      2 ALA2        0.0000 
     33 N          42.3000    8.9800   20.0300 N.am      2 ALA2        0.0000 
     34 N          43.5000   16.5200   19.6800 N.am      2 ALA2        0.0000 
     35 O          39.3400   10.0600   27.0000 O.2       2 ALA2        0.0000 
     36 O          43.0300   10.4100   21.4100 O.2       2 ALA2        0.0000 
     37 N          42.3700    9.6800   22.5300 N.am      2 ALA2        0.0000 
     38 O          44.2800   10.5500   22.2400 O.2       2 ALA2        0.0000 
     39 O          43.6100    9.8200   23.3600 O.2       2 ALA2        0.0000 
     40 N          44.3400   11.2500   24.7400 N.am      2 ALA2        0.0000 
     41 N          45.5800   11.3900   25.5700 N.am      2 ALA2        0.0000 
     42 OD1        38.7000    9.9600   22.5500 O.co2     3 ASP3        0.0000 
     43 OD1        38.0400    9.2300   23.6700 O.co2     3 ASP3        0.0000 
     44 OD1        39.8800    9.4000   20.8700 O.co2     3 ASP3        0.0000 
     45 OD1        40.3900    8.1000   20.3300 O.co2     3 ASP3        0.0000 
     46 OD1        37.5900   11.2300   26.7200 O.co2     3 ASP3        0.0000 
     47 OD1        36.9200   10.4900   27.8400 O.co2     3 ASP3        0.0000 
     48 OD1        38.8300   11.3600   27.5500 O.co2     3 ASP3        0.0000 
     49 CZ         37.5200   10.5200   24.2200 C.ar      4 PHE5        0.0000 
     50 CZ         38.7700   10.6600   25.0500 C.ar      4 PHE5        0.0000 
     51 CZ         40.6100   10.8400   22.2500 C.ar      4 PHE5        0.0000 
     52 CZ         39.9500   10.1000   23.3800 C.ar      4 PHE5        0.0000 
     53 CZ         42.1700   15.0500   21.9300 C.ar      4 PHE5        0.0000 
     54 CZ         39.5000   12.1000   26.4200 C.ar      4 PHE5        0.0000 
     55 CZ         44.0100   15.2200   19.1400 C.ar      4 PHE5        0.0000 
     56 CZ         43.3500   14.4900   20.2600 C.ar      4 PHE5        0.0000 
     57 CZ         42.0100   13.0100   22.5100 C.ar      4 PHE5        0.0000 
     58 CZ         40.6800   11.5400   24.7500 C.ar      4 PHE5        0.0000 
     59 CZ         43.8600   13.1900   19.7100 C.ar      4 PHE5        0.0000 
     60 CZ         41.8600   10.9800   23.0800 C.ar      4 PHE5        0.0000 
     61 CZ         44.7500   16.6600   20.5100 C.ar      4 PHE5        0.0000 
     62 CZ         41.9200   11.6800   25.5800 C.ar      4 PHE5        0.0000 
     63 CZ         42.6500   13.1100   26.9600 C.ar      4 PHE5        0.0000 
     64 CZ         44.4000   11.9500   27.2400 C.ar      4 PHE5        0.0000 
     65 CA         35.6800   10.3500   27.0100 C.3       5 GLY6        0.0000 
     66 CA         37.4300    9.1900   27.2900 C.3       5 GLY6        0.0000 
     67 CA         40.0100   10.8000   25.8800 C.3       5 GLY6        0.0000 
     68 CA         40.5200    9.5000   25.3300 C.3       5 GLY6        0.0000 
     69 CA         39.8500    8.7700   26.4500 C.3       5 GLY6        0.0000 
     70 CA         40.7400   12.2400   27.2500 C.3       5 GLY6        0.0000 
     71 CA         41.2500   10.9400   26.7100 C.3       5 GLY6        0.0000 
     72 CA         40.5800   10.2000   27.8300 C.3       5 GLY6        0.0000 
     73 CA         42.4300   10.3800   25.0300 C.3       5 GLY6        0.0000 
     74 CA         43.1600   11.8200   26.4100 C.3       5 GLY6        0.0000 
     75 CA         42.4900   11.0800   27.5300 C.3       5 GLY6        0.0000 
     76 CA         43.6700   10.5200   25.8600 C.3       5 GLY6        0.0000 
     77 CA         44.9200   10.6500   26.6900 C.3       5 GLY6        0.0000 
     78 DU         38.1000    9.9300   26.1700 H         6 CUB7        0.0000 
     79 DU         41.9500   12.3100   20.0100 H         6 CUB7        0.0000 
     80 DU         41.2800   11.5700   21.1300 H         6 CUB7        0.0000 
     81 DU         41.7900   10.2700   20.5800 H         6 CUB7        0.0000 
@<TRIPOS>BOND
@<TRIPOS>SUBSTRUCTURE
     1 SER1        1 GROUP   
     2 ALA2       24 GROUP   
     3 ASP3       42 GROUP   
     4 PHE5       49 GROUP   
     5 GLY6       65 GROUP   
     6 CUB7       78 GROUP   
@<TRIPOS>SET

