#    Name: 6myw_4_FMN
#    Modification time : Fri May 22 19:31:12 2020

@<TRIPOS>MOLECULE
6myw_4_FMN
   31    33     1     0     1
SMALL
NO_CHARGES


@<TRIPOS>ATOM
      1 N1         -9.3590    7.4930   20.6410 N.2       1 FMN401      0.0000 
      2 C2         -8.9930    6.6610   19.6770 C.2       1 FMN401      0.0000 
      3 O2         -9.8430    6.1430   18.9580 O.2       1 FMN401      0.0000 
      4 N3         -7.6330    6.4160   19.4740 N.am      1 FMN401      0.0000 
      5 C4         -6.6410    7.0420   20.1940 C.2       1 FMN401      0.0000 
      6 O4         -5.4570    6.7030   19.9920 O.2       1 FMN401      0.0000 
      7 C4A        -7.0230    7.9410   21.1800 C.2       1 FMN401      0.0000 
      8 N5         -6.1020    8.5830   21.9310 N.2       1 FMN401      0.0000 
      9 C5A        -6.4950    9.2430   23.0840 C.ar      1 FMN401      0.0000 
     10 C6         -5.5480    9.7950   23.9080 C.ar      1 FMN401      0.0000 
     11 C7         -5.9120   10.4390   25.0830 C.ar      1 FMN401      0.0000 
     12 C7M        -4.8610   10.9670   26.0250 C.3       1 FMN401      0.0000 
     13 C8         -7.2950   10.6510   25.3830 C.ar      1 FMN401      0.0000 
     14 C8M        -7.6460   11.4190   26.6080 C.3       1 FMN401      0.0000 
     15 C9         -8.2250   10.1140   24.5220 C.ar      1 FMN401      0.0000 
     16 C9A        -7.8890    9.4140   23.3580 C.ar      1 FMN401      0.0000 
     17 N10        -8.8350    8.8340   22.4780 N.pl3     1 FMN401      0.0000 
     18 C10        -8.4250    8.0480   21.4070 C.2       1 FMN401      0.0000 
     19 C1'       -10.2730    8.8590   22.8500 C.3       1 FMN401      0.0000 
     20 C2'       -10.5260    7.8130   23.9320 C.3       1 FMN401      0.0000 
     21 O2'       -10.4370    6.4740   23.4840 O.3       1 FMN401      0.0000 
     22 C3'       -11.8910    8.0030   24.6160 C.3       1 FMN401      0.0000 
     23 O3'       -12.8190    7.9870   23.5090 O.3       1 FMN401      0.0000 
     24 C4'       -12.0270    9.2630   25.4070 C.3       1 FMN401      0.0000 
     25 O4'       -10.9800    9.3340   26.3550 O.3       1 FMN401      0.0000 
     26 C5'       -13.4430    9.3410   26.0590 C.3       1 FMN401      0.0000 
     27 O5'       -13.6320    8.1990   26.9430 O.3       1 FMN401      0.0000 
     28 P         -13.4840    8.3820   28.5300 P.3       1 FMN401      0.0000 
     29 O1P       -13.6600    7.0190   29.0330 O.co2     1 FMN401      0.0000 
     30 O2P       -14.5440    9.3020   28.9850 O.co2     1 FMN401      0.0000 
     31 O3P       -12.0760    8.9350   28.7960 O.co2     1 FMN401      0.0000 
@<TRIPOS>BOND
     1    1    2 1    
     2    1   18 2    
     3    2    3 2    
     4    2    4 am   
     5    4    5 am   
     6    5    6 2    
     7    5    7 1    
     8    7    8 2    
     9    7   18 1    
    10    8    9 1    
    11    9   10 ar   
    12    9   16 ar   
    13   10   11 ar   
    14   11   12 1    
    15   11   13 ar   
    16   13   14 1    
    17   13   15 ar   
    18   15   16 ar   
    19   16   17 1    
    20   17   18 1    
    21   17   19 1    
    22   19   20 1    
    23   20   21 1    
    24   20   22 1    
    25   22   23 1    
    26   22   24 1    
    27   24   25 1    
    28   24   26 1    
    29   26   27 1    
    30   27   28 1    
    31   28   29 ar   
    32   28   30 ar   
    33   28   31 ar   
@<TRIPOS>SUBSTRUCTURE
     1 FMN401      1 GROUP   
@<TRIPOS>SET
ATOM$ORANGE STATIC     ATOMS   COLORGROUP SYSTEM 
34 2 2 5 5 7 7 9 9 10 10 11 11 12 12 13 13 14 \
14 15 15 16 16 18 18 19 19 20 20 22 22 24 24 26 26 

