#    Name: 6myw_1_FMN_CAVITY_N1_6
#    Modification time : Fri May 22 19:30:59 2020

@<TRIPOS>MOLECULE
6myw_1_FMN_CAVITY_N1_6
   74     0     6     0     0
SMALL
NO_CHARGES


@<TRIPOS>ATOM
      1 OG         12.8300    7.4500   53.6000 O.3       1 SER1        0.0000 
      2 OG         14.0100    6.8900   51.9300 O.3       1 SER1        0.0000 
      3 OG         13.3400    6.1600   53.0500 O.3       1 SER1        0.0000 
      4 OG         14.0700    7.5900   54.4300 O.3       1 SER1        0.0000 
      5 OG         18.0900    3.9700   54.4400 O.3       1 SER1        0.0000 
      6 OG         16.4600    6.5400   59.1600 O.3       1 SER1        0.0000 
      7 OG         16.8200    3.2000   59.1900 O.3       1 SER1        0.0000 
      8 OG         16.1500    2.4600   60.3100 O.3       1 SER1        0.0000 
      9 OG         17.3300    1.9000   58.6400 O.3       1 SER1        0.0000 
     10 OG         17.7000    6.6700   59.9900 O.3       1 SER1        0.0000 
     11 OG         18.8800    6.1100   58.3200 O.3       1 SER1        0.0000 
     12 OG         18.2200    5.3700   59.4400 O.3       1 SER1        0.0000 
     13 O          10.8500    5.8800   51.3900 O.2       2 ALA2        0.0000 
     14 N          12.1000    6.0200   52.2200 N.am      2 ALA2        0.0000 
     15 N          11.4300    5.2800   53.3500 N.am      2 ALA2        0.0000 
     16 O          13.2700    5.4500   50.5500 O.2       2 ALA2        0.0000 
     17 N          12.1600    6.7200   54.7200 N.am      2 ALA2        0.0000 
     18 N          14.5800    6.2900   53.8800 N.am      2 ALA2        0.0000 
     19 N          15.8200    6.4300   54.7100 N.am      2 ALA2        0.0000 
     20 O          14.4900    4.9600   56.9600 O.2       2 ALA2        0.0000 
     21 O          14.3300    2.9200   57.5300 O.2       2 ALA2        0.0000 
     22 O          13.6600    2.1900   58.6500 O.2       2 ALA2        0.0000 
     23 N          15.8900    7.1300   57.2100 N.am      2 ALA2        0.0000 
     24 O          15.2200    6.4000   58.3300 O.2       2 ALA2        0.0000 
     25 N          16.4000    5.8300   56.6600 N.am      2 ALA2        0.0000 
     26 O          15.7300    5.1000   57.7900 O.2       2 ALA2        0.0000 
     27 O          16.2400    3.8000   57.2400 O.2       2 ALA2        0.0000 
     28 O          15.5700    3.0600   58.3600 O.2       2 ALA2        0.0000 
     29 O          15.4200    1.0300   58.9400 O.2       2 ALA2        0.0000 
     30 N          17.1300    7.2700   58.0400 N.am      2 ALA2        0.0000 
     31 N          18.3100    6.7100   56.3700 N.am      2 ALA2        0.0000 
     32 N          17.6400    5.9700   57.4900 N.am      2 ALA2        0.0000 
     33 O          16.9700    5.2400   58.6100 O.2       2 ALA2        0.0000 
     34 O          16.3100    4.5000   59.7400 O.2       2 ALA2        0.0000 
     35 O          18.8200    5.4100   55.8200 O.2       2 ALA2        0.0000 
     36 N          17.8400    0.6000   58.0900 N.am      2 ALA2        0.0000 
     37 N          18.3700    7.4100   58.8700 N.am      2 ALA2        0.0000 
     38 OD1        11.3600    4.5800   50.8500 O.co2     3 ASP3        0.0000 
     39 OD1        13.1200    3.4200   51.1300 O.co2     3 ASP3        0.0000 
     40 OD1        13.9100    5.5600   55.0000 O.co2     3 ASP3        0.0000 
     41 OD1        15.1600    5.7000   55.8300 O.co2     3 ASP3        0.0000 
     42 CZ         12.6100    4.7200   51.6700 C.ar      4 PHE5        0.0000 
     43 CZ         11.9400    3.9800   52.8000 C.ar      4 PHE5        0.0000 
     44 CZ         13.8500    4.8600   52.5000 C.ar      4 PHE5        0.0000 
     45 CZ         13.1800    4.1200   53.6300 C.ar      4 PHE5        0.0000 
     46 CZ         14.3600    3.5600   51.9600 C.ar      4 PHE5        0.0000 
     47 CZ         15.0900    4.9900   53.3300 C.ar      4 PHE5        0.0000 
     48 CZ         14.4200    4.2600   54.4600 C.ar      4 PHE5        0.0000 
     49 CZ         13.0900    2.7800   56.7000 C.ar      4 PHE5        0.0000 
     50 CZ         12.9300    0.7500   57.2800 C.ar      4 PHE5        0.0000 
     51 CZ         15.6700    4.4000   55.2900 C.ar      4 PHE5        0.0000 
     52 CZ         15.0000    3.6600   56.4100 C.ar      4 PHE5        0.0000 
     53 CZ         16.8400    3.8300   53.6100 C.ar      4 PHE5        0.0000 
     54 CZ         14.8400    1.6200   56.9800 C.ar      4 PHE5        0.0000 
     55 CZ         15.3500    0.3200   56.4300 C.ar      4 PHE5        0.0000 
     56 CZ         15.8600   -0.9700   55.8900 C.ar      4 PHE5        0.0000 
     57 CZ         17.4200    3.2400   55.5700 C.ar      4 PHE5        0.0000 
     58 CZ         16.7500    2.5000   56.6900 C.ar      4 PHE5        0.0000 
     59 CZ         16.0900    1.7600   57.8100 C.ar      4 PHE5        0.0000 
     60 CZ         17.2600    1.2000   56.1400 C.ar      4 PHE5        0.0000 
     61 CZ         16.6000    0.4600   57.2600 C.ar      4 PHE5        0.0000 
     62 CA         12.7600    6.7500   51.1000 C.3       5 GLY6        0.0000 
     63 CA         12.6700    5.4200   54.1800 C.3       5 GLY6        0.0000 
     64 CA         14.5200    5.5900   51.3800 C.3       5 GLY6        0.0000 
     65 CA         15.0300    4.2900   50.8300 C.3       5 GLY6        0.0000 
     66 CA         15.2500    7.0300   52.7600 C.3       5 GLY6        0.0000 
     67 CA         13.2500    4.8200   56.1300 C.3       5 GLY6        0.0000 
     68 CA         16.2700    4.4300   51.6600 C.3       5 GLY6        0.0000 
     69 CA         16.3300    5.1300   54.1600 C.3       5 GLY6        0.0000 
     70 CA         14.1800    0.8900   58.1100 C.3       5 GLY6        0.0000 
     71 CA         18.2400    6.0100   53.8700 C.3       5 GLY6        0.0000 
     72 CA         14.9100    2.3200   59.4800 C.3       5 GLY6        0.0000 
     73 DU         16.9100    4.5400   56.1100 H         6 CUB7        0.0000 
     74 DU         17.4800    3.9400   58.0700 H         6 CUB7        0.0000 
@<TRIPOS>BOND
@<TRIPOS>SUBSTRUCTURE
     1 SER1        1 GROUP   
     2 ALA2       13 GROUP   
     3 ASP3       38 GROUP   
     4 PHE5       42 GROUP   
     5 GLY6       62 GROUP   
     6 CUB7       73 GROUP   
@<TRIPOS>SET

