#    Name: 6myw_4_FMN_CAVITY_N1_4
#    Modification time : Fri May 22 19:31:14 2020

@<TRIPOS>MOLECULE
6myw_4_FMN_CAVITY_N1_4
   78     0     6     0     0
SMALL
NO_CHARGES


@<TRIPOS>ATOM
      1 OG        -11.8100    7.9900   25.2900 O.3       1 SER1        0.0000 
      2 OG         -7.9600   10.3700   19.1300 O.3       1 SER1        0.0000 
      3 OG         -6.7800    9.8100   17.4600 O.3       1 SER1        0.0000 
      4 OG         -7.4500    9.0700   18.5800 O.3       1 SER1        0.0000 
      5 OG         -6.9400    7.7700   18.0300 O.3       1 SER1        0.0000 
      6 OG         -6.7200   10.5100   19.9600 O.3       1 SER1        0.0000 
      7 OG         -6.2100    9.2100   19.4100 O.3       1 SER1        0.0000 
      8 OG         -6.8700    8.4700   20.5300 O.3       1 SER1        0.0000 
      9 OG         -5.7000    7.9100   18.8600 O.3       1 SER1        0.0000 
     10 OG         -6.3600    7.1700   19.9800 O.3       1 SER1        0.0000 
     11 OG         -5.9900   11.9500   21.3300 O.3       1 SER1        0.0000 
     12 OG         -6.6500   11.2100   22.4600 O.3       1 SER1        0.0000 
     13 OG         -6.5900   11.9100   24.9600 O.3       1 SER1        0.0000 
     14 OG         -6.0800   10.6100   24.4100 O.3       1 SER1        0.0000 
     15 N         -13.5600    9.1500   25.0100 N.am      2 ALA2        0.0000 
     16 N         -14.2300    8.4100   26.1400 N.am      2 ALA2        0.0000 
     17 O         -10.3800   10.7900   19.9700 O.2       2 ALA2        0.0000 
     18 O         -11.0500   10.0600   21.0900 O.2       2 ALA2        0.0000 
     19 O          -9.2000   10.2300   18.3000 O.2       2 ALA2        0.0000 
     20 O         -12.9900    8.5500   26.9600 O.2       2 ALA2        0.0000 
     21 O         -12.4700    7.2500   26.4200 O.2       2 ALA2        0.0000 
     22 O          -8.6300    9.6300   20.2500 O.2       2 ALA2        0.0000 
     23 O          -9.2900    8.9000   21.3700 O.2       2 ALA2        0.0000 
     24 N          -9.9600    8.1600   22.5000 N.am      2 ALA2        0.0000 
     25 N         -10.6300    7.4200   23.6200 N.am      2 ALA2        0.0000 
     26 O          -8.1200    8.3300   19.7000 O.2       2 ALA2        0.0000 
     27 N          -8.7800    7.6000   20.8300 N.am      2 ALA2        0.0000 
     28 N          -7.6000    7.0400   19.1500 N.am      2 ALA2        0.0000 
     29 O         -11.7400    8.6900   27.7900 O.2       2 ALA2        0.0000 
     30 N          -8.0500    9.0400   22.2000 N.am      2 ALA2        0.0000 
     31 N          -8.7200    8.3000   23.3300 N.am      2 ALA2        0.0000 
     32 N          -9.3900    7.5600   24.4500 N.am      2 ALA2        0.0000 
     33 N          -7.5400    7.7400   21.6500 N.am      2 ALA2        0.0000 
     34 O          -6.1400    9.9100   21.9100 O.2       2 ALA2        0.0000 
     35 O          -6.8100    9.1700   23.0300 O.2       2 ALA2        0.0000 
     36 O          -5.6300    8.6100   21.3600 O.2       2 ALA2        0.0000 
     37 O          -4.9000   10.0500   22.7400 O.2       2 ALA2        0.0000 
     38 O          -5.5700    9.3100   23.8600 O.2       2 ALA2        0.0000 
     39 OD1       -12.8900    9.8800   23.8900 O.co2     3 ASP3        0.0000 
     40 OD1       -13.5000    9.8500   27.5100 O.co2     3 ASP3        0.0000 
     41 OD1       -11.5900   10.7200   27.2200 O.co2     3 ASP3        0.0000 
     42 OD1       -11.0800    9.4200   26.6700 O.co2     3 ASP3        0.0000 
     43 CZ        -12.8300   10.5800   26.3900 C.ar      4 PHE5        0.0000 
     44 CZ         -9.6500   12.2300   21.3500 C.ar      4 PHE5        0.0000 
     45 CZ        -11.6500   10.0200   24.7200 C.ar      4 PHE5        0.0000 
     46 CZ        -12.3200    9.2900   25.8400 C.ar      4 PHE5        0.0000 
     47 CZ         -9.1400   10.9300   20.8000 C.ar      4 PHE5        0.0000 
     48 CZ         -9.8100   10.2000   21.9200 C.ar      4 PHE5        0.0000 
     49 CZ        -10.4700    9.4600   23.0500 C.ar      4 PHE5        0.0000 
     50 CZ        -11.1400    8.7200   24.1700 C.ar      4 PHE5        0.0000 
     51 CZ        -10.4100   10.1600   25.5500 C.ar      4 PHE5        0.0000 
     52 CZ         -7.9000   11.0700   21.6300 C.ar      4 PHE5        0.0000 
     53 CZ         -9.2300    9.6000   23.8700 C.ar      4 PHE5        0.0000 
     54 CZ         -5.5400    9.9500   18.2800 C.ar      4 PHE5        0.0000 
     55 CZ         -9.6800   11.6000   26.9200 C.ar      4 PHE5        0.0000 
     56 CZ         -8.5000   11.0400   25.2500 C.ar      4 PHE5        0.0000 
     57 CZ         -7.3200   10.4700   23.5800 C.ar      4 PHE5        0.0000 
     58 CZ         -7.7700   12.4700   26.6300 C.ar      4 PHE5        0.0000 
     59 CZ         -7.2600   11.1700   26.0800 C.ar      4 PHE5        0.0000 
     60 CZ         -6.0100   11.3100   26.9100 C.ar      4 PHE5        0.0000 
     61 CZ         -4.8400   10.7500   25.2400 C.ar      4 PHE5        0.0000 
     62 CA        -11.7100    9.3200   22.2200 C.3       5 GLY6        0.0000 
     63 CA        -12.3800    8.5800   23.3400 C.3       5 GLY6        0.0000 
     64 CA         -9.9000    8.8600   25.0000 C.3       5 GLY6        0.0000 
     65 CA        -10.5600    8.1200   26.1200 C.3       5 GLY6        0.0000 
     66 CA         -9.1700   10.3000   26.3800 C.3       5 GLY6        0.0000 
     67 CA         -9.8300    9.5600   27.5000 C.3       5 GLY6        0.0000 
     68 CA         -7.9900    9.7400   24.7000 C.3       5 GLY6        0.0000 
     69 CA         -4.8100   11.3800   19.6600 C.3       5 GLY6        0.0000 
     70 CA         -5.4700   10.6500   20.7900 C.3       5 GLY6        0.0000 
     71 CA         -7.4800    8.4400   24.1600 C.3       5 GLY6        0.0000 
     72 CA         -6.3000    7.8700   22.4800 C.3       5 GLY6        0.0000 
     73 CA         -8.4300   11.7400   27.7500 C.3       5 GLY6        0.0000 
     74 CA         -7.9200   10.4400   27.2000 C.3       5 GLY6        0.0000 
     75 CA         -6.7500    9.8800   25.5300 C.3       5 GLY6        0.0000 
     76 CA         -5.5000   10.0100   26.3600 C.3       5 GLY6        0.0000 
     77 DU         -7.2300   11.8100   20.5000 H         6 CUB7        0.0000 
     78 DU         -7.3800    9.7700   21.0800 H         6 CUB7        0.0000 
@<TRIPOS>BOND
@<TRIPOS>SUBSTRUCTURE
     1 SER1        1 GROUP   
     2 ALA2       15 GROUP   
     3 ASP3       39 GROUP   
     4 PHE5       43 GROUP   
     5 GLY6       62 GROUP   
     6 CUB7       77 GROUP   
@<TRIPOS>SET

