#    Name: 6myw_3_FMN
#    Modification time : Fri May 22 19:31:07 2020

@<TRIPOS>MOLECULE
6myw_3_FMN
   31    33     1     0     1
SMALL
NO_CHARGES


@<TRIPOS>ATOM
      1 N1         40.2950    8.7200   20.7060 N.2       1 FMN401      0.0000 
      2 C2         40.6910    7.9260   19.7070 C.2       1 FMN401      0.0000 
      3 O2         39.8750    7.3800   18.9440 O.2       1 FMN401      0.0000 
      4 N3         42.0270    7.6210   19.5050 N.am      1 FMN401      0.0000 
      5 C4         43.0480    8.1540   20.2680 C.2       1 FMN401      0.0000 
      6 O4         44.2270    7.8420   20.0360 O.2       1 FMN401      0.0000 
      7 C4A        42.6340    9.0980   21.2480 C.2       1 FMN401      0.0000 
      8 N5         43.5630    9.6300   22.0460 N.2       1 FMN401      0.0000 
      9 C5A        43.1930   10.3080   23.1700 C.ar      1 FMN401      0.0000 
     10 C6         44.1380   10.8010   24.1110 C.ar      1 FMN401      0.0000 
     11 C7         43.7730   11.4000   25.2620 C.ar      1 FMN401      0.0000 
     12 C7M        44.8220   11.9000   26.2430 C.3       1 FMN401      0.0000 
     13 C8         42.3920   11.6490   25.5360 C.ar      1 FMN401      0.0000 
     14 C8M        41.9990   12.3020   26.7950 C.3       1 FMN401      0.0000 
     15 C9         41.4790   11.0980   24.6560 C.ar      1 FMN401      0.0000 
     16 C9A        41.8220   10.4840   23.4710 C.ar      1 FMN401      0.0000 
     17 N10        40.8580    9.9450   22.5650 N.pl3     1 FMN401      0.0000 
     18 C10        41.2040    9.2380   21.4990 C.2       1 FMN401      0.0000 
     19 C1'        39.4410    9.9920   22.9360 C.3       1 FMN401      0.0000 
     20 C2'        39.1620    8.9210   23.9910 C.3       1 FMN401      0.0000 
     21 O2'        39.2360    7.5920   23.4410 O.3       1 FMN401      0.0000 
     22 C3'        37.7820    8.9890   24.6350 C.3       1 FMN401      0.0000 
     23 O3'        36.8700    9.0600   23.5440 O.3       1 FMN401      0.0000 
     24 C4'        37.6740   10.2230   25.4870 C.3       1 FMN401      0.0000 
     25 O4'        38.6930   10.3190   26.4310 O.3       1 FMN401      0.0000 
     26 C5'        36.2940   10.3150   26.1610 C.3       1 FMN401      0.0000 
     27 O5'        36.0480    9.1670   26.9540 O.3       1 FMN401      0.0000 
     28 P          36.1660    9.2660   28.5810 P.3       1 FMN401      0.0000 
     29 O1P        35.9510    7.8900   29.0170 O.co2     1 FMN401      0.0000 
     30 O2P        35.0880   10.2170   29.0630 O.co2     1 FMN401      0.0000 
     31 O3P        37.5480    9.8240   28.8660 O.co2     1 FMN401      0.0000 
@<TRIPOS>BOND
     1    1    2 1    
     2    1   18 2    
     3    2    3 2    
     4    2    4 am   
     5    4    5 am   
     6    5    6 2    
     7    5    7 1    
     8    7    8 2    
     9    7   18 1    
    10    8    9 1    
    11    9   10 ar   
    12    9   16 ar   
    13   10   11 ar   
    14   11   12 1    
    15   11   13 ar   
    16   13   14 1    
    17   13   15 ar   
    18   15   16 ar   
    19   16   17 1    
    20   17   18 1    
    21   17   19 1    
    22   19   20 1    
    23   20   21 1    
    24   20   22 1    
    25   22   23 1    
    26   22   24 1    
    27   24   25 1    
    28   24   26 1    
    29   26   27 1    
    30   27   28 1    
    31   28   29 ar   
    32   28   30 ar   
    33   28   31 ar   
@<TRIPOS>SUBSTRUCTURE
     1 FMN401      1 GROUP   
@<TRIPOS>SET
ATOM$ORANGE STATIC     ATOMS   COLORGROUP SYSTEM 
34 2 2 5 5 7 7 9 9 10 10 11 11 12 12 13 13 14 \
14 15 15 16 16 18 18 19 19 20 20 22 22 24 24 26 26 

