#    Name: 5v3c_1_AMH
#    Modification time : Fri May 22 19:14:32 2020

@<TRIPOS>MOLECULE
5v3c_1_AMH
   11    11     1     0     0
SMALL
NO_CHARGES


@<TRIPOS>ATOM
      1 C1         14.2340   23.8510   91.9210 C.3       1 AMH402      0.0000 
      2 C2         15.0300   25.0360   91.3510 C.3       1 AMH402      0.0000 
      3 C3         14.9110   25.0930   89.8240 C.3       1 AMH402      0.0000 
      4 C4         15.3750   23.8030   89.1610 C.3       1 AMH402      0.0000 
      5 C5         14.5920   22.6370   89.7440 C.3       1 AMH402      0.0000 
      6 C6         14.7220   22.5570   91.2630 C.3       1 AMH402      0.0000 
      7 C7         15.1370   23.8400   87.6320 C.3       1 AMH402      0.0000 
      8 C8         14.3560   23.7470   93.4400 C.2       1 AMH402      0.0000 
      9 N          16.1200   24.7760   87.0310 N.4       1 AMH402      0.0000 
     10 O1         15.5040   23.8970   93.9170 O.co2     1 AMH402      0.0000 
     11 O2         13.3190   23.5220   94.1120 O.co2     1 AMH402      0.0000 
@<TRIPOS>BOND
     1    1    2 1    
     2    1    6 1    
     3    1    8 1    
     4    2    3 1    
     5    3    4 1    
     6    4    5 1    
     7    4    7 1    
     8    5    6 1    
     9    7    9 1    
    10    8   10 ar   
    11    8   11 ar   
@<TRIPOS>SUBSTRUCTURE
     1 AMH402      1 GROUP   
@<TRIPOS>SET

