#    Name: 5v3c_1_AMH_CAVITY_N1_ALL
#    Modification time : Fri May 22 19:14:33 2020

@<TRIPOS>MOLECULE
5v3c_1_AMH_CAVITY_N1_ALL
   75     0     6     0     0
SMALL
NO_CHARGES


@<TRIPOS>ATOM
      1 OG         14.2000   26.1700   87.3300 O.3       1 SER1        0.0000 
      2 OG         14.8500   27.2300   86.4900 O.3       1 SER1        0.0000 
      3 OG         14.9000   26.7000   88.5500 O.3       1 SER1        0.0000 
      4 O           8.5300   23.7700   87.9500 O.2       2 ALA2        0.0000 
      5 O           9.6900   22.8500   87.6800 O.2       2 ALA2        0.0000 
      6 N           9.2300   24.3000   89.1600 N.am      2 ALA2        0.0000 
      7 O          12.7000   21.5400   88.3700 O.2       2 ALA2        0.0000 
      8 N          14.0500   23.1300   88.7400 N.am      2 ALA2        0.0000 
      9 N          14.7000   24.1900   87.9000 N.am      2 ALA2        0.0000 
     10 N          15.8600   23.2700   87.6400 N.am      2 ALA2        0.0000 
     11 N          15.3500   25.2500   87.0700 N.am      2 ALA2        0.0000 
     12 N          15.9100   22.7400   89.6900 N.am      2 ALA2        0.0000 
     13 N          15.4000   24.7200   89.1200 N.am      2 ALA2        0.0000 
     14 O          14.8000   23.1300   92.0100 O.2       2 ALA2        0.0000 
     15 O          15.9600   22.2100   91.7500 O.2       2 ALA2        0.0000 
     16 O          15.4500   24.1900   91.1700 O.2       2 ALA2        0.0000 
     17 O          16.6100   23.2700   90.9100 O.2       2 ALA2        0.0000 
     18 O          15.5000   23.6600   93.2300 O.2       2 ALA2        0.0000 
     19 N          15.0000   25.6400   92.6500 N.am      2 ALA2        0.0000 
     20 O          16.1500   24.7200   92.3900 O.2       2 ALA2        0.0000 
     21 NZ          9.5400   19.8100   89.0900 N.4       3 LYS4        0.0000 
     22 NZ          9.0300   21.7900   88.5200 N.4       3 LYS4        0.0000 
     23 NZ         10.1900   20.8700   88.2500 N.4       3 LYS4        0.0000 
     24 NZ         11.3400   19.9500   87.9900 N.4       3 LYS4        0.0000 
     25 NZ         10.8400   21.9300   87.4200 N.4       3 LYS4        0.0000 
     26 NZ         12.0000   21.0100   87.1500 N.4       3 LYS4        0.0000 
     27 NZ          9.7400   22.3200   89.7300 N.4       3 LYS4        0.0000 
     28 NZ         12.9900   22.9900   93.1200 N.4       3 LYS4        0.0000 
     29 CZ          9.1800   24.8300   87.1100 C.ar      4 PHE5        0.0000 
     30 CZ         10.9900   24.9700   86.0000 C.ar      4 PHE5        0.0000 
     31 CZ         10.3900   23.3800   88.9000 C.ar      4 PHE5        0.0000 
     32 CZ         11.0400   24.4400   88.0600 C.ar      4 PHE5        0.0000 
     33 CZ         12.1900   23.5200   87.7900 C.ar      4 PHE5        0.0000 
     34 CZ         12.8400   24.5800   86.9500 C.ar      4 PHE5        0.0000 
     35 CZ         13.5000   25.6400   86.1200 C.ar      4 PHE5        0.0000 
     36 CZ         11.0900   23.9100   90.1100 C.ar      4 PHE5        0.0000 
     37 CZ         12.2400   22.9900   89.8500 C.ar      4 PHE5        0.0000 
     38 CZ         12.8900   24.0500   89.0100 C.ar      4 PHE5        0.0000 
     39 CZ         13.5500   25.1100   88.1700 C.ar      4 PHE5        0.0000 
     40 CZ         12.9400   23.5200   91.0600 C.ar      4 PHE5        0.0000 
     41 CZ         13.6000   24.5800   90.2200 C.ar      4 PHE5        0.0000 
     42 CZ         14.2500   25.6400   89.3800 C.ar      4 PHE5        0.0000 
     43 CZ         14.3000   25.1100   91.4400 C.ar      4 PHE5        0.0000 
     44 CZ         14.9500   26.1700   90.6000 C.ar      4 PHE5        0.0000 
     45 CA         12.6500   22.0700   86.3100 C.3       5 GLY6        0.0000 
     46 CA         10.2400   20.3400   90.3100 C.3       5 GLY6        0.0000 
     47 CA         11.3900   19.4200   90.0400 C.3       5 GLY6        0.0000 
     48 CA         12.0500   20.4800   89.2100 C.3       5 GLY6        0.0000 
     49 CA         13.3500   22.6000   87.5300 C.3       5 GLY6        0.0000 
     50 CA         14.0000   23.6600   86.6900 C.3       5 GLY6        0.0000 
     51 CA          9.7900   21.7900   91.7900 C.3       5 GLY6        0.0000 
     52 CA         10.9400   20.8700   91.5200 C.3       5 GLY6        0.0000 
     53 CA         10.4400   22.8500   90.9500 C.3       5 GLY6        0.0000 
     54 CA         11.5900   21.9300   90.6900 C.3       5 GLY6        0.0000 
     55 CA         12.7500   21.0100   90.4200 C.3       5 GLY6        0.0000 
     56 CA         13.4000   22.0700   89.5800 C.3       5 GLY6        0.0000 
     57 CA         10.4900   22.3200   93.0000 C.3       5 GLY6        0.0000 
     58 CA         11.1400   23.3800   92.1700 C.3       5 GLY6        0.0000 
     59 CA         12.2900   22.4600   91.9000 C.3       5 GLY6        0.0000 
     60 CA         13.4500   21.5400   91.6400 C.3       5 GLY6        0.0000 
     61 CA         14.1000   22.6000   90.8000 C.3       5 GLY6        0.0000 
     62 CA         15.2500   21.6800   90.5300 C.3       5 GLY6        0.0000 
     63 CA         16.0500   25.7800   88.2800 C.3       5 GLY6        0.0000 
     64 CA         14.1500   22.0700   92.8500 C.3       5 GLY6        0.0000 
     65 CA         13.6500   24.0500   92.2800 C.3       5 GLY6        0.0000 
     66 CA         16.1000   25.2500   90.3400 C.3       5 GLY6        0.0000 
     67 CA         14.3500   24.5800   93.4900 C.3       5 GLY6        0.0000 
     68 DU          8.4800   24.3000   85.8900 H         6 CUB7        0.0000 
     69 DU         11.4400   23.5200   84.5200 H         6 CUB7        0.0000 
     70 DU         10.3400   23.9100   86.8400 H         6 CUB7        0.0000 
     71 DU         11.4900   22.9900   86.5800 H         6 CUB7        0.0000 
     72 DU         12.1400   24.0500   85.7400 H         6 CUB7        0.0000 
     73 DU         10.8900   21.4000   89.4700 H         6 CUB7        0.0000 
     74 DU         11.5400   22.4600   88.6300 H         6 CUB7        0.0000 
     75 DU         14.7500   23.6600   89.9600 H         6 CUB7        0.0000 
@<TRIPOS>BOND
@<TRIPOS>SUBSTRUCTURE
     1 SER1        1 GROUP   
     2 ALA2        4 GROUP   
     3 LYS4       21 GROUP   
     4 PHE5       29 GROUP   
     5 GLY6       45 GROUP   
     6 CUB7       68 GROUP   
@<TRIPOS>SET

