#    Name: 6r0w_2_ADP
#    Modification time : Fri May 22 19:24:38 2020

@<TRIPOS>MOLECULE
6r0w_2_ADP
   27    29     1     0     1
SMALL
NO_CHARGES


@<TRIPOS>ATOM
      1 PB         73.2600   55.0100  208.3070 P.3       1 ADP501      0.0000 
      2 O1B        73.6740   54.6270  206.9210 O.co2     1 ADP501      0.0000 
      3 O2B        73.9720   54.2370  209.3770 O.co2     1 ADP501      0.0000 
      4 O3B        71.7750   55.0890  208.4950 O.co2     1 ADP501      0.0000 
      5 PA         72.9170   57.8240  208.1100 P.3       1 ADP501      0.0000 
      6 O1A        73.8910   58.9660  208.1010 O.co2     1 ADP501      0.0000 
      7 O2A        71.7420   57.9200  209.0460 O.co2     1 ADP501      0.0000 
      8 O3A        73.7910   56.5160  208.4480 O.3       1 ADP501      0.0000 
      9 O5'        72.3350   57.6450  206.6190 O.3       1 ADP501      0.0000 
     10 C5'        70.9340   57.4700  206.4380 C.3       1 ADP501      0.0000 
     11 C4'        70.4800   57.7170  205.0110 C.3       1 ADP501      0.0000 
     12 O4'        69.1250   57.2890  204.9100 O.3       1 ADP501      0.0000 
     13 C3'        70.5080   59.1910  204.6720 C.3       1 ADP501      0.0000 
     14 O3'        71.3090   59.4040  203.5130 O.3       1 ADP501      0.0000 
     15 C2'        69.0910   59.5880  204.3440 C.3       1 ADP501      0.0000 
     16 O2'        68.9890   59.8490  202.9480 O.3       1 ADP501      0.0000 
     17 C1'        68.2440   58.3790  204.6420 C.3       1 ADP501      0.0000 
     18 N9         67.4050   58.6470  205.8380 N.pl3     1 ADP501      0.0000 
     19 C8         67.8340   59.2040  206.9850 C.2       1 ADP501      0.0000 
     20 N7         66.8260   59.3190  207.8860 N.2       1 ADP501      0.0000 
     21 C5         65.7170   58.8280  207.3120 C.ar      1 ADP501      0.0000 
     22 C6         64.3080   58.6530  207.7110 C.ar      1 ADP501      0.0000 
     23 N6         63.8780   59.0300  208.9390 N.pl3     1 ADP501      0.0000 
     24 N1         63.4670   58.1020  206.8310 N.ar      1 ADP501      0.0000 
     25 C2         63.8890   57.7290  205.6210 C.ar      1 ADP501      0.0000 
     26 N3         65.1500   57.8560  205.1890 N.ar      1 ADP501      0.0000 
     27 C4         66.1020   58.3950  205.9690 C.ar      1 ADP501      0.0000 
@<TRIPOS>BOND
     1    1    2 ar   
     2    1    3 ar   
     3    1    4 ar   
     4    1    8 1    
     5    5    6 ar   
     6    5    7 ar   
     7    5    8 1    
     8    5    9 1    
     9    9   10 1    
    10   10   11 1    
    11   11   12 1    
    12   11   13 1    
    13   12   17 1    
    14   13   14 1    
    15   13   15 1    
    16   15   16 1    
    17   15   17 1    
    18   17   18 1    
    19   18   19 1    
    20   18   27 1    
    21   19   20 2    
    22   20   21 1    
    23   21   22 ar   
    24   21   27 ar   
    25   22   23 1    
    26   22   24 ar   
    27   24   25 ar   
    28   25   26 ar   
    29   26   27 ar   
@<TRIPOS>SUBSTRUCTURE
     1 ADP501      1 GROUP   
@<TRIPOS>SET
ATOM$ORANGE STATIC     ATOMS   COLORGROUP SYSTEM 
20 10 10 11 11 13 13 15 15 17 17 19 19 21 21 22 22 25 \
25 27 27 

