#    Name: 6r0w_2_ADP_CAVITY_N1_4
#    Modification time : Fri May 22 19:24:39 2020

@<TRIPOS>MOLECULE
6r0w_2_ADP_CAVITY_N1_4
  145     0     7     0     0
SMALL
NO_CHARGES


@<TRIPOS>ATOM
      1 OG         67.1500   57.6600  209.4700 O.3       1 SER1        0.0000 
      2 OG         65.7600   57.2600  209.8300 O.3       1 SER1        0.0000 
      3 OG         68.8400   58.3500  210.5500 O.3       1 SER1        0.0000 
      4 OG         66.0500   57.5500  211.2700 O.3       1 SER1        0.0000 
      5 N          69.7200   59.1200  202.4100 N.am      2 ALA2        0.0000 
      6 N          70.1800   57.7100  202.6000 N.am      2 ALA2        0.0000 
      7 N          68.6400   63.6600  203.2800 N.am      2 ALA2        0.0000 
      8 N          70.5000   62.6500  203.1100 N.am      2 ALA2        0.0000 
      9 N          69.1000   62.2500  203.4700 N.am      2 ALA2        0.0000 
     10 N          67.7000   61.8400  203.8400 N.am      2 ALA2        0.0000 
     11 N          62.1100   60.2300  205.2900 N.am      2 ALA2        0.0000 
     12 N          60.7100   59.8300  205.6600 N.am      2 ALA2        0.0000 
     13 N          70.9600   61.2300  203.3000 N.am      2 ALA2        0.0000 
     14 N          69.5600   60.8300  203.6600 N.am      2 ALA2        0.0000 
     15 N          68.1600   60.4300  204.0300 N.am      2 ALA2        0.0000 
     16 N          62.5700   58.8200  205.4800 N.am      2 ALA2        0.0000 
     17 N          70.0200   59.4100  203.8600 N.am      2 ALA2        0.0000 
     18 N          68.6200   59.0100  204.2200 N.am      2 ALA2        0.0000 
     19 N          67.2200   58.6100  204.5800 N.am      2 ALA2        0.0000 
     20 N          70.4700   58.0000  204.0500 N.am      2 ALA2        0.0000 
     21 N          68.4500   60.7200  205.4700 N.am      2 ALA2        0.0000 
     22 N          67.0500   60.3100  205.8300 N.am      2 ALA2        0.0000 
     23 N          65.6600   59.9100  206.2000 N.am      2 ALA2        0.0000 
     24 N          71.7100   60.1100  204.9300 N.am      2 ALA2        0.0000 
     25 N          67.5100   58.9000  206.0300 N.am      2 ALA2        0.0000 
     26 N          72.1600   58.6900  205.1300 N.am      2 ALA2        0.0000 
     27 N          71.2200   56.8700  205.6800 N.am      2 ALA2        0.0000 
     28 N          72.4600   58.9800  206.5700 N.am      2 ALA2        0.0000 
     29 N          71.5100   57.1600  207.1200 N.am      2 ALA2        0.0000 
     30 N          73.3700   56.1500  206.9500 N.am      2 ALA2        0.0000 
     31 N          74.1500   59.6700  207.6500 N.am      2 ALA2        0.0000 
     32 N          72.7500   59.2700  208.0100 N.am      2 ALA2        0.0000 
     33 N          73.2100   57.8600  208.2000 N.am      2 ALA2        0.0000 
     34 N          73.6600   56.4400  208.3900 N.am      2 ALA2        0.0000 
     35 OD1        68.7800   57.3100  202.9700 O.co2     3 ASP3        0.0000 
     36 OD1        64.4200   57.8000  205.3100 O.co2     3 ASP3        0.0000 
     37 OD1        69.0700   57.6000  204.4100 O.co2     3 ASP3        0.0000 
     38 OD1        70.9300   56.5800  204.2400 O.co2     3 ASP3        0.0000 
     39 OD1        69.5300   56.1800  204.6000 O.co2     3 ASP3        0.0000 
     40 OD1        67.9900   62.1300  205.2800 O.co2     3 ASP3        0.0000 
     41 OD1        66.1100   58.5000  206.3900 O.co2     3 ASP3        0.0000 
     42 OD1        64.7100   58.0900  206.7500 O.co2     3 ASP3        0.0000 
     43 OD1        69.3700   57.8900  205.8500 O.co2     3 ASP3        0.0000 
     44 OD1        67.9700   57.4800  206.2200 O.co2     3 ASP3        0.0000 
     45 OD1        66.5700   57.0800  206.5800 O.co2     3 ASP3        0.0000 
     46 OD1        65.1700   56.6800  206.9500 O.co2     3 ASP3        0.0000 
     47 OD1        63.7700   56.2800  207.3100 O.co2     3 ASP3        0.0000 
     48 OD1        69.8200   56.4700  206.0500 O.co2     3 ASP3        0.0000 
     49 OD1        68.2900   62.4200  206.7200 O.co2     3 ASP3        0.0000 
     50 OD1        66.8900   62.0200  207.0800 O.co2     3 ASP3        0.0000 
     51 OD1        65.4900   61.6200  207.4500 O.co2     3 ASP3        0.0000 
     52 OD1        64.0900   61.2100  207.8100 O.co2     3 ASP3        0.0000 
     53 OD1        67.3500   60.6000  207.2800 O.co2     3 ASP3        0.0000 
     54 OD1        67.1800   62.3100  208.5300 O.co2     3 ASP3        0.0000 
     55 OD1        65.7800   61.9100  208.8900 O.co2     3 ASP3        0.0000 
     56 OD1        69.0400   61.3000  208.3500 O.co2     3 ASP3        0.0000 
     57 OD1        67.6400   60.8900  208.7200 O.co2     3 ASP3        0.0000 
     58 OD1        66.2400   60.4900  209.0800 O.co2     3 ASP3        0.0000 
     59 OD1        70.8900   60.2800  208.1800 O.co2     3 ASP3        0.0000 
     60 OD1        69.4900   59.8800  208.5500 O.co2     3 ASP3        0.0000 
     61 OD1        68.1000   59.4800  208.9100 O.co2     3 ASP3        0.0000 
     62 OD1        66.7000   59.0800  209.2800 O.co2     3 ASP3        0.0000 
     63 OD1        71.3500   58.8700  208.3700 O.co2     3 ASP3        0.0000 
     64 OD1        66.9900   59.3700  210.7200 O.co2     3 ASP3        0.0000 
     65 OD1        65.5900   58.9600  211.0800 O.co2     3 ASP3        0.0000 
     66 OD1        74.4400   59.9600  209.0900 O.co2     3 ASP3        0.0000 
     67 OD1        71.6400   59.1600  209.8200 O.co2     3 ASP3        0.0000 
     68 OD1        70.2400   58.7600  210.1800 O.co2     3 ASP3        0.0000 
     69 OD1        74.9000   58.5500  209.2800 O.co2     3 ASP3        0.0000 
     70 OD1        72.1000   57.7400  210.0100 O.co2     3 ASP3        0.0000 
     71 OD1        74.7300   60.2500  210.5300 O.co2     3 ASP3        0.0000 
     72 OD1        73.3300   59.8500  210.9000 O.co2     3 ASP3        0.0000 
     73 OD1        71.9300   59.4500  211.2600 O.co2     3 ASP3        0.0000 
     74 OD1        70.5400   59.0500  211.6200 O.co2     3 ASP3        0.0000 
     75 OD1        69.1400   58.6400  211.9900 O.co2     3 ASP3        0.0000 
     76 OD1        75.1900   58.8400  210.7200 O.co2     3 ASP3        0.0000 
     77 NZ         70.7900   62.9400  204.5500 N.4       4 LYS4        0.0000 
     78 NZ         69.3900   62.5400  204.9100 N.4       4 LYS4        0.0000 
     79 NZ         63.8000   60.9200  206.3700 N.4       4 LYS4        0.0000 
     80 NZ         62.4000   60.5200  206.7300 N.4       4 LYS4        0.0000 
     81 NZ         69.8500   61.1200  205.1100 N.4       4 LYS4        0.0000 
     82 NZ         68.7400   61.0100  206.9100 N.4       4 LYS4        0.0000 
     83 NZ         72.0000   60.4000  206.3800 N.4       4 LYS4        0.0000 
     84 NZ         70.6000   59.9900  206.7400 N.4       4 LYS4        0.0000 
     85 NZ         69.6600   58.1800  207.3000 N.4       4 LYS4        0.0000 
     86 NZ         68.2600   57.7700  207.6600 N.4       4 LYS4        0.0000 
     87 NZ         66.8600   57.3700  208.0200 N.4       4 LYS4        0.0000 
     88 NZ         65.4600   56.9700  208.3900 N.4       4 LYS4        0.0000 
     89 NZ         70.1200   56.7600  207.4900 N.4       4 LYS4        0.0000 
     90 NZ         69.9500   58.4700  208.7400 N.4       4 LYS4        0.0000 
     91 NZ         68.5500   58.0600  209.1000 N.4       4 LYS4        0.0000 
     92 NZ         71.8100   57.4500  208.5700 N.4       4 LYS4        0.0000 
     93 NZ         70.4100   57.0500  208.9300 N.4       4 LYS4        0.0000 
     94 NZ         73.0400   59.5600  209.4500 N.4       4 LYS4        0.0000 
     95 NZ         74.2700   61.6700  210.3400 N.4       4 LYS4        0.0000 
     96 CZ         61.4600   58.7000  207.2900 C.ar      5 PHE5        0.0000 
     97 CZ         60.0600   58.3000  207.6500 C.ar      5 PHE5        0.0000 
     98 CZ         63.3200   57.6900  207.1200 C.ar      5 PHE5        0.0000 
     99 CZ         61.9200   57.2900  207.4800 C.ar      5 PHE5        0.0000 
    100 CZ         61.2900   60.4100  208.5400 C.ar      5 PHE5        0.0000 
    101 CZ         63.1500   59.4000  208.3700 C.ar      5 PHE5        0.0000 
    102 CZ         63.6100   57.9800  208.5600 C.ar      5 PHE5        0.0000 
    103 CZ         75.2300   55.1400  206.7800 C.ar      5 PHE5        0.0000 
    104 CZ         63.4400   59.6900  209.8100 C.ar      5 PHE5        0.0000 
    105 CZ         63.9000   58.2700  210.0000 C.ar      5 PHE5        0.0000 
    106 CZ         64.3600   56.8600  210.2000 C.ar      5 PHE5        0.0000 
    107 CZ         75.0600   56.8400  208.0300 C.ar      5 PHE5        0.0000 
    108 CZ         64.1900   58.5600  211.4500 C.ar      5 PHE5        0.0000 
    109 CZ         64.6500   57.1500  211.6400 C.ar      5 PHE5        0.0000 
    110 CZ         63.2500   56.7400  212.0000 C.ar      5 PHE5        0.0000 
    111 CA         69.8900   57.4200  201.1600 C.3       6 GLY6        0.0000 
    112 CA         71.9000   63.0500  202.7400 C.3       6 GLY6        0.0000 
    113 CA         63.9600   59.2200  205.1200 C.3       6 GLY6        0.0000 
    114 CA         61.1700   58.4100  205.8500 C.3       6 GLY6        0.0000 
    115 CA         59.7700   58.0100  206.2100 C.3       6 GLY6        0.0000 
    116 CA         63.0200   57.4000  205.6800 C.3       6 GLY6        0.0000 
    117 CA         71.2500   61.5200  204.7400 C.3       6 GLY6        0.0000 
    118 CA         73.0800   55.8600  205.5100 C.3       6 GLY6        0.0000 
    119 CA         71.6800   55.4600  205.8700 C.3       6 GLY6        0.0000 
    120 CA         64.0700   56.5700  208.7500 C.3       6 GLY6        0.0000 
    121 CA         71.9700   55.7500  207.3200 C.3       6 GLY6        0.0000 
    122 CA         73.8300   54.7300  207.1400 C.3       6 GLY6        0.0000 
    123 CA         72.2600   56.0400  208.7600 C.3       6 GLY6        0.0000 
    124 CA         74.1200   55.0200  208.5900 C.3       6 GLY6        0.0000 
    125 CA         72.7200   54.6200  208.9500 C.3       6 GLY6        0.0000 
    126 CA         73.5000   58.1500  209.6400 C.3       6 GLY6        0.0000 
    127 CA         73.9500   56.7300  209.8400 C.3       6 GLY6        0.0000 
    128 CA         72.5600   56.3300  210.2000 C.3       6 GLY6        0.0000 
    129 CA         73.7900   58.4400  211.0900 C.3       6 GLY6        0.0000 
    130 DU         61.0000   60.1200  207.1000 H         7 CUB7        0.0000 
    131 DU         64.2600   59.5100  206.5600 H         7 CUB7        0.0000 
    132 DU         62.8600   59.1100  206.9300 H         7 CUB7        0.0000 
    133 DU         70.3100   59.7000  205.3000 H         7 CUB7        0.0000 
    134 DU         68.9100   59.3000  205.6600 H         7 CUB7        0.0000 
    135 DU         70.7700   58.2900  205.4900 H         7 CUB7        0.0000 
    136 DU         62.6900   60.8100  208.1800 H         7 CUB7        0.0000 
    137 DU         65.9500   60.2000  207.6400 H         7 CUB7        0.0000 
    138 DU         64.5500   59.8000  208.0000 H         7 CUB7        0.0000 
    139 DU         69.2000   59.5900  207.1000 H         7 CUB7        0.0000 
    140 DU         67.8000   59.1900  207.4700 H         7 CUB7        0.0000 
    141 DU         66.4000   58.7900  207.8300 H         7 CUB7        0.0000 
    142 DU         65.0100   58.3800  208.2000 H         7 CUB7        0.0000 
    143 DU         71.0600   58.5800  206.9300 H         7 CUB7        0.0000 
    144 DU         64.8400   60.0900  209.4500 H         7 CUB7        0.0000 
    145 DU         65.3000   58.6700  209.6400 H         7 CUB7        0.0000 
@<TRIPOS>BOND
@<TRIPOS>SUBSTRUCTURE
     1 SER1        1 GROUP   
     2 ALA2        5 GROUP   
     3 ASP3       35 GROUP   
     4 LYS4       77 GROUP   
     5 PHE5       96 GROUP   
     6 GLY6      111 GROUP   
     7 CUB7      130 GROUP   
@<TRIPOS>SET

