#    Name: 6r0w_1_ADP
#    Modification time : Fri May 22 19:24:29 2020

@<TRIPOS>MOLECULE
6r0w_1_ADP
   27    29     1     0     1
SMALL
NO_CHARGES


@<TRIPOS>ATOM
      1 PB         81.1750   49.8080  174.9640 P.3       1 ADP602      0.0000 
      2 O1B        81.7410   51.0340  174.3020 O.co2     1 ADP602      0.0000 
      3 O2B        79.7980   49.9630  175.5360 O.co2     1 ADP602      0.0000 
      4 O3B        82.1330   49.1020  175.8850 O.co2     1 ADP602      0.0000 
      5 PA         81.9120   47.5430  173.5880 P.3       1 ADP602      0.0000 
      6 O1A        83.3290   48.0140  173.5310 O.co2     1 ADP602      0.0000 
      7 O2A        81.5010   46.5540  174.6500 O.co2     1 ADP602      0.0000 
      8 O3A        80.9700   48.8280  173.7180 O.3       1 ADP602      0.0000 
      9 O5'        81.4380   46.9490  172.1800 O.3       1 ADP602      0.0000 
     10 C5'        80.8380   47.7760  171.1900 C.3       1 ADP602      0.0000 
     11 C4'        80.6690   47.0190  169.8840 C.3       1 ADP602      0.0000 
     12 O4'        81.5140   47.6100  168.9020 O.3       1 ADP602      0.0000 
     13 C3'        81.0880   45.5690  170.0030 C.3       1 ADP602      0.0000 
     14 O3'        79.9450   44.7250  169.9010 O.3       1 ADP602      0.0000 
     15 C2'        82.0240   45.3060  168.8500 C.3       1 ADP602      0.0000 
     16 O2'        81.3970   44.3790  167.9670 O.3       1 ADP602      0.0000 
     17 C1'        82.1970   46.6220  168.1270 C.3       1 ADP602      0.0000 
     18 N9         83.6300   47.0090  167.9490 N.pl3     1 ADP602      0.0000 
     19 C8         84.2580   47.9980  168.6080 C.2       1 ADP602      0.0000 
     20 N7         85.5530   48.1230  168.2280 N.2       1 ADP602      0.0000 
     21 C5         85.7780   47.1970  167.2900 C.ar      1 ADP602      0.0000 
     22 C6         86.9380   46.7890  166.4780 C.ar      1 ADP602      0.0000 
     23 N6         88.1380   47.4070  166.5950 N.pl3     1 ADP602      0.0000 
     24 N1         86.7600   45.7750  165.6210 N.ar      1 ADP602      0.0000 
     25 C2         85.5790   45.1540  165.4880 C.ar      1 ADP602      0.0000 
     26 N3         84.4840   45.4650  166.1970 N.ar      1 ADP602      0.0000 
     27 C4         84.5150   46.4680  167.1040 C.ar      1 ADP602      0.0000 
@<TRIPOS>BOND
     1    1    2 ar   
     2    1    3 ar   
     3    1    4 ar   
     4    1    8 1    
     5    5    6 ar   
     6    5    7 ar   
     7    5    8 1    
     8    5    9 1    
     9    9   10 1    
    10   10   11 1    
    11   11   12 1    
    12   11   13 1    
    13   12   17 1    
    14   13   14 1    
    15   13   15 1    
    16   15   16 1    
    17   15   17 1    
    18   17   18 1    
    19   18   19 1    
    20   18   27 1    
    21   19   20 2    
    22   20   21 1    
    23   21   22 ar   
    24   21   27 ar   
    25   22   23 1    
    26   22   24 ar   
    27   24   25 ar   
    28   25   26 ar   
    29   26   27 ar   
@<TRIPOS>SUBSTRUCTURE
     1 ADP602      1 GROUP   
@<TRIPOS>SET
ATOM$ORANGE STATIC     ATOMS   COLORGROUP SYSTEM 
20 10 10 11 11 13 13 15 15 17 17 19 19 21 21 22 22 25 \
25 27 27 

