#    Name: 6qkr_1_FAD
#    Modification time : Fri May 22 19:27:57 2020

@<TRIPOS>MOLECULE
6qkr_1_FAD
   53    58     1     0     1
SMALL
NO_CHARGES


@<TRIPOS>ATOM
      1 PA         -9.6510    5.9490  -20.9810 P.3       1 FAD802      0.0000 
      2 O1A       -10.0690    4.6720  -20.3550 O.co2     1 FAD802      0.0000 
      3 O2A        -8.2400    6.3230  -20.6480 O.co2     1 FAD802      0.0000 
      4 O5B        -9.8530    5.8640  -22.5610 O.3       1 FAD802      0.0000 
      5 C5B        -9.3250    6.9020  -23.3980 C.3       1 FAD802      0.0000 
      6 C4B        -9.1960    6.3220  -24.7820 C.3       1 FAD802      0.0000 
      7 O4B        -8.9180    7.3820  -25.7240 O.3       1 FAD802      0.0000 
      8 C3B        -8.0890    5.2750  -24.9530 C.3       1 FAD802      0.0000 
      9 O3B        -8.6120    4.1120  -25.5970 O.3       1 FAD802      0.0000 
     10 C2B        -7.0320    6.0110  -25.7910 C.3       1 FAD802      0.0000 
     11 O2B        -6.3240    5.1400  -26.6650 O.3       1 FAD802      0.0000 
     12 C1B        -7.9140    6.9400  -26.6150 C.3       1 FAD802      0.0000 
     13 N9A        -7.2510    8.1050  -27.1950 N.pl3     1 FAD802      0.0000 
     14 C8A        -6.4180    8.9990  -26.5720 C.2       1 FAD802      0.0000 
     15 N7A        -6.0480   10.0040  -27.3330 N.2       1 FAD802      0.0000 
     16 C5A        -6.6880    9.7570  -28.5390 C.ar      1 FAD802      0.0000 
     17 C6A        -6.7010   10.4510  -29.7710 C.ar      1 FAD802      0.0000 
     18 N6A        -6.1410   11.6510  -29.9580 N.pl3     1 FAD802      0.0000 
     19 N1A        -7.3930    9.9020  -30.7970 N.ar      1 FAD802      0.0000 
     20 C2A        -8.0410    8.7470  -30.5910 C.ar      1 FAD802      0.0000 
     21 N3A        -8.1110    8.0120  -29.4750 N.ar      1 FAD802      0.0000 
     22 C4A        -7.4180    8.5800  -28.4750 C.ar      1 FAD802      0.0000 
     23 N1        -11.1090    2.9820  -11.7960 N.2       1 FAD802      0.0000 
     24 C2        -12.0230    2.5460  -10.8600 C.2       1 FAD802      0.0000 
     25 O2        -13.0320    3.2010  -10.6070 O.2       1 FAD802      0.0000 
     26 N3        -11.8080    1.3440  -10.1770 N.am      1 FAD802      0.0000 
     27 C4        -10.7260    0.5080  -10.3450 C.2       1 FAD802      0.0000 
     28 O4        -10.6770   -0.5610   -9.7480 O.2       1 FAD802      0.0000 
     29 C4X        -9.7520    0.9790  -11.3250 C.2       1 FAD802      0.0000 
     30 N5         -8.7000    0.2370  -11.5580 N.2       1 FAD802      0.0000 
     31 C5X        -7.8230    0.6470  -12.5490 C.ar      1 FAD802      0.0000 
     32 C6         -6.7100   -0.1510  -12.8190 C.ar      1 FAD802      0.0000 
     33 C7         -5.8210    0.1720  -13.8370 C.ar      1 FAD802      0.0000 
     34 C7M        -4.6390   -0.7260  -14.0690 C.3       1 FAD802      0.0000 
     35 C8         -6.0420    1.3380  -14.6150 C.ar      1 FAD802      0.0000 
     36 C8M        -5.0850    1.7530  -15.7080 C.3       1 FAD802      0.0000 
     37 C9         -7.1460    2.1410  -14.3380 C.ar      1 FAD802      0.0000 
     38 C9A        -8.0340    1.8210  -13.3080 C.ar      1 FAD802      0.0000 
     39 N10        -9.1570    2.6280  -12.9890 N.pl3     1 FAD802      0.0000 
     40 C10       -10.0390    2.2390  -12.0190 C.2       1 FAD802      0.0000 
     41 C1'        -9.3940    3.9010  -13.6980 C.3       1 FAD802      0.0000 
     42 C2'       -10.3960    3.7780  -14.8440 C.3       1 FAD802      0.0000 
     43 O2'       -10.0140    2.7030  -15.7060 O.3       1 FAD802      0.0000 
     44 C3'       -10.4840    5.0820  -15.6390 C.3       1 FAD802      0.0000 
     45 O3'       -10.8780    6.1180  -14.7410 O.3       1 FAD802      0.0000 
     46 C4'       -11.3810    5.1220  -16.8780 C.3       1 FAD802      0.0000 
     47 O4'       -10.9400    4.1440  -17.8240 O.3       1 FAD802      0.0000 
     48 C5'       -11.4250    6.4790  -17.5390 C.3       1 FAD802      0.0000 
     49 O5'       -12.2580    6.3150  -18.7040 O.3       1 FAD802      0.0000 
     50 P         -12.0510    7.2870  -19.9800 P.3       1 FAD802      0.0000 
     51 O1P       -12.9940    6.8800  -21.0350 O.co2     1 FAD802      0.0000 
     52 O2P       -12.2890    8.7220  -19.6320 O.co2     1 FAD802      0.0000 
     53 O3P       -10.5390    7.1630  -20.4650 O.3       1 FAD802      0.0000 
@<TRIPOS>BOND
     1    1    2 ar   
     2    1    3 ar   
     3    1    4 1    
     4    1   53 1    
     5    4    5 1    
     6    5    6 1    
     7    6    7 1    
     8    6    8 1    
     9    7   12 1    
    10    8    9 1    
    11    8   10 1    
    12   10   11 1    
    13   10   12 1    
    14   12   13 1    
    15   13   14 1    
    16   13   22 1    
    17   14   15 2    
    18   15   16 1    
    19   16   17 ar   
    20   16   22 ar   
    21   17   18 1    
    22   17   19 ar   
    23   19   20 ar   
    24   20   21 ar   
    25   21   22 ar   
    26   23   24 1    
    27   23   40 2    
    28   24   25 2    
    29   24   26 am   
    30   26   27 am   
    31   27   28 2    
    32   27   29 1    
    33   29   30 2    
    34   29   40 1    
    35   30   31 1    
    36   31   32 ar   
    37   31   38 ar   
    38   32   33 ar   
    39   33   34 1    
    40   33   35 ar   
    41   35   36 1    
    42   35   37 ar   
    43   37   38 ar   
    44   38   39 1    
    45   39   40 1    
    46   39   41 1    
    47   41   42 1    
    48   42   43 1    
    49   42   44 1    
    50   44   45 1    
    51   44   46 1    
    52   46   47 1    
    53   46   48 1    
    54   48   49 1    
    55   49   50 1    
    56   50   51 ar   
    57   50   52 ar   
    58   50   53 1    
@<TRIPOS>SUBSTRUCTURE
     1 FAD802      1 GROUP   
@<TRIPOS>SET
ATOM$ORANGE STATIC     ATOMS   COLORGROUP SYSTEM 
54 5 5 6 6 8 8 10 10 12 12 14 14 16 16 17 17 20 \
20 22 22 24 24 27 27 29 29 31 31 32 32 33 33 34 34 35 \
35 36 36 37 37 38 38 40 40 41 41 42 42 44 44 46 46 48 \
48 

