#    Name: 6qkr_3_FAD
#    Modification time : Fri May 22 19:28:07 2020

@<TRIPOS>MOLECULE
6qkr_3_FAD
   53    58     1     0     1
SMALL
NO_CHARGES


@<TRIPOS>ATOM
      1 PA        -30.5360  -54.6020  -61.4400 P.3       1 FAD802      0.0000 
      2 O1A       -30.0850  -53.3230  -60.8460 O.co2     1 FAD802      0.0000 
      3 O2A       -31.9540  -54.9390  -61.1160 O.co2     1 FAD802      0.0000 
      4 O5B       -30.3330  -54.5560  -63.0020 O.3       1 FAD802      0.0000 
      5 C5B       -30.8220  -55.6390  -63.8190 C.3       1 FAD802      0.0000 
      6 C4B       -30.9390  -55.0980  -65.2150 C.3       1 FAD802      0.0000 
      7 O4B       -31.2280  -56.1810  -66.1190 O.3       1 FAD802      0.0000 
      8 C3B       -32.0270  -54.0350  -65.4320 C.3       1 FAD802      0.0000 
      9 O3B       -31.4610  -52.9190  -66.1140 O.3       1 FAD802      0.0000 
     10 C2B       -33.0910  -54.7760  -66.2560 C.3       1 FAD802      0.0000 
     11 O2B       -33.7780  -53.9270  -67.1690 O.3       1 FAD802      0.0000 
     12 C1B       -32.2200  -55.7550  -67.0300 C.3       1 FAD802      0.0000 
     13 N9A       -32.8990  -56.9290  -67.5630 N.pl3     1 FAD802      0.0000 
     14 C8A       -33.7290  -57.8040  -66.9060 C.2       1 FAD802      0.0000 
     15 N7A       -34.0830  -58.8450  -67.6230 N.2       1 FAD802      0.0000 
     16 C5A       -33.4510  -58.6370  -68.8410 C.ar      1 FAD802      0.0000 
     17 C6A       -33.4210  -59.3830  -70.0390 C.ar      1 FAD802      0.0000 
     18 N6A       -34.0210  -60.5690  -70.1930 N.pl3     1 FAD802      0.0000 
     19 N1A       -32.7120  -58.8760  -71.0790 N.ar      1 FAD802      0.0000 
     20 C2A       -32.0550  -57.7210  -70.9140 C.ar      1 FAD802      0.0000 
     21 N3A       -31.9990  -56.9380  -69.8320 N.ar      1 FAD802      0.0000 
     22 C4A       -32.7270  -57.4530  -68.8220 C.ar      1 FAD802      0.0000 
     23 N1        -29.1270  -51.3750  -52.3230 N.2       1 FAD802      0.0000 
     24 C2        -28.2210  -50.9330  -51.3880 C.2       1 FAD802      0.0000 
     25 O2        -27.2140  -51.5870  -51.1170 O.2       1 FAD802      0.0000 
     26 N3        -28.4270  -49.7250  -50.7450 N.am      1 FAD802      0.0000 
     27 C4        -29.5000  -48.8770  -50.9490 C.2       1 FAD802      0.0000 
     28 O4        -29.5550  -47.7900  -50.3740 O.2       1 FAD802      0.0000 
     29 C4X       -30.4680  -49.3620  -51.9340 C.2       1 FAD802      0.0000 
     30 N5        -31.5100  -48.6120  -52.1980 N.2       1 FAD802      0.0000 
     31 C5X       -32.3730  -49.0290  -53.1980 C.ar      1 FAD802      0.0000 
     32 C6        -33.4660  -48.2230  -53.5110 C.ar      1 FAD802      0.0000 
     33 C7        -34.3520  -48.5670  -54.5240 C.ar      1 FAD802      0.0000 
     34 C7M       -35.5150  -47.6560  -54.8130 C.3       1 FAD802      0.0000 
     35 C8        -34.1410  -49.7590  -55.2560 C.ar      1 FAD802      0.0000 
     36 C8M       -35.0790  -50.1800  -56.3610 C.3       1 FAD802      0.0000 
     37 C9        -33.0530  -50.5670  -54.9390 C.ar      1 FAD802      0.0000 
     38 C9A       -32.1710  -50.2260  -53.9140 C.ar      1 FAD802      0.0000 
     39 N10       -31.0560  -51.0380  -53.5550 N.pl3     1 FAD802      0.0000 
     40 C10       -30.1850  -50.6290  -52.5850 C.2       1 FAD802      0.0000 
     41 C1'       -30.8350  -52.3340  -54.2240 C.3       1 FAD802      0.0000 
     42 C2'       -29.8210  -52.2660  -55.3630 C.3       1 FAD802      0.0000 
     43 O2'       -30.1790  -51.2220  -56.2680 O.3       1 FAD802      0.0000 
     44 C3'       -29.7500  -53.5960  -56.1140 C.3       1 FAD802      0.0000 
     45 O3'       -29.3970  -54.6060  -55.1650 O.3       1 FAD802      0.0000 
     46 C4'       -28.8400  -53.6910  -57.3410 C.3       1 FAD802      0.0000 
     47 O4'       -29.2430  -52.7320  -58.3180 O.3       1 FAD802      0.0000 
     48 C5'       -28.8110  -55.0700  -57.9620 C.3       1 FAD802      0.0000 
     49 O5'       -27.9480  -54.9680  -59.1120 O.3       1 FAD802      0.0000 
     50 P         -28.1640  -55.9650  -60.3680 P.3       1 FAD802      0.0000 
     51 O1P       -27.2080  -55.5900  -61.4220 O.co2     1 FAD802      0.0000 
     52 O2P       -27.9580  -57.3920  -59.9060 O.co2     1 FAD802      0.0000 
     53 O3P       -29.6600  -55.8170  -60.8880 O.3       1 FAD802      0.0000 
@<TRIPOS>BOND
     1    1    2 ar   
     2    1    3 ar   
     3    1    4 1    
     4    1   53 1    
     5    4    5 1    
     6    5    6 1    
     7    6    7 1    
     8    6    8 1    
     9    7   12 1    
    10    8    9 1    
    11    8   10 1    
    12   10   11 1    
    13   10   12 1    
    14   12   13 1    
    15   13   14 1    
    16   13   22 1    
    17   14   15 2    
    18   15   16 1    
    19   16   17 ar   
    20   16   22 ar   
    21   17   18 1    
    22   17   19 ar   
    23   19   20 ar   
    24   20   21 ar   
    25   21   22 ar   
    26   23   24 1    
    27   23   40 2    
    28   24   25 2    
    29   24   26 am   
    30   26   27 am   
    31   27   28 2    
    32   27   29 1    
    33   29   30 2    
    34   29   40 1    
    35   30   31 1    
    36   31   32 ar   
    37   31   38 ar   
    38   32   33 ar   
    39   33   34 1    
    40   33   35 ar   
    41   35   36 1    
    42   35   37 ar   
    43   37   38 ar   
    44   38   39 1    
    45   39   40 1    
    46   39   41 1    
    47   41   42 1    
    48   42   43 1    
    49   42   44 1    
    50   44   45 1    
    51   44   46 1    
    52   46   47 1    
    53   46   48 1    
    54   48   49 1    
    55   49   50 1    
    56   50   51 ar   
    57   50   52 ar   
    58   50   53 1    
@<TRIPOS>SUBSTRUCTURE
     1 FAD802      1 GROUP   
@<TRIPOS>SET
ATOM$ORANGE STATIC     ATOMS   COLORGROUP SYSTEM 
54 5 5 6 6 8 8 10 10 12 12 14 14 16 16 17 17 20 \
20 22 22 24 24 27 27 29 29 31 31 32 32 33 33 34 34 35 \
35 36 36 37 37 38 38 40 40 41 41 42 42 44 44 46 46 48 \
48 

