#    Name: 6f77_2_PLP
#    Modification time : Fri May 22 19:30:38 2020

@<TRIPOS>MOLECULE
6f77_2_PLP
   16    16     1     0     0
SMALL
NO_CHARGES


@<TRIPOS>ATOM
      1 N1        -40.8960  -27.6690   35.0950 N.ar      1 PLP600      0.0000 
      2 C2        -41.6450  -28.0500   36.1840 C.ar      1 PLP600      0.0000 
      3 C2A       -43.0250  -27.4750   36.3310 C.3       1 PLP600      0.0000 
      4 C3        -41.1240  -28.9510   37.1150 C.ar      1 PLP600      0.0000 
      5 O3        -41.8670  -29.3310   38.1880 O.3       1 PLP600      0.0000 
      6 C4        -39.8360  -29.4690   36.9470 C.ar      1 PLP600      0.0000 
      7 C4A       -39.1950  -30.3770   37.9670 C.2       1 PLP600      0.0000 
      8 O4A       -39.1820  -30.1150   39.1700 O.2       1 PLP600      0.0000 
      9 C5        -39.1010  -29.0590   35.8420 C.ar      1 PLP600      0.0000 
     10 C6        -39.6330  -28.1720   34.9160 C.ar      1 PLP600      0.0000 
     11 C5A       -37.7210  -29.6060   35.6240 C.3       1 PLP600      0.0000 
     12 O4P       -37.8950  -30.8670   35.0310 O.3       1 PLP600      0.0000 
     13 P         -36.5880  -31.6220   34.5230 P.3       1 PLP600      0.0000 
     14 O1P       -36.8150  -32.2200   33.1660 O.co2     1 PLP600      0.0000 
     15 O2P       -36.2670  -32.7050   35.5160 O.co2     1 PLP600      0.0000 
     16 O3P       -35.5090  -30.5690   34.4760 O.co2     1 PLP600      0.0000 
@<TRIPOS>BOND
     1    1    2 ar   
     2    1   10 ar   
     3    2    3 1    
     4    2    4 ar   
     5    4    5 1    
     6    4    6 ar   
     7    6    7 1    
     8    6    9 ar   
     9    7    8 2    
    10    9   10 ar   
    11    9   11 1    
    12   11   12 1    
    13   12   13 1    
    14   13   14 ar   
    15   13   15 ar   
    16   13   16 ar   
@<TRIPOS>SUBSTRUCTURE
     1 PLP600      1 GROUP   
@<TRIPOS>SET

