#    Name: 6f77_3_PLP
#    Modification time : Fri May 22 19:30:47 2020

@<TRIPOS>MOLECULE
6f77_3_PLP
   16    16     1     0     0
SMALL
NO_CHARGES


@<TRIPOS>ATOM
      1 N1        -11.5690  -28.7950   26.6750 N.ar      1 PLP600      0.0000 
      2 C2        -10.9410  -29.1710   25.5020 C.ar      1 PLP600      0.0000 
      3 C2A        -9.5380  -28.7090   25.2500 C.3       1 PLP600      0.0000 
      4 C3        -11.6050  -29.9710   24.5710 C.ar      1 PLP600      0.0000 
      5 O3        -10.9930  -30.3480   23.4150 O.3       1 PLP600      0.0000 
      6 C4        -12.9060  -30.3950   24.8290 C.ar      1 PLP600      0.0000 
      7 C4A       -13.6690  -31.1810   23.8010 C.2       1 PLP600      0.0000 
      8 O4A       -13.8590  -30.7280   22.6720 O.2       1 PLP600      0.0000 
      9 C5        -13.5220  -29.9960   26.0100 C.ar      1 PLP600      0.0000 
     10 C6        -12.8480  -29.2040   26.9330 C.ar      1 PLP600      0.0000 
     11 C5A       -14.9240  -30.4400   26.3130 C.3       1 PLP600      0.0000 
     12 O4P       -14.9240  -31.8210   26.5870 O.3       1 PLP600      0.0000 
     13 P         -16.3550  -32.4000   26.9600 P.3       1 PLP600      0.0000 
     14 O1P       -16.8320  -33.2010   25.7720 O.co2     1 PLP600      0.0000 
     15 O2P       -17.2770  -31.2250   27.1630 O.co2     1 PLP600      0.0000 
     16 O3P       -16.2800  -33.2870   28.1680 O.co2     1 PLP600      0.0000 
@<TRIPOS>BOND
     1    1    2 ar   
     2    1   10 ar   
     3    2    3 1    
     4    2    4 ar   
     5    4    5 1    
     6    4    6 ar   
     7    6    7 1    
     8    6    9 ar   
     9    7    8 2    
    10    9   10 ar   
    11    9   11 1    
    12   11   12 1    
    13   12   13 1    
    14   13   14 ar   
    15   13   15 ar   
    16   13   16 ar   
@<TRIPOS>SUBSTRUCTURE
     1 PLP600      1 GROUP   
@<TRIPOS>SET

