#    Name: 6f77_2_PLP_CAVITY_N1_6
#    Modification time : Fri May 22 19:30:39 2020

@<TRIPOS>MOLECULE
6f77_2_PLP_CAVITY_N1_6
   69     0     7     0     0
SMALL
NO_CHARGES


@<TRIPOS>ATOM
      1 OG        -41.0400  -29.4400   37.3600 O.3       1 SER1        0.0000 
      2 OG        -40.2400  -31.4800   40.3100 O.3       1 SER1        0.0000 
      3 OG        -36.0600  -30.6700   38.2200 O.3       1 SER1        0.0000 
      4 OG        -37.1600  -30.7100   39.2400 O.3       1 SER1        0.0000 
      5 OG        -38.2500  -30.7600   40.2700 O.3       1 SER1        0.0000 
      6 OG        -33.7700  -30.6500   40.6600 O.3       1 SER1        0.0000 
      7 OG        -35.4400  -26.0100   41.2800 O.3       1 SER1        0.0000 
      8 OG        -36.5400  -26.0500   42.3100 O.3       1 SER1        0.0000 
      9 O         -40.1400  -28.7600   38.3500 O.2       2 ALA2        0.0000 
     10 O         -40.7400  -30.1500   39.8400 O.2       2 ALA2        0.0000 
     11 O         -38.7400  -29.4200   39.8000 O.2       2 ALA2        0.0000 
     12 O         -39.8400  -29.4700   40.8300 O.2       2 ALA2        0.0000 
     13 O         -37.8400  -28.7400   40.7900 O.2       2 ALA2        0.0000 
     14 O         -38.9400  -28.7900   41.8200 O.2       2 ALA2        0.0000 
     15 O         -38.4400  -30.1300   42.2900 O.2       2 ALA2        0.0000 
     16 O         -37.9500  -31.4700   42.7500 O.2       2 ALA2        0.0000 
     17 O         -38.5300  -26.7800   42.3400 O.2       2 ALA2        0.0000 
     18 O         -36.9400  -28.0700   41.7800 O.2       2 ALA2        0.0000 
     19 O         -38.0400  -28.1100   42.8100 O.2       2 ALA2        0.0000 
     20 O         -37.0500  -30.7900   43.7400 O.2       2 ALA2        0.0000 
     21 O         -37.6300  -26.1000   43.3300 O.2       2 ALA2        0.0000 
     22 OD1       -40.8500  -30.0700   35.3400 O.co2     3 ASP3        0.0000 
     23 OD1       -39.9500  -29.3900   36.3300 O.co2     3 ASP3        0.0000 
     24 OD1       -38.3600  -30.6900   35.7700 O.co2     3 ASP3        0.0000 
     25 OD1       -39.6500  -30.1000   38.8200 O.co2     3 ASP3        0.0000 
     26 OD1       -39.1500  -31.4400   39.2800 O.co2     3 ASP3        0.0000 
     27 OD1       -35.1600  -29.9900   39.2100 O.co2     3 ASP3        0.0000 
     28 OD1       -36.2600  -30.0400   40.2300 O.co2     3 ASP3        0.0000 
     29 OD1       -39.6200  -26.8200   43.3700 O.co2     3 ASP3        0.0000 
     30 OD1       -35.8500  -28.0200   40.7600 O.co2     3 ASP3        0.0000 
     31 OD1       -39.1300  -28.1600   43.8400 O.co2     3 ASP3        0.0000 
     32 OD1       -35.3600  -29.3600   41.2200 O.co2     3 ASP3        0.0000 
     33 OD1       -38.6300  -29.5000   44.3000 O.co2     3 ASP3        0.0000 
     34 OD1       -34.9500  -27.3400   41.7500 O.co2     3 ASP3        0.0000 
     35 OD1       -34.4500  -28.6800   42.2100 O.co2     3 ASP3        0.0000 
     36 NZ        -41.3400  -28.7400   34.8800 N.4       4 LYS4        0.0000 
     37 CZ        -42.4400  -28.7800   35.9000 C.ar      5 PHE5        0.0000 
     38 CZ        -39.3500  -28.0100   34.8400 C.ar      5 PHE5        0.0000 
     39 CZ        -40.4400  -28.0600   35.8700 C.ar      5 PHE5        0.0000 
     40 CZ        -38.8600  -29.3500   35.3100 C.ar      5 PHE5        0.0000 
     41 CZ        -36.8600  -28.6200   35.2700 C.ar      5 PHE5        0.0000 
     42 CZ        -37.4600  -30.0100   36.7600 C.ar      5 PHE5        0.0000 
     43 CZ        -38.5500  -30.0500   37.7900 C.ar      5 PHE5        0.0000 
     44 CZ        -36.5600  -29.3300   37.7500 C.ar      5 PHE5        0.0000 
     45 CZ        -37.6500  -29.3800   38.7800 C.ar      5 PHE5        0.0000 
     46 CZ        -37.7500  -32.1000   40.7400 C.ar      5 PHE5        0.0000 
     47 CZ        -36.7500  -28.7000   39.7700 C.ar      5 PHE5        0.0000 
     48 CZ        -34.6700  -31.3300   39.6700 C.ar      5 PHE5        0.0000 
     49 CZ        -35.7600  -31.3700   40.7000 C.ar      5 PHE5        0.0000 
     50 CZ        -36.8500  -31.4200   41.7300 C.ar      5 PHE5        0.0000 
     51 CZ        -36.3600  -32.7600   42.1900 C.ar      5 PHE5        0.0000 
     52 CZ        -36.3400  -26.6800   40.2900 C.ar      5 PHE5        0.0000 
     53 CZ        -34.3700  -32.0300   42.1500 C.ar      5 PHE5        0.0000 
     54 CZ        -35.4600  -32.0800   43.1800 C.ar      5 PHE5        0.0000 
     55 CA        -40.2500  -28.6900   33.8500 C.3       6 GLY6        0.0000 
     56 CA        -39.7600  -30.0300   34.3200 C.3       6 GLY6        0.0000 
     57 CA        -37.7600  -29.3000   34.2800 C.3       6 GLY6        0.0000 
     58 CA        -37.2700  -30.6400   34.7500 C.3       6 GLY6        0.0000 
     59 CA        -36.3700  -29.9600   35.7400 C.3       6 GLY6        0.0000 
     60 CA        -39.3400  -30.8100   41.3000 C.3       6 GLY6        0.0000 
     61 DU        -37.3500  -30.0800   41.2600 H         7 CUB7        0.0000 
     62 DU        -36.4500  -29.4000   42.2500 H         7 CUB7        0.0000 
     63 DU        -37.5400  -29.4500   43.2800 H         7 CUB7        0.0000 
     64 DU        -34.8600  -30.6900   41.6900 H         7 CUB7        0.0000 
     65 DU        -35.9500  -30.7400   42.7200 H         7 CUB7        0.0000 
     66 DU        -36.0400  -27.3900   42.7700 H         7 CUB7        0.0000 
     67 DU        -37.1300  -27.4400   43.8000 H         7 CUB7        0.0000 
     68 DU        -35.5500  -28.7300   43.2400 H         7 CUB7        0.0000 
     69 DU        -36.6400  -28.7700   44.2700 H         7 CUB7        0.0000 
@<TRIPOS>BOND
@<TRIPOS>SUBSTRUCTURE
     1 SER1        1 GROUP   
     2 ALA2        9 GROUP   
     3 ASP3       22 GROUP   
     4 LYS4       36 GROUP   
     5 PHE5       37 GROUP   
     6 GLY6       55 GROUP   
     7 CUB7       61 GROUP   
@<TRIPOS>SET

