#    Name: 6f77_3_PLP_CAVITY_N1_4
#    Modification time : Fri May 22 19:30:48 2020

@<TRIPOS>MOLECULE
6f77_3_PLP_CAVITY_N1_4
   29     0     7     0     0
SMALL
NO_CHARGES


@<TRIPOS>ATOM
      1 OG        -17.1900  -30.5800   23.2500 O.3       1 SER1        0.0000 
      2 OG        -14.7000  -31.1900   23.6700 O.3       1 SER1        0.0000 
      3 OG        -15.7900  -31.2400   24.7000 O.3       1 SER1        0.0000 
      4 OG        -16.3900  -32.6200   26.1900 O.3       1 SER1        0.0000 
      5 O         -15.5000  -29.1500   20.7300 O.2       2 ALA2        0.0000 
      6 O         -15.0000  -30.4900   21.1900 O.2       2 ALA2        0.0000 
      7 O         -14.1000  -29.8100   22.1800 O.2       2 ALA2        0.0000 
      8 O         -15.9800  -30.6100   26.7200 O.2       2 ALA2        0.0000 
      9 OD1       -16.8800  -31.2800   25.7300 O.co2     3 ASP3        0.0000 
     10 NZ        -10.9000  -29.1100   25.6200 N.4       4 LYS4        0.0000 
     11 NZ        -12.0000  -29.1600   26.6400 N.4       4 LYS4        0.0000 
     12 CZ        -15.9000  -31.1600   20.2000 C.ar      5 PHE5        0.0000 
     13 CZ        -17.0000  -31.2100   21.2300 C.ar      5 PHE5        0.0000 
     14 CZ        -16.5900  -29.1900   21.7500 C.ar      5 PHE5        0.0000 
     15 CZ        -16.0900  -30.5300   22.2200 C.ar      5 PHE5        0.0000 
     16 CZ        -16.2900  -29.9000   24.2300 C.ar      5 PHE5        0.0000 
     17 CZ        -12.7100  -30.4700   23.6400 C.ar      5 PHE5        0.0000 
     18 CZ        -13.8000  -30.5100   24.6600 C.ar      5 PHE5        0.0000 
     19 CZ        -14.8900  -30.5600   25.6900 C.ar      5 PHE5        0.0000 
     20 CZ        -11.8000  -29.7900   24.6300 C.ar      5 PHE5        0.0000 
     21 CZ        -12.9000  -29.8400   25.6500 C.ar      5 PHE5        0.0000 
     22 CZ        -11.3100  -31.1300   25.0900 C.ar      5 PHE5        0.0000 
     23 CZ        -10.4100  -30.4500   26.0800 C.ar      5 PHE5        0.0000 
     24 CA        -13.3000  -31.8500   25.1300 C.3       6 GLY6        0.0000 
     25 CA        -14.4000  -31.9000   26.1600 C.3       6 GLY6        0.0000 
     26 CA        -15.4900  -31.9400   27.1800 C.3       6 GLY6        0.0000 
     27 CA        -13.9900  -29.8800   26.6800 C.3       6 GLY6        0.0000 
     28 CA        -12.4000  -31.1700   26.1200 C.3       6 GLY6        0.0000 
     29 DU        -16.4000  -29.8300   19.7400 H         7 CUB7        0.0000 
@<TRIPOS>BOND
@<TRIPOS>SUBSTRUCTURE
     1 SER1        1 GROUP   
     2 ALA2        5 GROUP   
     3 ASP3        9 GROUP   
     4 LYS4       10 GROUP   
     5 PHE5       12 GROUP   
     6 GLY6       24 GROUP   
     7 CUB7       29 GROUP   
@<TRIPOS>SET

