#    Name: 6f77_3_PLP_CAVITY_N1_ALL
#    Modification time : Fri May 22 19:30:48 2020

@<TRIPOS>MOLECULE
6f77_3_PLP_CAVITY_N1_ALL
   96     0     7     0     0
SMALL
NO_CHARGES


@<TRIPOS>ATOM
      1 OG        -19.4000  -31.1500   14.2900 O.3       1 SER1        0.0000 
      2 OG        -17.8200  -32.4400   13.7300 O.3       1 SER1        0.0000 
      3 OG        -18.9100  -32.4900   14.7500 O.3       1 SER1        0.0000 
      4 OG        -17.4100  -30.4300   14.2500 O.3       1 SER1        0.0000 
      5 OG        -16.9100  -31.7700   14.7200 O.3       1 SER1        0.0000 
      6 OG        -16.7000  -29.1200   17.2600 O.3       1 SER1        0.0000 
      7 OG        -19.4800  -30.6000   20.8000 O.3       1 SER1        0.0000 
      8 OG        -17.8800  -25.8100   18.3400 O.3       1 SER1        0.0000 
      9 OG        -17.3900  -27.1500   18.8100 O.3       1 SER1        0.0000 
     10 OG        -15.8000  -28.4400   18.2400 O.3       1 SER1        0.0000 
     11 OG        -18.5800  -29.9200   21.7900 O.3       1 SER1        0.0000 
     12 OG        -17.1900  -30.5800   23.2500 O.3       1 SER1        0.0000 
     13 OG        -14.7000  -31.1900   23.6700 O.3       1 SER1        0.0000 
     14 OG        -15.7900  -31.2400   24.7000 O.3       1 SER1        0.0000 
     15 OG        -16.3900  -32.6200   26.1900 O.3       1 SER1        0.0000 
     16 N         -21.0900  -32.5800   16.8100 N.am      2 ALA2        0.0000 
     17 N         -21.2900  -31.9500   18.8200 N.am      2 ALA2        0.0000 
     18 N         -16.5100  -29.7500   15.2400 N.am      2 ALA2        0.0000 
     19 N         -20.9700  -26.5900   19.4000 N.am      2 ALA2        0.0000 
     20 O         -19.4700  -24.5200   18.9000 O.2       2 ALA2        0.0000 
     21 O         -18.9700  -25.8600   19.3700 O.2       2 ALA2        0.0000 
     22 O         -15.9900  -27.8100   20.2600 O.2       2 ALA2        0.0000 
     23 O         -15.5000  -29.1500   20.7300 O.2       2 ALA2        0.0000 
     24 O         -15.0000  -30.4900   21.1900 O.2       2 ALA2        0.0000 
     25 O         -14.1000  -29.8100   22.1800 O.2       2 ALA2        0.0000 
     26 O         -15.9800  -30.6100   26.7200 O.2       2 ALA2        0.0000 
     27 OD1       -20.4700  -27.9200   19.8700 O.co2     3 ASP3        0.0000 
     28 OD1       -18.8900  -29.2100   19.3100 O.co2     3 ASP3        0.0000 
     29 OD1       -19.9800  -29.2600   20.3400 O.co2     3 ASP3        0.0000 
     30 OD1       -18.4800  -27.2000   19.8300 O.co2     3 ASP3        0.0000 
     31 OD1       -16.8900  -28.4900   19.2700 O.co2     3 ASP3        0.0000 
     32 OD1       -17.9900  -28.5400   20.3000 O.co2     3 ASP3        0.0000 
     33 OD1       -17.4900  -29.8700   20.7600 O.co2     3 ASP3        0.0000 
     34 OD1       -16.8800  -31.2800   25.7300 O.co2     3 ASP3        0.0000 
     35 NZ        -10.9000  -29.1100   25.6200 N.4       4 LYS4        0.0000 
     36 NZ        -12.0000  -29.1600   26.6400 N.4       4 LYS4        0.0000 
     37 CZ        -18.6100  -33.2000   17.2300 C.ar      5 PHE5        0.0000 
     38 CZ        -17.7000  -32.5200   18.2200 C.ar      5 PHE5        0.0000 
     39 CZ        -18.8000  -32.5700   19.2500 C.ar      5 PHE5        0.0000 
     40 CZ        -19.8900  -32.6100   20.2800 C.ar      5 PHE5        0.0000 
     41 CZ        -16.8000  -31.8400   19.2100 C.ar      5 PHE5        0.0000 
     42 CZ        -17.9000  -31.8900   20.2400 C.ar      5 PHE5        0.0000 
     43 CZ        -18.9900  -31.9300   21.2700 C.ar      5 PHE5        0.0000 
     44 CZ        -15.9000  -31.1600   20.2000 C.ar      5 PHE5        0.0000 
     45 CZ        -17.0000  -31.2100   21.2300 C.ar      5 PHE5        0.0000 
     46 CZ        -18.0900  -31.2600   22.2600 C.ar      5 PHE5        0.0000 
     47 CZ        -16.5900  -29.1900   21.7500 C.ar      5 PHE5        0.0000 
     48 CZ        -16.0900  -30.5300   22.2200 C.ar      5 PHE5        0.0000 
     49 CZ        -16.2900  -29.9000   24.2300 C.ar      5 PHE5        0.0000 
     50 CZ        -12.7100  -30.4700   23.6400 C.ar      5 PHE5        0.0000 
     51 CZ        -13.8000  -30.5100   24.6600 C.ar      5 PHE5        0.0000 
     52 CZ        -14.8900  -30.5600   25.6900 C.ar      5 PHE5        0.0000 
     53 CZ        -11.8000  -29.7900   24.6300 C.ar      5 PHE5        0.0000 
     54 CZ        -12.9000  -29.8400   25.6500 C.ar      5 PHE5        0.0000 
     55 CZ        -11.3100  -31.1300   25.0900 C.ar      5 PHE5        0.0000 
     56 CZ        -10.4100  -30.4500   26.0800 C.ar      5 PHE5        0.0000 
     57 CA        -20.5000  -31.2000   15.3100 C.3       6 GLY6        0.0000 
     58 CA        -21.5900  -31.2500   16.3400 C.3       6 GLY6        0.0000 
     59 CA        -20.6000  -33.9200   17.2700 C.3       6 GLY6        0.0000 
     60 CA        -18.5000  -30.4800   15.2800 C.3       6 GLY6        0.0000 
     61 CA        -19.5900  -30.5200   16.3000 C.3       6 GLY6        0.0000 
     62 CA        -20.6900  -30.5700   17.3300 C.3       6 GLY6        0.0000 
     63 CA        -21.7800  -30.6200   18.3600 C.3       6 GLY6        0.0000 
     64 CA        -19.7000  -33.2400   18.2600 C.3       6 GLY6        0.0000 
     65 CA        -18.1000  -28.4600   15.8000 C.3       6 GLY6        0.0000 
     66 CA        -21.3700  -28.6000   18.8800 C.3       6 GLY6        0.0000 
     67 CA        -17.6000  -29.8000   16.2700 C.3       6 GLY6        0.0000 
     68 CA        -18.6900  -29.8400   17.2900 C.3       6 GLY6        0.0000 
     69 CA        -19.7900  -29.8900   18.3200 C.3       6 GLY6        0.0000 
     70 CA        -20.8800  -29.9400   19.3500 C.3       6 GLY6        0.0000 
     71 CA        -21.9700  -29.9800   20.3700 C.3       6 GLY6        0.0000 
     72 CA        -20.3800  -31.2700   19.8100 C.3       6 GLY6        0.0000 
     73 CA        -21.4800  -31.3200   20.8400 C.3       6 GLY6        0.0000 
     74 CA        -18.7800  -26.4900   17.3500 C.3       6 GLY6        0.0000 
     75 CA        -19.8800  -26.5400   18.3800 C.3       6 GLY6        0.0000 
     76 CA        -18.2900  -27.8300   17.8200 C.3       6 GLY6        0.0000 
     77 CA        -19.3800  -27.8800   18.8400 C.3       6 GLY6        0.0000 
     78 CA        -17.7900  -29.1700   18.2800 C.3       6 GLY6        0.0000 
     79 CA        -16.4900  -26.4700   19.7900 C.3       6 GLY6        0.0000 
     80 CA        -13.3000  -31.8500   25.1300 C.3       6 GLY6        0.0000 
     81 CA        -14.4000  -31.9000   26.1600 C.3       6 GLY6        0.0000 
     82 CA        -15.4900  -31.9400   27.1800 C.3       6 GLY6        0.0000 
     83 CA        -13.9900  -29.8800   26.6800 C.3       6 GLY6        0.0000 
     84 CA        -12.4000  -31.1700   26.1200 C.3       6 GLY6        0.0000 
     85 DU        -20.0000  -32.5400   15.7800 H         7 CUB7        0.0000 
     86 DU        -18.4100  -33.8300   15.2200 H         7 CUB7        0.0000 
     87 DU        -19.5100  -33.8700   16.2400 H         7 CUB7        0.0000 
     88 DU        -18.0100  -31.8100   15.7400 H         7 CUB7        0.0000 
     89 DU        -19.1000  -31.8600   16.7700 H         7 CUB7        0.0000 
     90 DU        -20.1900  -31.9100   17.8000 H         7 CUB7        0.0000 
     91 DU        -17.1100  -31.1300   16.7300 H         7 CUB7        0.0000 
     92 DU        -18.2000  -31.1800   17.7600 H         7 CUB7        0.0000 
     93 DU        -19.2900  -31.2300   18.7800 H         7 CUB7        0.0000 
     94 DU        -17.3000  -30.5000   18.7500 H         7 CUB7        0.0000 
     95 DU        -18.3900  -30.5500   19.7700 H         7 CUB7        0.0000 
     96 DU        -16.4000  -29.8300   19.7400 H         7 CUB7        0.0000 
@<TRIPOS>BOND
@<TRIPOS>SUBSTRUCTURE
     1 SER1        1 GROUP   
     2 ALA2       16 GROUP   
     3 ASP3       27 GROUP   
     4 LYS4       35 GROUP   
     5 PHE5       37 GROUP   
     6 GLY6       57 GROUP   
     7 CUB7       85 GROUP   
@<TRIPOS>SET

