#    Name: 6f77_2_PLP_CAVITY_N1_4
#    Modification time : Fri May 22 19:30:39 2020

@<TRIPOS>MOLECULE
6f77_2_PLP_CAVITY_N1_4
   39     0     7     0     0
SMALL
NO_CHARGES


@<TRIPOS>ATOM
      1 OG        -41.0400  -29.4400   37.3600 O.3       1 SER1        0.0000 
      2 OG        -40.2400  -31.4800   40.3100 O.3       1 SER1        0.0000 
      3 OG        -36.0600  -30.6700   38.2200 O.3       1 SER1        0.0000 
      4 OG        -37.1600  -30.7100   39.2400 O.3       1 SER1        0.0000 
      5 OG        -38.2500  -30.7600   40.2700 O.3       1 SER1        0.0000 
      6 O         -40.1400  -28.7600   38.3500 O.2       2 ALA2        0.0000 
      7 O         -40.7400  -30.1500   39.8400 O.2       2 ALA2        0.0000 
      8 O         -38.7400  -29.4200   39.8000 O.2       2 ALA2        0.0000 
      9 O         -39.8400  -29.4700   40.8300 O.2       2 ALA2        0.0000 
     10 O         -37.8400  -28.7400   40.7900 O.2       2 ALA2        0.0000 
     11 O         -38.9400  -28.7900   41.8200 O.2       2 ALA2        0.0000 
     12 O         -38.4400  -30.1300   42.2900 O.2       2 ALA2        0.0000 
     13 OD1       -40.8500  -30.0700   35.3400 O.co2     3 ASP3        0.0000 
     14 OD1       -39.9500  -29.3900   36.3300 O.co2     3 ASP3        0.0000 
     15 OD1       -38.3600  -30.6900   35.7700 O.co2     3 ASP3        0.0000 
     16 OD1       -39.6500  -30.1000   38.8200 O.co2     3 ASP3        0.0000 
     17 OD1       -39.1500  -31.4400   39.2800 O.co2     3 ASP3        0.0000 
     18 OD1       -36.2600  -30.0400   40.2300 O.co2     3 ASP3        0.0000 
     19 NZ        -41.3400  -28.7400   34.8800 N.4       4 LYS4        0.0000 
     20 CZ        -42.4400  -28.7800   35.9000 C.ar      5 PHE5        0.0000 
     21 CZ        -39.3500  -28.0100   34.8400 C.ar      5 PHE5        0.0000 
     22 CZ        -40.4400  -28.0600   35.8700 C.ar      5 PHE5        0.0000 
     23 CZ        -38.8600  -29.3500   35.3100 C.ar      5 PHE5        0.0000 
     24 CZ        -36.8600  -28.6200   35.2700 C.ar      5 PHE5        0.0000 
     25 CZ        -37.4600  -30.0100   36.7600 C.ar      5 PHE5        0.0000 
     26 CZ        -38.5500  -30.0500   37.7900 C.ar      5 PHE5        0.0000 
     27 CZ        -36.5600  -29.3300   37.7500 C.ar      5 PHE5        0.0000 
     28 CZ        -37.6500  -29.3800   38.7800 C.ar      5 PHE5        0.0000 
     29 CZ        -37.7500  -32.1000   40.7400 C.ar      5 PHE5        0.0000 
     30 CZ        -36.7500  -28.7000   39.7700 C.ar      5 PHE5        0.0000 
     31 CZ        -35.7600  -31.3700   40.7000 C.ar      5 PHE5        0.0000 
     32 CZ        -36.8500  -31.4200   41.7300 C.ar      5 PHE5        0.0000 
     33 CA        -40.2500  -28.6900   33.8500 C.3       6 GLY6        0.0000 
     34 CA        -39.7600  -30.0300   34.3200 C.3       6 GLY6        0.0000 
     35 CA        -37.7600  -29.3000   34.2800 C.3       6 GLY6        0.0000 
     36 CA        -37.2700  -30.6400   34.7500 C.3       6 GLY6        0.0000 
     37 CA        -36.3700  -29.9600   35.7400 C.3       6 GLY6        0.0000 
     38 CA        -39.3400  -30.8100   41.3000 C.3       6 GLY6        0.0000 
     39 DU        -37.3500  -30.0800   41.2600 H         7 CUB7        0.0000 
@<TRIPOS>BOND
@<TRIPOS>SUBSTRUCTURE
     1 SER1        1 GROUP   
     2 ALA2        6 GROUP   
     3 ASP3       13 GROUP   
     4 LYS4       19 GROUP   
     5 PHE5       20 GROUP   
     6 GLY6       33 GROUP   
     7 CUB7       39 GROUP   
@<TRIPOS>SET

