#    Name: 5yid_1_K95
#    Modification time : Fri May 22 19:25:37 2020

@<TRIPOS>MOLECULE
5yid_1_K95
   49    53     1     0     0
SMALL
NO_CHARGES


@<TRIPOS>ATOM
      1 CBH       -23.2790   20.9210   -8.2060 C.2       1 K95401      0.0000 
      2 CAX       -21.8110   21.0820   -7.7310 C.3       1 K95401      0.0000 
      3 CBL       -21.1940   19.7860   -7.1450 C.ar      1 K95401      0.0000 
      4 CAR       -20.2160   19.0840   -7.8630 C.ar      1 K95401      0.0000 
      5 CAL       -19.6570   17.9120   -7.3340 C.ar      1 K95401      0.0000 
      6 CAJ       -20.0700   17.4470   -6.0880 C.ar      1 K95401      0.0000 
      7 CAM       -21.0390   18.1540   -5.3710 C.ar      1 K95401      0.0000 
      8 CAS       -21.6020   19.3210   -5.8970 C.ar      1 K95401      0.0000 
      9 OAD       -24.0330   20.2550   -7.5850 O.2       1 K95401      0.0000 
     10 N         -23.7370   21.5990   -9.4260 N.am      1 K95401      0.0000 
     11 CA        -25.1150   21.4920   -9.8990 C.3       1 K95401      0.0000 
     12 CB        -25.5360   22.8750  -10.4060 C.3       1 K95401      0.0000 
     13 SBF       -27.3390   22.8440  -10.6480 S.3       1 K95401      0.0000 
     14 CAA       -28.1060   23.2000   -9.0390 C.3       1 K95401      0.0000 
     15 C         -25.2520   20.4380  -11.0010 C.2       1 K95401      0.0000 
     16 O         -24.7510   20.5780  -12.0600 O.2       1 K95401      0.0000 
     17 CBK       -27.3790   17.5760  -13.7970 C.2       1 K95401      0.0000 
     18 NBD       -26.0370   19.2460  -10.7310 N.am      1 K95401      0.0000 
     19 OAG       -27.8050   16.4650  -13.8190 O.2       1 K95401      0.0000 
     20 CBR       -27.4830   18.4100  -12.5330 C.3       1 K95401      0.0000 
     21 CBM       -24.7140   16.5910  -10.3460 C.ar      1 K95401      0.0000 
     22 CBB       -26.1040   16.8460  -10.9860 C.3       1 K95401      0.0000 
     23 CAK       -22.2020   16.1320   -9.2090 C.ar      1 K95401      0.0000 
     24 CBS       -26.1800   18.1990  -11.7280 C.3       1 K95401      0.0000 
     25 OAI       -28.6090   17.9370  -11.8400 O.3       1 K95401      0.0000 
     26 CAU       -23.7850   15.7790  -11.0040 C.ar      1 K95401      0.0000 
     27 CAT       -24.3790   17.1710   -9.1180 C.ar      1 K95401      0.0000 
     28 CAO       -22.5290   15.5480  -10.4310 C.ar      1 K95401      0.0000 
     29 CAN       -23.1200   16.9390   -8.5490 C.ar      1 K95401      0.0000 
     30 CBJ       -25.2750   16.5180  -16.4960 C.2       1 K95401      0.0000 
     31 NBV       -26.7530   18.0540  -14.9990 N.am      1 K95401      0.0000 
     32 OAF       -24.3100   17.1570  -16.2670 O.2       1 K95401      0.0000 
     33 CBU       -26.6560   17.0890  -16.3840 C.3       1 K95401      0.0000 
     34 CBW       -27.0660   17.9880  -17.3270 C.3       1 K95401      0.0000 
     35 CAZ       -26.1330   19.4150  -15.4240 C.3       1 K95401      0.0000 
     36 CAC       -28.6030   18.1140  -17.3020 C.3       1 K95401      0.0000 
     37 CAB       -26.6270   17.6090  -18.7510 C.3       1 K95401      0.0000 
     38 SBG       -26.4240   19.5510  -16.8690 S.3       1 K95401      0.0000 
     39 NBE       -25.1410   15.1400  -16.9290 N.am      1 K95401      0.0000 
     40 OAH       -25.4350   12.8190  -17.8800 O.3       1 K95401      0.0000 
     41 CBT       -23.8680   14.4860  -17.1810 C.3       1 K95401      0.0000 
     42 CBO       -23.1960   13.7930  -15.9700 C.ar      1 K95401      0.0000 
     43 CAW       -22.9620   14.2230  -14.6710 C.ar      1 K95401      0.0000 
     44 CAQ       -22.3120   13.3580  -13.7680 C.ar      1 K95401      0.0000 
     45 CBP       -24.1660   13.3770  -18.1420 C.3       1 K95401      0.0000 
     46 CBN       -22.7610   12.4900  -16.3890 C.ar      1 K95401      0.0000 
     47 CAV       -22.1050   11.6390  -15.4940 C.ar      1 K95401      0.0000 
     48 CAP       -21.8760   12.0620  -14.1850 C.ar      1 K95401      0.0000 
     49 CBA       -23.1310   12.3130  -17.8790 C.3       1 K95401      0.0000 
@<TRIPOS>BOND
     1    1    2 1    
     2    1    9 2    
     3    1   10 am   
     4    2    3 1    
     5    3    4 ar   
     6    3    8 ar   
     7    4    5 ar   
     8    5    6 ar   
     9    6    7 ar   
    10    7    8 ar   
    11   10   11 1    
    12   11   12 1    
    13   11   15 1    
    14   12   13 1    
    15   13   14 1    
    16   15   16 2    
    17   15   18 am   
    18   17   19 2    
    19   17   20 1    
    20   17   31 am   
    21   18   24 1    
    22   20   24 1    
    23   20   25 1    
    24   21   22 1    
    25   21   26 ar   
    26   21   27 ar   
    27   22   24 1    
    28   23   28 ar   
    29   23   29 ar   
    30   26   28 ar   
    31   27   29 ar   
    32   30   32 2    
    33   30   33 1    
    34   30   39 am   
    35   31   33 1    
    36   31   35 1    
    37   33   34 1    
    38   34   36 1    
    39   34   37 1    
    40   34   38 1    
    41   35   38 1    
    42   39   41 1    
    43   40   45 1    
    44   41   42 1    
    45   41   45 1    
    46   42   43 ar   
    47   42   46 ar   
    48   43   44 ar   
    49   44   48 ar   
    50   45   49 1    
    51   46   47 ar   
    52   46   49 1    
    53   47   48 ar   
@<TRIPOS>SUBSTRUCTURE
     1 K95401      1 GROUP   
@<TRIPOS>SET

