#    Name: 5yid_2_CPS
#    Modification time : Fri May 22 19:25:40 2020

@<TRIPOS>MOLECULE
5yid_2_CPS
   42    45     1     0     0
SMALL
NO_CHARGES


@<TRIPOS>ATOM
      1 C1        -19.9840   15.0140  -18.7640 C.3       1 CPS402      0.0000 
      2 C2        -18.7840   14.2380  -18.1970 C.3       1 CPS402      0.0000 
      3 C3        -19.1380   15.3020  -15.8370 C.3       1 CPS402      0.0000 
      4 C4        -18.4860   15.8790  -14.5770 C.3       1 CPS402      0.0000 
      5 C5        -17.3250   15.0250  -14.0560 C.3       1 CPS402      0.0000 
      6 C6        -16.3370   14.8440  -15.2120 C.3       1 CPS402      0.0000 
      7 C7        -15.1010   14.2210  -14.5790 C.3       1 CPS402      0.0000 
      8 C8        -15.0600   14.8750  -13.2000 C.3       1 CPS402      0.0000 
      9 C9        -16.3810   15.6480  -13.0140 C.3       1 CPS402      0.0000 
     10 C10       -17.8940   13.7090  -13.5080 C.3       1 CPS402      0.0000 
     11 C11       -19.3200   12.8530  -17.8350 C.3       1 CPS402      0.0000 
     12 C12       -19.6290   16.3570  -19.3880 C.3       1 CPS402      0.0000 
     13 C13       -18.6330   16.1850  -20.5180 C.3       1 CPS402      0.0000 
     14 C14       -17.3990   15.4290  -20.0120 C.3       1 CPS402      0.0000 
     15 C15       -17.7400   14.1010  -19.3100 C.3       1 CPS402      0.0000 
     16 C16       -16.4480   13.4140  -18.8380 C.3       1 CPS402      0.0000 
     17 C17       -15.8620   13.9830  -17.5460 C.3       1 CPS402      0.0000 
     18 C18       -16.9140   14.1650  -16.4440 C.3       1 CPS402      0.0000 
     19 C19       -18.1440   14.9410  -16.9670 C.3       1 CPS402      0.0000 
     20 C20       -16.8200   15.7270  -11.5340 C.3       1 CPS402      0.0000 
     21 C21       -18.0320   16.6370  -11.3540 C.3       1 CPS402      0.0000 
     22 C22       -15.7090   16.1830  -10.5780 C.3       1 CPS402      0.0000 
     23 C23       -15.1790   17.5990  -10.8180 C.3       1 CPS402      0.0000 
     24 C24       -13.9430   17.8790   -9.9870 C.2       1 CPS402      0.0000 
     25 C25       -12.1820   19.4780   -9.4580 C.3       1 CPS402      0.0000 
     26 C26       -11.7740   20.8920   -9.8390 C.3       1 CPS402      0.0000 
     27 C27       -12.7360   21.8950   -9.1910 C.3       1 CPS402      0.0000 
     28 C28       -11.2590   23.8150   -8.9260 C.3       1 CPS402      0.0000 
     29 C29       -12.4780   23.5540  -10.9700 C.3       1 CPS402      0.0000 
     30 C30       -13.6760   24.1720   -9.0210 C.3       1 CPS402      0.0000 
     31 C31       -14.3480   23.8260   -7.6830 C.3       1 CPS402      0.0000 
     32 C32       -13.4530   24.0590   -6.4660 C.3       1 CPS402      0.0000 
     33 N1        -13.3750   19.0660  -10.1750 N.am      1 CPS402      0.0000 
     34 N2        -12.5330   23.3350   -9.5060 N.4       1 CPS402      0.0000 
     35 O1        -13.4920   17.0630   -9.1980 O.2       1 CPS402      0.0000 
     36 O2        -18.2300   17.4770  -20.9910 O.3       1 CPS402      0.0000 
     37 O3        -15.2000   15.2130  -17.8370 O.3       1 CPS402      0.0000 
     38 O4        -18.0620   17.2030  -14.9070 O.3       1 CPS402      0.0000 
     39 O2S       -14.6900   25.7770   -5.0290 O.co2     1 CPS402      0.0000 
     40 O3S       -15.5870   23.5270   -5.1160 O.co2     1 CPS402      0.0000 
     41 O1S       -13.5410   23.9600   -3.9080 O.co2     1 CPS402      0.0000 
     42 S         -14.3470   24.3370   -5.0930 S.o2      1 CPS402      0.0000 
@<TRIPOS>BOND
     1    1    2 1    
     2    1   12 1    
     3    2   11 1    
     4    2   15 1    
     5    2   19 1    
     6    3    4 1    
     7    3   19 1    
     8    4    5 1    
     9    4   38 1    
    10    5    6 1    
    11    5    9 1    
    12    5   10 1    
    13    6    7 1    
    14    6   18 1    
    15    7    8 1    
    16    8    9 1    
    17    9   20 1    
    18   12   13 1    
    19   13   14 1    
    20   13   36 1    
    21   14   15 1    
    22   15   16 1    
    23   16   17 1    
    24   17   18 1    
    25   17   37 1    
    26   18   19 1    
    27   20   21 1    
    28   20   22 1    
    29   22   23 1    
    30   23   24 1    
    31   24   33 am   
    32   24   35 2    
    33   25   26 1    
    34   25   33 1    
    35   26   27 1    
    36   27   34 1    
    37   28   34 1    
    38   29   34 1    
    39   30   31 1    
    40   30   34 1    
    41   31   32 1    
    42   32   42 1    
    43   39   42 ar   
    44   40   42 ar   
    45   41   42 ar   
@<TRIPOS>SUBSTRUCTURE
     1 CPS402      1 GROUP   
@<TRIPOS>SET

