#    Name: 5yid_2_CPS_CAVITY_N1_4
#    Modification time : Fri May 22 19:25:41 2020

@<TRIPOS>MOLECULE
5yid_2_CPS_CAVITY_N1_4
   34     0     4     0     0
SMALL
NO_CHARGES


@<TRIPOS>ATOM
      1 OG        -21.9400   10.6700  -18.4300 O.3       1 SER1        0.0000 
      2 OG        -22.9400   14.4400  -16.7500 O.3       1 SER1        0.0000 
      3 OG        -22.1600   15.5700  -16.1400 O.3       1 SER1        0.0000 
      4 OG        -20.8800   14.8100  -16.3600 O.3       1 SER1        0.0000 
      5 CZ        -20.6700    9.9200  -18.6600 C.ar      2 PHE5        0.0000 
      6 CA        -21.1600   11.8000  -17.8200 C.3       3 GLY6        0.0000 
      7 CA        -21.3100   11.1600  -16.4700 C.3       3 GLY6        0.0000 
      8 CA        -19.8900   11.0400  -18.0400 C.3       3 GLY6        0.0000 
      9 CA        -20.5300   12.2800  -15.8500 C.3       3 GLY6        0.0000 
     10 CA        -20.6700   11.6400  -14.5000 C.3       3 GLY6        0.0000 
     11 CA        -20.8100   11.0000  -13.1500 C.3       3 GLY6        0.0000 
     12 CA        -19.1100   12.1700  -17.4300 C.3       3 GLY6        0.0000 
     13 CA        -22.3000   14.9300  -14.7900 C.3       3 GLY6        0.0000 
     14 CA        -21.3100   12.8900  -12.3100 C.3       3 GLY6        0.0000 
     15 CA        -19.8900   12.7700  -13.8900 C.3       3 GLY6        0.0000 
     16 CA        -20.0300   12.1300  -12.5400 C.3       3 GLY6        0.0000 
     17 CA        -18.6200   12.0100  -14.1100 C.3       3 GLY6        0.0000 
     18 CA        -21.6600   15.4100  -12.8200 C.3       3 GLY6        0.0000 
     19 CA        -20.2500   15.2900  -14.4000 C.3       3 GLY6        0.0000 
     20 CA        -20.3900   14.6500  -13.0500 C.3       3 GLY6        0.0000 
     21 CA        -19.1100   13.8900  -13.2700 C.3       3 GLY6        0.0000 
     22 CA        -17.8400   13.1400  -13.5000 C.3       3 GLY6        0.0000 
     23 CA        -21.0200   15.9000  -10.8600 C.3       3 GLY6        0.0000 
     24 DU        -23.5700   13.9600  -18.7200 H         4 CUB7        0.0000 
     25 DU        -22.3000   13.2000  -18.9400 H         4 CUB7        0.0000 
     26 DU        -22.4400   12.5600  -17.5900 H         4 CUB7        0.0000 
     27 DU        -22.5800   11.9200  -16.2400 H         4 CUB7        0.0000 
     28 DU        -21.0200   12.4400  -19.1700 H         4 CUB7        0.0000 
     29 DU        -21.6600   13.6800  -16.9800 H         4 CUB7        0.0000 
     30 DU        -21.8000   13.0400  -15.6300 H         4 CUB7        0.0000 
     31 DU        -20.3900   12.9200  -17.2000 H         4 CUB7        0.0000 
     32 DU        -21.0200   14.1700  -15.0100 H         4 CUB7        0.0000 
     33 DU        -21.1700   13.5300  -13.6600 H         4 CUB7        0.0000 
     34 DU        -19.7500   13.4100  -15.2400 H         4 CUB7        0.0000 
@<TRIPOS>BOND
@<TRIPOS>SUBSTRUCTURE
     1 SER1        1 GROUP   
     2 PHE5        5 GROUP   
     3 GLY6        6 GROUP   
     4 CUB7       24 GROUP   
@<TRIPOS>SET

