#    Name: 6nas_1_ACO_CAVITY_N1_8
#    Modification time : Fri May 22 19:40:14 2020

@<TRIPOS>MOLECULE
6nas_1_ACO_CAVITY_N1_8
  134     0     7     0     0
SMALL
NO_CHARGES


@<TRIPOS>ATOM
      1 OG        -30.8400  -40.0700   60.3500 O.3       1 SER1        0.0000 
      2 OG        -30.3100  -39.1000   59.3300 O.3       1 SER1        0.0000 
      3 OG        -27.7100  -40.6000   59.2600 O.3       1 SER1        0.0000 
      4 OG        -25.6900  -49.4700   67.3700 O.3       1 SER1        0.0000 
      5 OG        -24.3900  -50.2200   67.3400 O.3       1 SER1        0.0000 
      6 OG        -29.0100  -39.9400   61.4100 O.3       1 SER1        0.0000 
      7 OG        -27.7100  -40.6900   61.3800 O.3       1 SER1        0.0000 
      8 OG        -28.4800  -38.9800   60.4000 O.3       1 SER1        0.0000 
      9 OG        -26.4600  -47.8500   68.5000 O.3       1 SER1        0.0000 
     10 OG        -25.1600  -48.6000   68.4700 O.3       1 SER1        0.0000 
     11 OG        -23.8600  -49.3500   68.4400 O.3       1 SER1        0.0000 
     12 OG        -26.4600  -47.9400   70.6200 O.3       1 SER1        0.0000 
     13 OG        -24.6400  -47.7300   69.5700 O.3       1 SER1        0.0000 
     14 OG        -23.3400  -48.4700   69.5400 O.3       1 SER1        0.0000 
     15 OG        -25.1700  -48.7800   72.7100 O.3       1 SER1        0.0000 
     16 OG        -24.6400  -47.8200   71.6900 O.3       1 SER1        0.0000 
     17 OG        -24.6400  -47.9100   73.8100 O.3       1 SER1        0.0000 
     18 O         -30.3600  -45.1400   58.0000 O.2       2 ALA2        0.0000 
     19 N         -29.0600  -45.8900   57.9700 N.am      2 ALA2        0.0000 
     20 N         -27.7600  -46.6400   57.9400 N.am      2 ALA2        0.0000 
     21 O         -29.8300  -44.1800   56.9800 O.2       2 ALA2        0.0000 
     22 O         -30.6000  -42.4700   56.0000 O.2       2 ALA2        0.0000 
     23 N         -29.0600  -45.9800   60.0900 N.am      2 ALA2        0.0000 
     24 N         -29.8300  -44.2700   59.1000 N.am      2 ALA2        0.0000 
     25 N         -28.5300  -45.0200   59.0700 N.am      2 ALA2        0.0000 
     26 N         -30.6000  -42.5600   58.1200 N.am      2 ALA2        0.0000 
     27 N         -29.3000  -43.3100   58.0800 N.am      2 ALA2        0.0000 
     28 N         -26.7000  -44.8000   58.0200 N.am      2 ALA2        0.0000 
     29 O         -31.3700  -40.8500   57.1300 O.2       2 ALA2        0.0000 
     30 O         -29.0600  -46.0800   62.2100 O.2       2 ALA2        0.0000 
     31 N         -28.5300  -45.1100   61.1900 N.am      2 ALA2        0.0000 
     32 O         -24.6300  -47.3600   61.0900 O.2       2 ALA2        0.0000 
     33 N         -28.0000  -44.1500   60.1700 N.am      2 ALA2        0.0000 
     34 N         -26.7000  -44.8900   60.1400 N.am      2 ALA2        0.0000 
     35 N         -31.3700  -40.9400   59.2500 N.am      2 ALA2        0.0000 
     36 N         -28.7700  -42.4300   59.1800 N.am      2 ALA2        0.0000 
     37 N         -27.4700  -43.1800   59.1500 N.am      2 ALA2        0.0000 
     38 N         -26.9400  -42.2200   58.1300 N.am      2 ALA2        0.0000 
     39 O         -26.2200  -50.3400   66.2700 O.2       2 ALA2        0.0000 
     40 O         -25.6900  -49.3800   65.2500 O.2       2 ALA2        0.0000 
     41 O         -24.3900  -50.1300   65.2200 O.2       2 ALA2        0.0000 
     42 O         -23.8600  -49.1600   64.2000 O.2       2 ALA2        0.0000 
     43 O         -22.5600  -49.9100   64.1700 O.2       2 ALA2        0.0000 
     44 N         -26.1700  -44.0200   61.2400 N.am      2 ALA2        0.0000 
     45 N         -24.8700  -44.7700   61.2100 N.am      2 ALA2        0.0000 
     46 O         -23.5700  -45.5200   61.1700 O.2       2 ALA2        0.0000 
     47 N         -29.5400  -40.8100   60.3100 N.am      2 ALA2        0.0000 
     48 N         -28.2400  -41.5600   60.2800 N.am      2 ALA2        0.0000 
     49 N         -26.9400  -42.3100   60.2500 N.am      2 ALA2        0.0000 
     50 O         -29.0100  -39.8500   59.3000 O.2       2 ALA2        0.0000 
     51 O         -23.8600  -49.2500   66.3200 O.2       2 ALA2        0.0000 
     52 O         -22.5600  -50.0000   66.2900 O.2       2 ALA2        0.0000 
     53 O         -23.3300  -48.2900   65.3000 O.2       2 ALA2        0.0000 
     54 O         -23.3400  -48.3800   67.4200 O.2       2 ALA2        0.0000 
     55 O         -22.8100  -47.5100   68.5200 O.2       2 ALA2        0.0000 
     56 O         -24.4000  -50.5000   73.7000 O.2       2 ALA2        0.0000 
     57 O         -22.5700  -50.3700   74.7600 O.2       2 ALA2        0.0000 
     58 N         -22.0400  -49.4100   73.7400 N.am      2 ALA2        0.0000 
     59 OD1       -29.5900  -46.8500   58.9900 O.co2     3 ASP3        0.0000 
     60 OD1       -27.7600  -46.7300   60.0600 O.co2     3 ASP3        0.0000 
     61 OD1       -26.4600  -47.4800   60.0200 O.co2     3 ASP3        0.0000 
     62 OD1       -27.2300  -45.7700   59.0400 O.co2     3 ASP3        0.0000 
     63 OD1       -25.9300  -46.5100   59.0100 O.co2     3 ASP3        0.0000 
     64 OD1       -24.1100  -46.8500   70.6700 O.co2     3 ASP3        0.0000 
     65 OD1       -24.1100  -46.9500   72.7900 O.co2     3 ASP3        0.0000 
     66 OD1       -22.8100  -47.6900   72.7600 O.co2     3 ASP3        0.0000 
     67 OD1       -21.5100  -48.4400   72.7200 O.co2     3 ASP3        0.0000 
     68 OD1       -23.5800  -45.9800   71.7700 O.co2     3 ASP3        0.0000 
     69 NZ        -32.6700  -40.1900   59.2800 N.4       4 LYS4        0.0000 
     70 CZ        -28.0000  -44.0500   58.0500 C.ar      5 PHE5        0.0000 
     71 CZ        -30.0700  -41.5900   57.1000 C.ar      5 PHE5        0.0000 
     72 CZ        -29.5400  -40.7200   58.2000 C.ar      5 PHE5        0.0000 
     73 CZ        -28.2400  -41.4700   58.1600 C.ar      5 PHE5        0.0000 
     74 CZ        -26.9900  -48.7200   67.4000 C.ar      5 PHE5        0.0000 
     75 CZ        -26.4600  -47.7600   66.3800 C.ar      5 PHE5        0.0000 
     76 CZ        -27.2300  -46.0400   65.4000 C.ar      5 PHE5        0.0000 
     77 CZ        -25.9300  -46.7900   65.3600 C.ar      5 PHE5        0.0000 
     78 CZ        -24.6300  -47.5400   65.3300 C.ar      5 PHE5        0.0000 
     79 CZ        -26.7000  -45.0800   64.3800 C.ar      5 PHE5        0.0000 
     80 CZ        -25.4000  -45.8300   64.3400 C.ar      5 PHE5        0.0000 
     81 CZ        -26.1700  -44.1200   63.3600 C.ar      5 PHE5        0.0000 
     82 CZ        -24.8700  -44.8600   63.3200 C.ar      5 PHE5        0.0000 
     83 CZ        -25.6400  -43.1500   62.3400 C.ar      5 PHE5        0.0000 
     84 CZ        -27.7600  -47.1000   68.5300 C.ar      5 PHE5        0.0000 
     85 CZ        -25.9300  -46.8800   67.4800 C.ar      5 PHE5        0.0000 
     86 CZ        -24.6300  -47.6300   67.4500 C.ar      5 PHE5        0.0000 
     87 CZ        -27.2300  -46.2300   69.6300 C.ar      5 PHE5        0.0000 
     88 CZ        -25.9400  -46.9800   69.6000 C.ar      5 PHE5        0.0000 
     89 CZ        -24.1100  -46.7600   68.5500 C.ar      5 PHE5        0.0000 
     90 CZ        -27.2400  -46.3200   71.7500 C.ar      5 PHE5        0.0000 
     91 CZ        -25.9400  -47.0700   71.7200 C.ar      5 PHE5        0.0000 
     92 CZ        -26.7100  -45.3600   70.7300 C.ar      5 PHE5        0.0000 
     93 CZ        -25.4100  -46.1100   70.7000 C.ar      5 PHE5        0.0000 
     94 CZ        -24.8800  -45.1400   69.6800 C.ar      5 PHE5        0.0000 
     95 CZ        -23.5800  -45.8900   69.6500 C.ar      5 PHE5        0.0000 
     96 CA        -28.5300  -44.9300   56.9500 C.3       6 GLY6        0.0000 
     97 CA        -28.2900  -47.7000   61.0800 C.3       6 GLY6        0.0000 
     98 CA        -26.2200  -50.2500   64.1500 C.3       6 GLY6        0.0000 
     99 CA        -26.9900  -48.5400   63.1600 C.3       6 GLY6        0.0000 
    100 CA        -25.6900  -49.2800   63.1300 C.3       6 GLY6        0.0000 
    101 CA        -24.3900  -50.0300   63.1000 C.3       6 GLY6        0.0000 
    102 CA        -26.4600  -47.5700   62.1400 C.3       6 GLY6        0.0000 
    103 CA        -25.1600  -48.3200   62.1100 C.3       6 GLY6        0.0000 
    104 CA        -25.4000  -45.6400   60.1100 C.3       6 GLY6        0.0000 
    105 CA        -28.5300  -45.2000   63.3100 C.3       6 GLY6        0.0000 
    106 CA        -24.6300  -47.4500   63.2100 C.3       6 GLY6        0.0000 
    107 CA        -23.3300  -48.2000   63.1800 C.3       6 GLY6        0.0000 
    108 CA        -28.0000  -44.2400   62.2900 C.3       6 GLY6        0.0000 
    109 CA        -24.1000  -46.4800   62.1900 C.3       6 GLY6        0.0000 
    110 CA        -27.4700  -43.2700   61.2700 C.3       6 GLY6        0.0000 
    111 CA        -28.0000  -44.3300   64.4100 C.3       6 GLY6        0.0000 
    112 CA        -24.1000  -46.5800   64.3100 C.3       6 GLY6        0.0000 
    113 CA        -27.4700  -43.3700   63.3900 C.3       6 GLY6        0.0000 
    114 CA        -23.5700  -45.6100   63.2900 C.3       6 GLY6        0.0000 
    115 CA        -24.3400  -43.9000   62.3000 C.3       6 GLY6        0.0000 
    116 CA        -23.0400  -44.6500   62.2700 C.3       6 GLY6        0.0000 
    117 CA        -22.8100  -47.4200   66.4000 C.3       6 GLY6        0.0000 
    118 CA        -23.3400  -48.5700   71.6600 C.3       6 GLY6        0.0000 
    119 CA        -22.0400  -49.3100   71.6200 C.3       6 GLY6        0.0000 
    120 CA        -22.8100  -47.6000   70.6400 C.3       6 GLY6        0.0000 
    121 CA        -23.3400  -48.6600   73.7800 C.3       6 GLY6        0.0000 
    122 DU        -27.7600  -46.8200   62.1800 H         7 CUB7        0.0000 
    123 DU        -27.2300  -45.8600   61.1600 H         7 CUB7        0.0000 
    124 DU        -25.9300  -46.6100   61.1200 H         7 CUB7        0.0000 
    125 DU        -30.8400  -39.9700   58.2300 H         7 CUB7        0.0000 
    126 DU        -26.9900  -48.6300   65.2800 H         7 CUB7        0.0000 
    127 DU        -27.7600  -46.9200   64.3000 H         7 CUB7        0.0000 
    128 DU        -26.4600  -47.6600   64.2600 H         7 CUB7        0.0000 
    129 DU        -25.1600  -48.4100   64.2300 H         7 CUB7        0.0000 
    130 DU        -27.2300  -45.9500   63.2800 H         7 CUB7        0.0000 
    131 DU        -25.9300  -46.7000   63.2400 H         7 CUB7        0.0000 
    132 DU        -26.7000  -44.9900   62.2600 H         7 CUB7        0.0000 
    133 DU        -25.4000  -45.7400   62.2200 H         7 CUB7        0.0000 
    134 DU        -25.1600  -48.5100   66.3500 H         7 CUB7        0.0000 
@<TRIPOS>BOND
@<TRIPOS>SUBSTRUCTURE
     1 SER1        1 GROUP   
     2 ALA2       18 GROUP   
     3 ASP3       59 GROUP   
     4 LYS4       69 GROUP   
     5 PHE5       70 GROUP   
     6 GLY6       96 GROUP   
     7 CUB7      122 GROUP   
@<TRIPOS>SET

