#    Name: 6nas_1_LAB
#    Modification time : Fri May 22 19:40:09 2020

@<TRIPOS>MOLECULE
6nas_1_LAB
   56    58     1     0     0
SMALL
NO_CHARGES


@<TRIPOS>ATOM
      1 O5        -14.3410  -25.0620   11.8770 O.2       1 LAB402      0.0000 
      2 C18       -15.3230  -25.7370   11.9710 C.2       1 LAB402      0.0000 
      3 N1        -16.1570  -25.7710   13.0960 N.am      1 LAB402      0.0000 
      4 C16       -17.3300  -27.0300   12.9040 C.3       1 LAB402      0.0000 
      5 C17       -17.3910  -27.2810   11.4760 C.3       1 LAB402      0.0000 
      6 S1        -15.9160  -26.7650   10.8390 S.3       1 LAB402      0.0000 
      7 C15       -16.9820  -28.2180   13.6580 C.3       1 LAB402      0.0000 
      8 O4        -15.9500  -28.9210   13.0410 O.3       1 LAB402      0.0000 
      9 C14       -16.4790  -27.8570   15.0440 C.3       1 LAB402      0.0000 
     10 C13       -17.0430  -28.5300   16.2120 C.3       1 LAB402      0.0000 
     11 O2        -16.0260  -29.4370   16.8020 O.3       1 LAB402      0.0000 
     12 C12       -18.2990  -29.3900   16.0050 C.3       1 LAB402      0.0000 
     13 C11       -18.1120  -30.2500   14.6090 C.3       1 LAB402      0.0000 
     14 O3        -18.1510  -29.1100   13.5920 O.3       1 LAB402      0.0000 
     15 C10       -19.0920  -31.1360   14.4100 C.3       1 LAB402      0.0000 
     16 C9        -18.7210  -32.0850   13.1370 C.3       1 LAB402      0.0000 
     17 C8        -17.4290  -32.9240   13.3780 C.3       1 LAB402      0.0000 
     18 C20       -17.2640  -33.9360   12.2540 C.3       1 LAB402      0.0000 
     19 C7        -17.5660  -33.6720   14.6740 C.2       1 LAB402      0.0000 
     20 C6        -16.5240  -33.5100   15.8580 C.2       1 LAB402      0.0000 
     21 C5        -15.2780  -32.5870   15.7340 C.3       1 LAB402      0.0000 
     22 C4        -14.9900  -32.0250   17.1890 C.3       1 LAB402      0.0000 
     23 C3        -13.6180  -31.2850   17.2320 C.2       1 LAB402      0.0000 
     24 C19       -12.3070  -32.0920   17.2710 C.3       1 LAB402      0.0000 
     25 C2        -13.5290  -29.7390   17.2530 C.2       1 LAB402      0.0000 
     26 C1        -14.7850  -28.8200   17.2270 C.2       1 LAB402      0.0000 
     27 O1        -14.7320  -27.6690   17.4940 O.2       1 LAB402      0.0000 
     28 HN1       -16.0860  -25.1640   13.8860 H         1 LAB402      0.0000 
     29 H16       -18.2900  -26.6800   13.2450 H         1 LAB402      0.0000 
     30 H171      -17.5220  -28.3410   11.2930 H         1 LAB402      0.0000 
     31 H172      -18.2020  -26.7130   11.0360 H         1 LAB402      0.0000 
     32 HO4       -15.3800  -28.2960   12.6350 H         1 LAB402      0.0000 
     33 H141      -15.4220  -28.0450   15.0540 H         1 LAB402      0.0000 
     34 H142      -16.6500  -26.8050   15.1760 H         1 LAB402      0.0000 
     35 H13       -17.3070  -27.7220   16.8660 H         1 LAB402      0.0000 
     36 H121      -18.4170  -30.0810   16.8510 H         1 LAB402      0.0000 
     37 H122      -19.1820  -28.7410   15.9240 H         1 LAB402      0.0000 
     38 H11       -17.2170  -30.8510   14.5730 H         1 LAB402      0.0000 
     39 H101      -20.0170  -30.6110   14.2110 H         1 LAB402      0.0000 
     40 H102      -19.2080  -31.7490   15.2940 H         1 LAB402      0.0000 
     41 H91       -19.5470  -32.7630   12.9550 H         1 LAB402      0.0000 
     42 H92       -18.5720  -31.4570   12.2660 H         1 LAB402      0.0000 
     43 H8        -16.5810  -32.2700   13.4110 H         1 LAB402      0.0000 
     44 H201      -17.3170  -33.4270   11.2990 H         1 LAB402      0.0000 
     45 H202      -16.3040  -34.4270   12.3480 H         1 LAB402      0.0000 
     46 H203      -18.0540  -34.6740   12.3130 H         1 LAB402      0.0000 
     47 H7        -18.4060  -34.3460   14.8030 H         1 LAB402      0.0000 
     48 H6        -16.6830  -34.0540   16.7730 H         1 LAB402      0.0000 
     49 H51       -14.4280  -33.1520   15.3760 H         1 LAB402      0.0000 
     50 H52       -15.4820  -31.7730   15.0520 H         1 LAB402      0.0000 
     51 H41       -15.7740  -31.3350   17.4650 H         1 LAB402      0.0000 
     52 H42       -14.9710  -32.8480   17.8900 H         1 LAB402      0.0000 
     53 H191      -11.8610  -32.0090   18.2560 H         1 LAB402      0.0000 
     54 H192      -11.6190  -31.7020   16.5300 H         1 LAB402      0.0000 
     55 H193      -12.5170  -33.1340   17.0570 H         1 LAB402      0.0000 
     56 H2        -12.5500  -29.2780   17.2880 H         1 LAB402      0.0000 
@<TRIPOS>BOND
     1    1    2 2    
     2    2    3 am   
     3    2    6 1    
     4    3    4 1    
     5    3   28 1    
     6    4    5 1    
     7    4    7 1    
     8    4   29 1    
     9    5    6 1    
    10    5   30 1    
    11    5   31 1    
    12    7    8 1    
    13    7    9 1    
    14    7   14 1    
    15    8   32 1    
    16    9   10 1    
    17    9   33 1    
    18    9   34 1    
    19   10   11 1    
    20   10   12 1    
    21   10   35 1    
    22   11   26 1    
    23   12   13 1    
    24   12   36 1    
    25   12   37 1    
    26   13   14 1    
    27   13   15 1    
    28   13   38 1    
    29   15   16 1    
    30   15   39 1    
    31   15   40 1    
    32   16   17 1    
    33   16   41 1    
    34   16   42 1    
    35   17   18 1    
    36   17   19 1    
    37   17   43 1    
    38   18   44 1    
    39   18   45 1    
    40   18   46 1    
    41   19   20 2    
    42   19   47 1    
    43   20   21 1    
    44   20   48 1    
    45   21   22 1    
    46   21   49 1    
    47   21   50 1    
    48   22   23 1    
    49   22   51 1    
    50   22   52 1    
    51   23   24 1    
    52   23   25 2    
    53   24   53 1    
    54   24   54 1    
    55   24   55 1    
    56   25   26 1    
    57   25   56 1    
    58   26   27 2    
@<TRIPOS>SUBSTRUCTURE
     1 LAB402      1 GROUP   
@<TRIPOS>SET

