#    Name: 6nas_1_ACO
#    Modification time : Fri May 22 19:40:12 2020

@<TRIPOS>MOLECULE
6nas_1_ACO
   85    87     1     0     1
SMALL
NO_CHARGES


@<TRIPOS>ATOM
      1 N1A       -31.0680  -44.8920   68.1250 N.ar      1 ACO400      0.0000 
      2 C2A       -30.6580  -44.7930   69.4120 C.ar      1 ACO400      0.0000 
      3 N3A       -29.5240  -45.4030   69.8090 N.ar      1 ACO400      0.0000 
      4 C4A       -28.7980  -46.1090   68.9340 C.ar      1 ACO400      0.0000 
      5 C5A       -29.2010  -46.2090   67.6560 C.ar      1 ACO400      0.0000 
      6 C6A       -30.3560  -45.5880   67.2600 C.ar      1 ACO400      0.0000 
      7 N6A       -30.9140  -45.5990   65.9210 N.pl3     1 ACO400      0.0000 
      8 N7A       -28.3030  -46.9640   66.9930 N.2       1 ACO400      0.0000 
      9 C8A       -27.3590  -47.3160   67.8590 C.2       1 ACO400      0.0000 
     10 N9A       -27.6680  -46.7970   69.0720 N.pl3     1 ACO400      0.0000 
     11 C1B       -26.9270  -46.9310   70.2780 C.3       1 ACO400      0.0000 
     12 C2B       -26.6440  -48.1790   70.6030 C.3       1 ACO400      0.0000 
     13 O2B       -27.6710  -48.7140   71.5320 O.3       1 ACO400      0.0000 
     14 C3B       -25.2820  -48.1080   71.3490 C.3       1 ACO400      0.0000 
     15 O3B       -25.4170  -47.8860   72.6350 O.3       1 ACO400      0.0000 
     16 P3B       -24.0660  -48.0110   73.5790 P.3       1 ACO400      0.0000 
     17 O7A       -23.8940  -46.7500   74.3910 O.co2     1 ACO400      0.0000 
     18 O8A       -24.2100  -49.1890   74.5030 O.co2     1 ACO400      0.0000 
     19 O9A       -22.8360  -48.2050   72.7030 O.co2     1 ACO400      0.0000 
     20 C4B       -24.5390  -46.8770   70.6460 C.3       1 ACO400      0.0000 
     21 O4B       -25.4620  -46.1690   70.0590 O.3       1 ACO400      0.0000 
     22 C5B       -23.5290  -47.4570   69.6170 C.3       1 ACO400      0.0000 
     23 O5B       -24.2600  -48.4580   68.8670 O.3       1 ACO400      0.0000 
     24 P1A       -23.6430  -49.0020   67.4400 P.3       1 ACO400      0.0000 
     25 O1A       -23.4790  -50.5020   67.5010 O.co2     1 ACO400      0.0000 
     26 O2A       -22.3230  -48.3300   67.1890 O.co2     1 ACO400      0.0000 
     27 O3A       -24.7250  -48.6240   66.2440 O.3       1 ACO400      0.0000 
     28 P2A       -24.4720  -48.9720   64.6390 P.3       1 ACO400      0.0000 
     29 O4A       -23.2710  -49.8610   64.4780 O.co2     1 ACO400      0.0000 
     30 O5A       -25.6930  -49.6420   64.0690 O.co2     1 ACO400      0.0000 
     31 O6A       -24.2170  -47.5420   63.8720 O.3       1 ACO400      0.0000 
     32 CBP       -25.5490  -46.0150   62.6500 C.3       1 ACO400      0.0000 
     33 CCP       -25.2230  -46.5300   64.0310 C.3       1 ACO400      0.0000 
     34 CDP       -26.6520  -44.9490   62.7730 C.3       1 ACO400      0.0000 
     35 CEP       -24.2240  -45.3890   62.0240 C.3       1 ACO400      0.0000 
     36 CAP       -25.9860  -47.2170   61.7910 C.3       1 ACO400      0.0000 
     37 OAP       -27.1520  -47.7600   62.3230 O.3       1 ACO400      0.0000 
     38 C9P       -26.2690  -46.8120   60.3410 C.2       1 ACO400      0.0000 
     39 O9P       -25.3960  -46.7670   59.5630 O.2       1 ACO400      0.0000 
     40 N8P       -27.6240  -46.5040   59.9510 N.am      1 ACO400      0.0000 
     41 C7P       -27.9320  -46.0950   58.5640 C.3       1 ACO400      0.0000 
     42 C6P       -27.1540  -44.7810   58.2560 C.3       1 ACO400      0.0000 
     43 C5P       -27.6860  -43.6090   59.1900 C.2       1 ACO400      0.0000 
     44 O5P       -28.7660  -43.7130   59.6690 O.2       1 ACO400      0.0000 
     45 N4P       -26.8300  -42.4240   59.4350 N.am      1 ACO400      0.0000 
     46 C3P       -27.2470  -41.2800   60.2750 C.3       1 ACO400      0.0000 
     47 C2P       -28.7260  -41.0410   60.0470 C.3       1 ACO400      0.0000 
     48 S1P       -29.2400  -39.2980   60.0320 S.3       1 ACO400      0.0000 
     49 C         -31.0300  -39.3650   59.4910 C.2       1 ACO400      0.0000 
     50 O         -31.5620  -38.4030   59.1130 O.2       1 ACO400      0.0000 
     51 CH3       -31.8630  -40.6790   59.5560 C.3       1 ACO400      0.0000 
     52 H2A       -31.2230  -44.2430   70.0980 H         1 ACO400      0.0000 
     53 H61A      -30.7690  -46.3890   65.3220 H         1 ACO400      0.0000 
     54 H62A      -31.4420  -44.8230   65.6010 H         1 ACO400      0.0000 
     55 H8A       -26.4880  -47.9160   67.6340 H         1 ACO400      0.0000 
     56 H1B       -27.4910  -46.5320   71.0940 H         1 ACO400      0.0000 
     57 H2B       -26.5670  -48.7920   69.6950 H         1 ACO400      0.0000 
     58 HO2A      -27.9590  -49.5500   71.2240 H         1 ACO400      0.0000 
     59 H3B       -24.7450  -49.0490   71.2220 H         1 ACO400      0.0000 
     60 H4B       -24.0580  -46.2600   71.3570 H         1 ACO400      0.0000 
     61 H51A      -23.1740  -46.6790   68.9600 H         1 ACO400      0.0000 
     62 H52A      -22.6900  -47.9070   70.1270 H         1 ACO400      0.0000 
     63 H121      -26.1120  -46.9580   64.4930 H         1 ACO400      0.0000 
     64 H122      -24.8440  -45.7220   64.6550 H         1 ACO400      0.0000 
     65 H131      -27.0290  -44.6850   61.7590 H         1 ACO400      0.0000 
     66 H132      -27.4900  -45.3500   63.3860 H         1 ACO400      0.0000 
     67 H133      -26.2370  -44.0400   63.2620 H         1 ACO400      0.0000 
     68 H141      -23.4300  -46.0960   62.0970 H         1 ACO400      0.0000 
     69 H142      -24.3950  -45.1490   61.0000 H         1 ACO400      0.0000 
     70 H143      -23.9640  -44.5040   62.5590 H         1 ACO400      0.0000 
     71 H10       -25.1700  -47.9390   61.7960 H         1 ACO400      0.0000 
     72 HO1       -26.9410  -48.5180   62.8430 H         1 ACO400      0.0000 
     73 HN8       -28.3790  -46.5690   60.6410 H         1 ACO400      0.0000 
     74 H71       -27.6250  -46.8700   57.8770 H         1 ACO400      0.0000 
     75 H72       -28.9940  -45.9210   58.4610 H         1 ACO400      0.0000 
     76 H61       -26.0990  -44.9400   58.4400 H         1 ACO400      0.0000 
     77 H62       -27.3020  -44.5130   57.2190 H         1 ACO400      0.0000 
     78 HN4       -25.9190  -42.3950   59.0090 H         1 ACO400      0.0000 
     79 H31       -27.0660  -41.5110   61.3400 H         1 ACO400      0.0000 
     80 H32       -26.6750  -40.3780   59.9920 H         1 ACO400      0.0000 
     81 H21       -29.2730  -41.5480   60.8410 H         1 ACO400      0.0000 
     82 H22       -28.9910  -41.4800   59.0870 H         1 ACO400      0.0000 
     83 HH31      -31.3060  -41.4990   59.0490 H         1 ACO400      0.0000 
     84 HH32      -32.0410  -40.9560   60.6190 H         1 ACO400      0.0000 
     85 HH33      -32.8410  -40.5270   59.0460 H         1 ACO400      0.0000 
@<TRIPOS>BOND
     1    1    2 ar   
     2    1    6 ar   
     3    2    3 ar   
     4    2   52 1    
     5    3    4 ar   
     6    4    5 ar   
     7    4   10 1    
     8    5    6 ar   
     9    5    8 1    
    10    6    7 1    
    11    7   53 1    
    12    7   54 1    
    13    8    9 2    
    14    9   10 1    
    15    9   55 1    
    16   10   11 1    
    17   11   12 1    
    18   11   21 1    
    19   11   56 1    
    20   12   13 1    
    21   12   14 1    
    22   12   57 1    
    23   13   58 1    
    24   14   15 1    
    25   14   20 1    
    26   14   59 1    
    27   15   16 1    
    28   16   17 ar   
    29   16   18 ar   
    30   16   19 ar   
    31   20   21 1    
    32   20   22 1    
    33   20   60 1    
    34   22   23 1    
    35   22   61 1    
    36   22   62 1    
    37   23   24 1    
    38   24   25 ar   
    39   24   26 ar   
    40   24   27 1    
    41   27   28 1    
    42   28   29 ar   
    43   28   30 ar   
    44   28   31 1    
    45   31   33 1    
    46   32   33 1    
    47   32   34 1    
    48   32   35 1    
    49   32   36 1    
    50   33   63 1    
    51   33   64 1    
    52   34   66 1    
    53   34   65 1    
    54   34   67 1    
    55   35   68 1    
    56   35   69 1    
    57   35   70 1    
    58   36   37 1    
    59   36   38 1    
    60   36   71 1    
    61   37   72 1    
    62   38   39 2    
    63   38   40 am   
    64   40   41 1    
    65   40   73 1    
    66   41   42 1    
    67   41   74 1    
    68   41   75 1    
    69   42   43 1    
    70   42   76 1    
    71   42   77 1    
    72   43   44 2    
    73   43   45 am   
    74   45   46 1    
    75   45   78 1    
    76   46   47 1    
    77   46   79 1    
    78   46   80 1    
    79   47   48 1    
    80   47   81 1    
    81   47   82 1    
    82   48   49 1    
    83   49   50 2    
    84   49   51 1    
    85   51   83 1    
    86   51   84 1    
    87   51   85 1    
@<TRIPOS>SUBSTRUCTURE
     1 ACO400      1 GROUP   
@<TRIPOS>SET
ATOM$ORANGE STATIC     ATOMS   COLORGROUP SYSTEM 
46 2 2 4 4 5 5 6 6 9 9 11 11 12 12 14 14 20 \
20 22 22 32 32 33 33 34 34 35 35 36 36 38 38 41 41 42 \
42 43 43 46 46 47 47 49 49 51 51 

