#    Name: 6ixj_2_NDP
#    Modification time : Fri May 22 19:32:59 2020

@<TRIPOS>MOLECULE
6ixj_2_NDP
   48    52     1     0     1
SMALL
NO_CHARGES


@<TRIPOS>ATOM
      1 PA         74.4970  -29.9810   19.3260 P.3       1 NDP301      0.0000 
      2 O1A        74.4240  -31.4600   19.2000 O.co2     1 NDP301      0.0000 
      3 O2A        74.2370  -29.1170   18.1310 O.co2     1 NDP301      0.0000 
      4 O5B        75.9610  -29.5270   19.9390 O.3       1 NDP301      0.0000 
      5 C5B        76.4130  -30.6080   20.6710 C.3       1 NDP301      0.0000 
      6 C4B        77.8140  -30.2690   21.1460 C.3       1 NDP301      0.0000 
      7 O4B        78.4600  -31.4310   21.5990 O.3       1 NDP301      0.0000 
      8 C3B        78.6040  -29.6610   19.9620 C.3       1 NDP301      0.0000 
      9 O3B        78.9370  -28.3290   20.2350 O.3       1 NDP301      0.0000 
     10 C2B        79.9070  -30.5080   19.9310 C.3       1 NDP301      0.0000 
     11 O2B        81.0130  -29.7730   19.8590 O.3       1 NDP301      0.0000 
     12 C1B        79.8300  -31.2490   21.3280 C.3       1 NDP301      0.0000 
     13 N9A        80.4220  -32.5890   21.3030 N.pl3     1 NDP301      0.0000 
     14 C8A        79.8370  -33.7830   20.8460 C.2       1 NDP301      0.0000 
     15 N7A        80.6420  -34.8580   20.9710 N.2       1 NDP301      0.0000 
     16 C5A        81.8110  -34.3320   21.5470 C.ar      1 NDP301      0.0000 
     17 C6A        83.0210  -34.9340   21.9260 C.ar      1 NDP301      0.0000 
     18 N6A        83.2100  -36.2880   21.7480 N.pl3     1 NDP301      0.0000 
     19 N1A        84.0360  -34.2070   22.4790 N.ar      1 NDP301      0.0000 
     20 C2A        83.7720  -32.8600   22.6250 C.ar      1 NDP301      0.0000 
     21 N3A        82.6800  -32.1390   22.3160 N.ar      1 NDP301      0.0000 
     22 C4A        81.6870  -32.9180   21.7650 C.ar      1 NDP301      0.0000 
     23 O3         73.3130  -29.4570   20.4120 O.3       1 NDP301      0.0000 
     24 PN         72.5770  -30.5780   21.3120 P.3       1 NDP301      0.0000 
     25 O1N        73.0580  -31.9630   21.1380 O.co2     1 NDP301      0.0000 
     26 O2N        71.1080  -30.2560   21.4810 O.co2     1 NDP301      0.0000 
     27 O5D        73.1300  -30.2950   22.9670 O.3       1 NDP301      0.0000 
     28 C5D        73.9540  -31.3460   23.2750 C.3       1 NDP301      0.0000 
     29 C4D        73.3930  -32.0780   24.4790 C.3       1 NDP301      0.0000 
     30 O4D        71.9650  -31.9310   24.5520 O.3       1 NDP301      0.0000 
     31 C3D        73.6730  -33.5950   24.2850 C.3       1 NDP301      0.0000 
     32 O3D        74.1550  -34.0920   25.4820 O.3       1 NDP301      0.0000 
     33 C2D        72.2880  -34.1460   23.9910 C.3       1 NDP301      0.0000 
     34 O2D        72.1140  -35.4360   24.4690 O.3       1 NDP301      0.0000 
     35 C1D        71.4560  -33.2030   24.8670 C.3       1 NDP301      0.0000 
     36 N1N        70.0410  -33.2690   24.4940 N.pl3     1 NDP301      0.0000 
     37 C2N        69.6180  -32.7450   23.2930 C.2       1 NDP301      0.0000 
     38 C3N        68.3170  -32.8560   22.9050 C.2       1 NDP301      0.0000 
     39 C7N        67.9660  -32.2670   21.6260 C.2       1 NDP301      0.0000 
     40 O7N        66.9530  -32.5580   20.9740 O.2       1 NDP301      0.0000 
     41 N7N        68.8310  -31.3100   21.1260 N.am      1 NDP301      0.0000 
     42 C4N        67.2910  -33.5370   23.7290 C.3       1 NDP301      0.0000 
     43 C5N        67.8260  -33.9790   25.0400 C.2       1 NDP301      0.0000 
     44 C6N        69.1120  -33.8490   25.3690 C.2       1 NDP301      0.0000 
     45 P2B        82.1130  -30.3630   18.5270 P.3       1 NDP301      0.0000 
     46 O1X        82.6320  -29.0230   18.1100 O.co2     1 NDP301      0.0000 
     47 O2X        83.0740  -31.2940   19.2720 O.co2     1 NDP301      0.0000 
     48 O3X        81.0660  -31.0040   17.6570 O.co2     1 NDP301      0.0000 
@<TRIPOS>BOND
     1    1    2 ar   
     2    1    3 ar   
     3    1    4 1    
     4    1   23 1    
     5    4    5 1    
     6    5    6 1    
     7    6    7 1    
     8    6    8 1    
     9    7   12 1    
    10    8    9 1    
    11    8   10 1    
    12   10   11 1    
    13   10   12 1    
    14   11   45 1    
    15   12   13 1    
    16   13   14 1    
    17   13   22 1    
    18   14   15 2    
    19   15   16 1    
    20   16   17 ar   
    21   16   22 ar   
    22   17   18 1    
    23   17   19 ar   
    24   19   20 ar   
    25   20   21 ar   
    26   21   22 ar   
    27   23   24 1    
    28   24   25 ar   
    29   24   26 ar   
    30   24   27 1    
    31   27   28 1    
    32   28   29 1    
    33   29   30 1    
    34   29   31 1    
    35   30   35 1    
    36   31   32 1    
    37   31   33 1    
    38   33   34 1    
    39   33   35 1    
    40   35   36 1    
    41   36   37 1    
    42   36   44 1    
    43   37   38 2    
    44   38   39 1    
    45   38   42 1    
    46   39   40 2    
    47   39   41 am   
    48   42   43 1    
    49   43   44 2    
    50   45   46 ar   
    51   45   47 ar   
    52   45   48 ar   
@<TRIPOS>SUBSTRUCTURE
     1 NDP301      1 GROUP   
@<TRIPOS>SET
ATOM$ORANGE STATIC     ATOMS   COLORGROUP SYSTEM 
42 5 5 6 6 8 8 10 10 12 12 14 14 16 16 17 17 20 \
20 22 22 28 28 29 29 31 31 33 33 35 35 37 37 38 38 39 \
39 42 42 43 43 44 44 

