#    Name: 6ixj_1_NDP
#    Modification time : Fri May 22 19:32:55 2020

@<TRIPOS>MOLECULE
6ixj_1_NDP
   48    52     1     0     1
SMALL
NO_CHARGES


@<TRIPOS>ATOM
      1 PA         51.4580  -26.8490   55.7670 P.3       1 NDP301      0.0000 
      2 O1A        50.7440  -27.6830   56.7730 O.co2     1 NDP301      0.0000 
      3 O2A        52.2840  -25.6710   56.1960 O.co2     1 NDP301      0.0000 
      4 O5B        50.3880  -26.3630   54.6020 O.3       1 NDP301      0.0000 
      5 C5B        49.2800  -27.1990   54.7440 C.3       1 NDP301      0.0000 
      6 C4B        48.1850  -26.6320   53.8640 C.3       1 NDP301      0.0000 
      7 O4B        47.2580  -27.6340   53.4510 O.3       1 NDP301      0.0000 
      8 C3B        47.4600  -25.5850   54.7420 C.3       1 NDP301      0.0000 
      9 O3B        47.2770  -24.4170   54.0190 O.3       1 NDP301      0.0000 
     10 C2B        46.0850  -26.2310   54.9910 C.3       1 NDP301      0.0000 
     11 O2B        45.0990  -25.3400   55.0840 O.3       1 NDP301      0.0000 
     12 C1B        45.9610  -27.0790   53.6640 C.3       1 NDP301      0.0000 
     13 N9A        45.0030  -28.1960   53.7680 N.pl3     1 NDP301      0.0000 
     14 C8A        45.1780  -29.4360   54.4030 C.2       1 NDP301      0.0000 
     15 N7A        44.1030  -30.2450   54.3100 N.2       1 NDP301      0.0000 
     16 C5A        43.1820  -29.4870   53.5710 C.ar      1 NDP301      0.0000 
     17 C6A        41.8780  -29.7630   53.1340 C.ar      1 NDP301      0.0000 
     18 N6A        41.2900  -30.9740   53.4330 N.pl3     1 NDP301      0.0000 
     19 N1A        41.1560  -28.8550   52.4080 N.ar      1 NDP301      0.0000 
     20 C2A        41.8120  -27.6720   52.1550 C.ar      1 NDP301      0.0000 
     21 N3A        43.0450  -27.2600   52.5000 N.ar      1 NDP301      0.0000 
     22 C4A        43.7280  -28.2090   53.2240 C.ar      1 NDP301      0.0000 
     23 O3         52.4900  -27.9810   55.1470 O.3       1 NDP301      0.0000 
     24 PN         53.0500  -27.5350   53.7180 P.3       1 NDP301      0.0000 
     25 O1N        54.4470  -28.0030   53.6130 O.co2     1 NDP301      0.0000 
     26 O2N        52.6410  -26.1640   53.2240 O.co2     1 NDP301      0.0000 
     27 O5D        52.1860  -28.5800   52.6280 O.3       1 NDP301      0.0000 
     28 C5D        52.0840  -27.9650   51.4210 C.3       1 NDP301      0.0000 
     29 C4D        52.2400  -29.0280   50.3770 C.3       1 NDP301      0.0000 
     30 O4D        53.6190  -29.3180   50.2640 O.3       1 NDP301      0.0000 
     31 C3D        51.5660  -30.3340   50.8950 C.3       1 NDP301      0.0000 
     32 O3D        50.8220  -30.8530   49.8570 O.3       1 NDP301      0.0000 
     33 C2D        52.7690  -31.2380   51.2170 C.3       1 NDP301      0.0000 
     34 O2D        52.5330  -32.5830   50.9440 O.3       1 NDP301      0.0000 
     35 C1D        53.7610  -30.7030   50.1770 C.3       1 NDP301      0.0000 
     36 N1N        55.1480  -31.0250   50.5220 N.pl3     1 NDP301      0.0000 
     37 C2N        55.6970  -30.5800   51.7110 C.2       1 NDP301      0.0000 
     38 C3N        56.9720  -30.9220   52.0580 C.2       1 NDP301      0.0000 
     39 C7N        57.4880  -30.4130   53.3310 C.2       1 NDP301      0.0000 
     40 O7N        58.4850  -30.8710   53.9100 O.2       1 NDP301      0.0000 
     41 N7N        56.8160  -29.3500   53.9150 N.am      1 NDP301      0.0000 
     42 C4N        57.8260  -31.7810   51.1960 C.3       1 NDP301      0.0000 
     43 C5N        57.1790  -32.1300   49.9120 C.2       1 NDP301      0.0000 
     44 C6N        55.9280  -31.7730   49.6240 C.2       1 NDP301      0.0000 
     45 P2B        43.9000  -25.7100   56.4390 P.3       1 NDP301      0.0000 
     46 O1X        42.8940  -26.4330   55.5990 O.co2     1 NDP301      0.0000 
     47 O2X        44.7070  -26.5420   57.4410 O.co2     1 NDP301      0.0000 
     48 O3X        43.5970  -24.2860   56.8090 O.co2     1 NDP301      0.0000 
@<TRIPOS>BOND
     1    1    2 ar   
     2    1    3 ar   
     3    1    4 1    
     4    1   23 1    
     5    4    5 1    
     6    5    6 1    
     7    6    7 1    
     8    6    8 1    
     9    7   12 1    
    10    8    9 1    
    11    8   10 1    
    12   10   11 1    
    13   10   12 1    
    14   11   45 1    
    15   12   13 1    
    16   13   14 1    
    17   13   22 1    
    18   14   15 2    
    19   15   16 1    
    20   16   17 ar   
    21   16   22 ar   
    22   17   18 1    
    23   17   19 ar   
    24   19   20 ar   
    25   20   21 ar   
    26   21   22 ar   
    27   23   24 1    
    28   24   25 ar   
    29   24   26 ar   
    30   24   27 1    
    31   27   28 1    
    32   28   29 1    
    33   29   30 1    
    34   29   31 1    
    35   30   35 1    
    36   31   32 1    
    37   31   33 1    
    38   33   34 1    
    39   33   35 1    
    40   35   36 1    
    41   36   37 1    
    42   36   44 1    
    43   37   38 2    
    44   38   39 1    
    45   38   42 1    
    46   39   40 2    
    47   39   41 am   
    48   42   43 1    
    49   43   44 2    
    50   45   46 ar   
    51   45   47 ar   
    52   45   48 ar   
@<TRIPOS>SUBSTRUCTURE
     1 NDP301      1 GROUP   
@<TRIPOS>SET
ATOM$ORANGE STATIC     ATOMS   COLORGROUP SYSTEM 
42 5 5 6 6 8 8 10 10 12 12 14 14 16 16 17 17 20 \
20 22 22 28 28 29 29 31 31 33 33 35 35 37 37 38 38 39 \
39 42 42 43 43 44 44 

