#    Name: 6ixj_4_NDP
#    Modification time : Fri May 22 19:33:09 2020

@<TRIPOS>MOLECULE
6ixj_4_NDP
   48    52     1     0     1
SMALL
NO_CHARGES


@<TRIPOS>ATOM
      1 PA         50.1590    6.7390   17.6170 P.3       1 NDP301      0.0000 
      2 O1A        48.7880    7.3070   17.4910 O.co2     1 NDP301      0.0000 
      3 O2A        50.6230    5.6480   16.6940 O.co2     1 NDP301      0.0000 
      4 O5B        50.4240    6.2500   19.1770 O.3       1 NDP301      0.0000 
      5 C5B        49.4680    6.9070   19.9340 C.3       1 NDP301      0.0000 
      6 C4B        49.4980    6.2940   21.3010 C.3       1 NDP301      0.0000 
      7 O4B        49.1630    7.2630   22.3570 O.3       1 NDP301      0.0000 
      8 C3B        48.3650    5.2530   21.2190 C.3       1 NDP301      0.0000 
      9 O3B        48.5940    4.2610   22.1520 O.3       1 NDP301      0.0000 
     10 C2B        47.2490    6.1910   21.6960 C.3       1 NDP301      0.0000 
     11 O2B        46.0120    5.6420   21.8690 O.3       1 NDP301      0.0000 
     12 C1B        47.9750    6.7250   22.9520 C.3       1 NDP301      0.0000 
     13 N9A        47.1700    7.7420   23.6280 N.pl3     1 NDP301      0.0000 
     14 C8A        46.5080    8.8560   23.0810 C.2       1 NDP301      0.0000 
     15 N7A        45.8140    9.5630   24.0010 N.2       1 NDP301      0.0000 
     16 C5A        46.0300    8.8530   25.1980 C.ar      1 NDP301      0.0000 
     17 C6A        45.5880    9.0630   26.5110 C.ar      1 NDP301      0.0000 
     18 N6A        44.7810   10.1400   26.8120 N.pl3     1 NDP301      0.0000 
     19 N1A        45.9410    8.2180   27.5280 N.ar      1 NDP301      0.0000 
     20 C2A        46.7460    7.1670   27.1630 C.ar      1 NDP301      0.0000 
     21 N3A        47.2490    6.8350   25.9690 N.ar      1 NDP301      0.0000 
     22 C4A        46.8700    7.7200   24.9790 C.ar      1 NDP301      0.0000 
     23 O3         51.0750    8.0730   17.2800 O.3       1 NDP301      0.0000 
     24 PN         52.6170    7.6770   17.2540 P.3       1 NDP301      0.0000 
     25 O1N        52.8800    6.5700   18.1950 O.co2     1 NDP301      0.0000 
     26 O2N        53.2560    7.7830   15.8890 O.co2     1 NDP301      0.0000 
     27 O5D        53.4820    8.9650   18.0290 O.3       1 NDP301      0.0000 
     28 C5D        53.2670    8.8710   19.3640 C.3       1 NDP301      0.0000 
     29 C4D        53.9760   10.0340   19.9830 C.3       1 NDP301      0.0000 
     30 O4D        55.0420   10.4550   19.0920 O.3       1 NDP301      0.0000 
     31 C3D        52.9710   11.2110   20.0810 C.3       1 NDP301      0.0000 
     32 O3D        53.2380   11.9050   21.2590 O.3       1 NDP301      0.0000 
     33 C2D        53.3290   12.0450   18.8510 C.3       1 NDP301      0.0000 
     34 O2D        53.0900   13.4040   19.0250 O.3       1 NDP301      0.0000 
     35 C1D        54.8620   11.8300   18.8080 C.3       1 NDP301      0.0000 
     36 N1N        55.3820   12.1310   17.4660 N.pl3     1 NDP301      0.0000 
     37 C2N        54.9660   11.3920   16.3780 C.2       1 NDP301      0.0000 
     38 C3N        55.3860   11.7060   15.1210 C.2       1 NDP301      0.0000 
     39 C7N        54.9040   10.8670   14.0390 C.2       1 NDP301      0.0000 
     40 O7N        54.3010    9.7970   14.1860 O.2       1 NDP301      0.0000 
     41 N7N        55.1500   11.3190   12.7570 N.am      1 NDP301      0.0000 
     42 C4N        56.2970   12.8470   14.8420 C.3       1 NDP301      0.0000 
     43 C5N        56.7610   13.5150   16.0770 C.2       1 NDP301      0.0000 
     44 C6N        56.3150   13.1660   17.2870 C.2       1 NDP301      0.0000 
     45 P2B        45.6820    4.4180   23.2010 P.3       1 NDP301      0.0000 
     46 O1X        44.4050    3.9310   22.5990 O.co2     1 NDP301      0.0000 
     47 O2X        46.8890    3.4800   23.1530 O.co2     1 NDP301      0.0000 
     48 O3X        45.5690    5.3280   24.3850 O.co2     1 NDP301      0.0000 
@<TRIPOS>BOND
     1    1    2 ar   
     2    1    3 ar   
     3    1    4 1    
     4    1   23 1    
     5    4    5 1    
     6    5    6 1    
     7    6    7 1    
     8    6    8 1    
     9    7   12 1    
    10    8    9 1    
    11    8   10 1    
    12   10   11 1    
    13   10   12 1    
    14   11   45 1    
    15   12   13 1    
    16   13   14 1    
    17   13   22 1    
    18   14   15 2    
    19   15   16 1    
    20   16   17 ar   
    21   16   22 ar   
    22   17   18 1    
    23   17   19 ar   
    24   19   20 ar   
    25   20   21 ar   
    26   21   22 ar   
    27   23   24 1    
    28   24   25 ar   
    29   24   26 ar   
    30   24   27 1    
    31   27   28 1    
    32   28   29 1    
    33   29   30 1    
    34   29   31 1    
    35   30   35 1    
    36   31   32 1    
    37   31   33 1    
    38   33   34 1    
    39   33   35 1    
    40   35   36 1    
    41   36   37 1    
    42   36   44 1    
    43   37   38 2    
    44   38   39 1    
    45   38   42 1    
    46   39   40 2    
    47   39   41 am   
    48   42   43 1    
    49   43   44 2    
    50   45   46 ar   
    51   45   47 ar   
    52   45   48 ar   
@<TRIPOS>SUBSTRUCTURE
     1 NDP301      1 GROUP   
@<TRIPOS>SET
ATOM$ORANGE STATIC     ATOMS   COLORGROUP SYSTEM 
42 5 5 6 6 8 8 10 10 12 12 14 14 16 16 17 17 20 \
20 22 22 28 28 29 29 31 31 33 33 35 35 37 37 38 38 39 \
39 42 42 43 43 44 44 

