#    Name: 6ixj_3_NDP
#    Modification time : Fri May 22 19:33:04 2020

@<TRIPOS>MOLECULE
6ixj_3_NDP
   48    52     1     0     1
SMALL
NO_CHARGES


@<TRIPOS>ATOM
      1 PA         14.9060   -2.3450   39.2180 P.3       1 NDP301      0.0000 
      2 O1A        15.0990   -0.9300   38.7650 O.co2     1 NDP301      0.0000 
      3 O2A        14.7980   -3.4700   38.2260 O.co2     1 NDP301      0.0000 
      4 O5B        16.0780   -2.6830   40.3180 O.3       1 NDP301      0.0000 
      5 C5B        16.1960   -4.0640   40.3020 C.3       1 NDP301      0.0000 
      6 C4B        17.3860   -4.3970   41.1570 C.3       1 NDP301      0.0000 
      7 O4B        17.3020   -5.7400   41.5900 O.3       1 NDP301      0.0000 
      8 C3B        18.6490   -4.2060   40.2660 C.3       1 NDP301      0.0000 
      9 O3B        19.6010   -3.4330   40.9240 O.3       1 NDP301      0.0000 
     10 C2B        19.1700   -5.6500   40.1330 C.3       1 NDP301      0.0000 
     11 O2B        20.4890   -5.7540   40.1460 O.3       1 NDP301      0.0000 
     12 C1B        18.5990   -6.2680   41.4540 C.3       1 NDP301      0.0000 
     13 N9A        18.4940   -7.7200   41.3450 N.pl3     1 NDP301      0.0000 
     14 C8A        17.5370   -8.4720   40.6470 C.2       1 NDP301      0.0000 
     15 N7A        17.7310   -9.8020   40.7410 N.2       1 NDP301      0.0000 
     16 C5A        18.8800   -9.9150   41.5430 C.ar      1 NDP301      0.0000 
     17 C6A        19.5900  -11.0310   42.0090 C.ar      1 NDP301      0.0000 
     18 N6A        19.1720  -12.3040   41.6780 N.pl3     1 NDP301      0.0000 
     19 N1A        20.7020  -10.8950   42.7940 N.ar      1 NDP301      0.0000 
     20 C2A        21.0510   -9.5920   43.0800 C.ar      1 NDP301      0.0000 
     21 N3A        20.4830   -8.4310   42.7160 N.ar      1 NDP301      0.0000 
     22 C4A        19.3680   -8.6250   41.9270 C.ar      1 NDP301      0.0000 
     23 O3         13.4020   -2.2740   39.9440 O.3       1 NDP301      0.0000 
     24 PN         13.4130   -1.2730   41.1960 P.3       1 NDP301      0.0000 
     25 O1N        12.3490   -0.2640   41.0190 O.co2     1 NDP301      0.0000 
     26 O2N        14.7540   -0.9560   41.8200 O.co2     1 NDP301      0.0000 
     27 O5D        12.6110   -2.0760   42.5130 O.3       1 NDP301      0.0000 
     28 C5D        13.5260   -2.4830   43.4170 C.3       1 NDP301      0.0000 
     29 C4D        12.7470   -3.1660   44.5180 C.3       1 NDP301      0.0000 
     30 O4D        11.5870   -2.3620   44.8320 O.3       1 NDP301      0.0000 
     31 C3D        12.2070   -4.5360   44.0190 C.3       1 NDP301      0.0000 
     32 O3D        12.2550   -5.4100   45.0950 O.3       1 NDP301      0.0000 
     33 C2D        10.7590   -4.2220   43.6540 C.3       1 NDP301      0.0000 
     34 O2D         9.9150   -5.3100   43.8390 O.3       1 NDP301      0.0000 
     35 C1D        10.4330   -3.1740   44.7360 C.3       1 NDP301      0.0000 
     36 N1N         9.3080   -2.3260   44.3290 N.pl3     1 NDP301      0.0000 
     37 C2N         9.3710   -1.6040   43.1590 C.2       1 NDP301      0.0000 
     38 C3N         8.3060   -0.8640   42.7490 C.2       1 NDP301      0.0000 
     39 C7N         8.4510   -0.1220   41.5100 C.2       1 NDP301      0.0000 
     40 O7N         9.5250    0.2630   41.0330 O.2       1 NDP301      0.0000 
     41 N7N         7.2810    0.1730   40.8340 N.am      1 NDP301      0.0000 
     42 C4N         7.0390   -0.7910   43.5150 C.3       1 NDP301      0.0000 
     43 C5N         7.1060   -1.5190   44.7970 C.2       1 NDP301      0.0000 
     44 C6N         8.1730   -2.2330   45.1520 C.2       1 NDP301      0.0000 
     45 P2B        21.1020   -6.7740   38.7530 P.3       1 NDP301      0.0000 
     46 O1X        21.1450   -8.0800   39.4810 O.co2     1 NDP301      0.0000 
     47 O2X        22.4370   -6.0910   38.4450 O.co2     1 NDP301      0.0000 
     48 O3X        19.9670   -6.5520   37.7910 O.co2     1 NDP301      0.0000 
@<TRIPOS>BOND
     1    1    2 ar   
     2    1    3 ar   
     3    1    4 1    
     4    1   23 1    
     5    4    5 1    
     6    5    6 1    
     7    6    7 1    
     8    6    8 1    
     9    7   12 1    
    10    8    9 1    
    11    8   10 1    
    12   10   11 1    
    13   10   12 1    
    14   11   45 1    
    15   12   13 1    
    16   13   14 1    
    17   13   22 1    
    18   14   15 2    
    19   15   16 1    
    20   16   17 ar   
    21   16   22 ar   
    22   17   18 1    
    23   17   19 ar   
    24   19   20 ar   
    25   20   21 ar   
    26   21   22 ar   
    27   23   24 1    
    28   24   25 ar   
    29   24   26 ar   
    30   24   27 1    
    31   27   28 1    
    32   28   29 1    
    33   29   30 1    
    34   29   31 1    
    35   30   35 1    
    36   31   32 1    
    37   31   33 1    
    38   33   34 1    
    39   33   35 1    
    40   35   36 1    
    41   36   37 1    
    42   36   44 1    
    43   37   38 2    
    44   38   39 1    
    45   38   42 1    
    46   39   40 2    
    47   39   41 am   
    48   42   43 1    
    49   43   44 2    
    50   45   46 ar   
    51   45   47 ar   
    52   45   48 ar   
@<TRIPOS>SUBSTRUCTURE
     1 NDP301      1 GROUP   
@<TRIPOS>SET
ATOM$ORANGE STATIC     ATOMS   COLORGROUP SYSTEM 
42 5 5 6 6 8 8 10 10 12 12 14 14 16 16 17 17 20 \
20 22 22 28 28 29 29 31 31 33 33 35 35 37 37 38 38 39 \
39 42 42 43 43 44 44 

