#    Name: 6ixj_6_NDP_CAVITY_N1_4
#    Modification time : Fri May 22 19:33:20 2020

@<TRIPOS>MOLECULE
6ixj_6_NDP_CAVITY_N1_4
  122     0     6     0     0
SMALL
NO_CHARGES


@<TRIPOS>ATOM
      1 OG         82.8200  -63.4600   36.2200 O.3       1 SER1        0.0000 
      2 OG         84.0800  -63.5900   34.5200 O.3       1 SER1        0.0000 
      3 OG         76.3000  -59.5800   43.0000 O.3       1 SER1        0.0000 
      4 OG         77.5600  -59.7100   41.2900 O.3       1 SER1        0.0000 
      5 OG         78.7700  -60.5200   40.9300 O.3       1 SER1        0.0000 
      6 OG         81.1900  -62.1300   40.2000 O.3       1 SER1        0.0000 
      7 OG         75.1800  -57.4200   40.6800 O.3       1 SER1        0.0000 
      8 OG         76.3900  -58.2300   40.3200 O.3       1 SER1        0.0000 
      9 OG         82.4500  -62.2600   38.5000 O.3       1 SER1        0.0000 
     10 OG         83.6600  -63.0700   38.1300 O.3       1 SER1        0.0000 
     11 OG         75.2300  -56.7500   39.3500 O.3       1 SER1        0.0000 
     12 OG         76.4400  -57.5500   38.9800 O.3       1 SER1        0.0000 
     13 OG         83.7100  -62.4000   36.8000 O.3       1 SER1        0.0000 
     14 OG         84.9600  -62.5300   35.0900 O.3       1 SER1        0.0000 
     15 OG         86.1800  -63.3300   34.7300 O.3       1 SER1        0.0000 
     16 OG         76.0200  -57.0300   42.5900 O.3       1 SER1        0.0000 
     17 OG         83.2800  -61.8700   40.4100 O.3       1 SER1        0.0000 
     18 OG         83.3300  -61.2000   39.0700 O.3       1 SER1        0.0000 
     19 OG         84.5400  -62.0000   38.7100 O.3       1 SER1        0.0000 
     20 OG         77.3200  -56.4800   39.5500 O.3       1 SER1        0.0000 
     21 O          77.0500  -61.9800   38.4500 O.2       2 ALA2        0.0000 
     22 O          79.0900  -62.3900   39.9900 O.2       2 ALA2        0.0000 
     23 N          80.3000  -63.2000   39.6300 N.am      2 ALA2        0.0000 
     24 O          79.1400  -61.7200   38.6600 O.2       2 ALA2        0.0000 
     25 N          80.3500  -62.5300   38.2900 N.am      2 ALA2        0.0000 
     26 N          81.5600  -63.3300   37.9300 N.am      2 ALA2        0.0000 
     27 N          76.7700  -59.4300   38.0500 N.am      2 ALA2        0.0000 
     28 N          77.9800  -60.2400   37.6800 N.am      2 ALA2        0.0000 
     29 N          79.1900  -61.0400   37.3200 N.am      2 ALA2        0.0000 
     30 N          80.4000  -61.8500   36.9500 N.am      2 ALA2        0.0000 
     31 N          81.6100  -62.6600   36.5900 N.am      2 ALA2        0.0000 
     32 N          75.0900  -58.7700   43.3600 N.am      2 ALA2        0.0000 
     33 N          73.9200  -57.2900   42.3900 N.am      2 ALA2        0.0000 
     34 N          79.9800  -61.3300   40.5700 N.am      2 ALA2        0.0000 
     35 N          78.8100  -59.8400   39.5900 N.am      2 ALA2        0.0000 
     36 N          80.0300  -60.6500   39.2300 N.am      2 ALA2        0.0000 
     37 N          81.2400  -61.4600   38.8600 N.am      2 ALA2        0.0000 
     38 N          77.6500  -58.3600   38.6200 N.am      2 ALA2        0.0000 
     39 N          78.8600  -59.1700   38.2500 N.am      2 ALA2        0.0000 
     40 N          81.2800  -60.7800   37.5200 N.am      2 ALA2        0.0000 
     41 N          82.4900  -61.5900   37.1600 N.am      2 ALA2        0.0000 
     42 N          82.5400  -60.9100   35.8200 N.am      2 ALA2        0.0000 
     43 O          86.2200  -62.6600   33.3900 O.2       2 ALA2        0.0000 
     44 N          85.1100  -60.5000   31.0800 N.am      2 ALA2        0.0000 
     45 N          74.7600  -56.9000   44.3000 N.am      2 ALA2        0.0000 
     46 N          82.0700  -61.0600   40.7700 N.am      2 ALA2        0.0000 
     47 N          80.9100  -59.5800   39.8000 N.am      2 ALA2        0.0000 
     48 N          82.1200  -60.3900   39.4300 N.am      2 ALA2        0.0000 
     49 N          83.3800  -60.5200   37.7300 N.am      2 ALA2        0.0000 
     50 N          83.4300  -59.8400   36.3900 N.am      2 ALA2        0.0000 
     51 N          83.4700  -59.1700   35.0600 N.am      2 ALA2        0.0000 
     52 N          83.0000  -59.3200   40.0100 N.am      2 ALA2        0.0000 
     53 N          84.2600  -59.4500   38.3000 N.am      2 ALA2        0.0000 
     54 N          84.3100  -58.7800   36.9600 N.am      2 ALA2        0.0000 
     55 OD1        76.4900  -56.8800   37.6400 O.co2     3 ASP3        0.0000 
     56 OD1        85.0100  -61.8500   33.7600 O.co2     3 ASP3        0.0000 
     57 OD1        85.0600  -61.1700   32.4200 O.co2     3 ASP3        0.0000 
     58 OD1        85.8000  -62.1300   37.0000 O.co2     3 ASP3        0.0000 
     59 OD1        87.0100  -62.9400   36.6400 O.co2     3 ASP3        0.0000 
     60 OD1        84.6400  -60.6500   36.0300 O.co2     3 ASP3        0.0000 
     61 OD1        85.8500  -61.4600   35.6700 O.co2     3 ASP3        0.0000 
     62 OD1        87.0600  -62.2600   35.3000 O.co2     3 ASP3        0.0000 
     63 OD1        84.6900  -59.9700   34.6900 O.co2     3 ASP3        0.0000 
     64 OD1        85.9000  -60.7800   34.3300 O.co2     3 ASP3        0.0000 
     65 OD1        84.7300  -59.3000   33.3500 O.co2     3 ASP3        0.0000 
     66 OD1        85.9400  -60.1100   32.9900 O.co2     3 ASP3        0.0000 
     67 OD1        86.6400  -61.7400   38.9100 O.co2     3 ASP3        0.0000 
     68 OD1        87.8500  -62.5500   38.5500 O.co2     3 ASP3        0.0000 
     69 OD1        85.4700  -60.2600   37.9400 O.co2     3 ASP3        0.0000 
     70 OD1        86.6800  -61.0600   37.5700 O.co2     3 ASP3        0.0000 
     71 OD1        87.9000  -61.8700   37.2100 O.co2     3 ASP3        0.0000 
     72 OD1        89.1100  -62.6800   36.8500 O.co2     3 ASP3        0.0000 
     73 OD1        85.5200  -59.5800   36.6000 O.co2     3 ASP3        0.0000 
     74 OD1        85.6200  -58.2300   33.9200 O.co2     3 ASP3        0.0000 
     75 OD1        85.6700  -57.5500   32.5900 O.co2     3 ASP3        0.0000 
     76 OD1        87.5700  -60.0000   38.1500 O.co2     3 ASP3        0.0000 
     77 OD1        87.3400  -56.7700   36.4100 O.co2     3 ASP3        0.0000 
     78 CZ         77.0000  -62.6600   39.7900 C.ar      4 PHE5        0.0000 
     79 CZ         76.6700  -60.7800   40.7200 C.ar      4 PHE5        0.0000 
     80 CZ         77.8800  -61.5900   40.3600 C.ar      4 PHE5        0.0000 
     81 CZ         75.5100  -59.3000   39.7500 C.ar      4 PHE5        0.0000 
     82 CZ         76.7200  -60.1000   39.3800 C.ar      4 PHE5        0.0000 
     83 CZ         77.9300  -60.9100   39.0200 C.ar      4 PHE5        0.0000 
     84 CZ         75.1300  -58.1000   42.0200 C.ar      4 PHE5        0.0000 
     85 CZ         76.3400  -58.9000   41.6600 C.ar      4 PHE5        0.0000 
     86 CZ         77.6000  -59.0400   39.9600 C.ar      4 PHE5        0.0000 
     87 CZ         75.9700  -57.7000   43.9300 C.ar      4 PHE5        0.0000 
     88 CZ         77.1800  -58.5100   43.5700 C.ar      4 PHE5        0.0000 
     89 CZ         77.2300  -57.8400   42.2300 C.ar      4 PHE5        0.0000 
     90 CZ         80.8600  -60.2600   41.1400 C.ar      4 PHE5        0.0000 
     91 CZ         77.2800  -57.1600   40.8900 C.ar      4 PHE5        0.0000 
     92 CZ         79.7000  -58.7700   40.1600 C.ar      4 PHE5        0.0000 
     93 CZ         78.5400  -57.2900   39.1900 C.ar      4 PHE5        0.0000 
     94 CZ         81.7900  -58.5100   40.3700 C.ar      4 PHE5        0.0000 
     95 CA         74.3500  -57.8100   38.7700 C.3       5 GLY6        0.0000 
     96 CA         75.5600  -58.6200   38.4100 C.3       5 GLY6        0.0000 
     97 CA         81.6600  -61.9800   35.2500 C.3       5 GLY6        0.0000 
     98 CA         84.1300  -62.9200   33.1800 C.3       5 GLY6        0.0000 
     99 CA         84.1800  -62.2400   31.8500 C.3       5 GLY6        0.0000 
    100 CA         77.7000  -57.6800   37.2800 C.3       5 GLY6        0.0000 
    101 CA         83.7500  -61.7200   35.4600 C.3       5 GLY6        0.0000 
    102 CA         82.5900  -60.2400   34.4800 C.3       5 GLY6        0.0000 
    103 CA         83.8000  -61.0400   34.1200 C.3       5 GLY6        0.0000 
    104 CA         83.8500  -60.3700   32.7800 C.3       5 GLY6        0.0000 
    105 CA         83.9000  -59.6900   31.4400 C.3       5 GLY6        0.0000 
    106 CA         83.5200  -58.4900   33.7200 C.3       5 GLY6        0.0000 
    107 CA         84.7800  -58.6200   32.0100 C.3       5 GLY6        0.0000 
    108 CA         85.9900  -59.4300   31.6500 C.3       5 GLY6        0.0000 
    109 CA         82.9600  -60.0000   41.3400 C.3       5 GLY6        0.0000 
    110 CA         84.1700  -60.8000   40.9800 C.3       5 GLY6        0.0000 
    111 CA         85.3800  -61.6100   40.6200 C.3       5 GLY6        0.0000 
    112 CA         84.2100  -60.1300   39.6400 C.3       5 GLY6        0.0000 
    113 CA         85.4300  -60.9300   39.2800 C.3       5 GLY6        0.0000 
    114 CA         84.3600  -58.1000   35.6300 C.3       5 GLY6        0.0000 
    115 CA         84.4100  -57.4200   34.2900 C.3       5 GLY6        0.0000 
    116 CA         83.8900  -58.2500   40.5800 C.3       5 GLY6        0.0000 
    117 CA         85.1500  -58.3800   38.8700 C.3       5 GLY6        0.0000 
    118 CA         86.3600  -59.1900   38.5100 C.3       5 GLY6        0.0000 
    119 CA         85.1900  -57.7100   37.5400 C.3       5 GLY6        0.0000 
    120 CA         85.2400  -57.0300   36.2000 C.3       5 GLY6        0.0000 
    121 CA         85.2900  -56.3500   34.8600 C.3       5 GLY6        0.0000 
    122 DU         84.5900  -61.3300   37.3700 H         6 CUB7        0.0000 
@<TRIPOS>BOND
@<TRIPOS>SUBSTRUCTURE
     1 SER1        1 GROUP   
     2 ALA2       21 GROUP   
     3 ASP3       55 GROUP   
     4 PHE5       78 GROUP   
     5 GLY6       95 GROUP   
     6 CUB7      122 GROUP   
@<TRIPOS>SET

