#    Name: 6ixj_3_NDP_CAVITY_N1_12
#    Modification time : Fri May 22 19:33:07 2020

@<TRIPOS>MOLECULE
6ixj_3_NDP_CAVITY_N1_12
  102     0     6     0     0
SMALL
NO_CHARGES


@<TRIPOS>ATOM
      1 OG         10.4200   -5.0600   42.9500 O.3       1 SER1        0.0000 
      2 OG          8.0500   -2.7700   42.3400 O.3       1 SER1        0.0000 
      3 OG          7.6700   -1.5700   44.6100 O.3       1 SER1        0.0000 
      4 OG          8.8800   -2.3700   44.2500 O.3       1 SER1        0.0000 
      5 OG         10.0900   -3.1800   43.8800 O.3       1 SER1        0.0000 
      6 OG          8.9300   -1.7000   42.9100 O.3       1 SER1        0.0000 
      7 OG         12.2900   -1.5700   41.4100 O.3       1 SER1        0.0000 
      8 OG         13.5000   -2.3700   41.0500 O.3       1 SER1        0.0000 
      9 OG         19.5500   -6.4100   39.2300 O.3       1 SER1        0.0000 
     10 OG         13.5400   -1.7000   39.7100 O.3       1 SER1        0.0000 
     11 OG         19.2200   -4.5300   40.1700 O.3       1 SER1        0.0000 
     12 N          16.5200   -8.4200   39.7900 N.am      2 ALA2        0.0000 
     13 N          12.9400   -5.3200   39.5400 N.am      2 ALA2        0.0000 
     14 N          14.1500   -6.1300   39.1800 N.am      2 ALA2        0.0000 
     15 N          15.3600   -6.9300   38.8200 N.am      2 ALA2        0.0000 
     16 N           8.8400   -3.0500   45.5900 N.am      2 ALA2        0.0000 
     17 N          12.5200   -4.7900   43.1600 N.am      2 ALA2        0.0000 
     18 O          17.3600   -8.0200   41.7000 O.2       2 ALA2        0.0000 
     19 N           7.7200   -0.8900   43.2700 N.am      2 ALA2        0.0000 
     20 N          12.5600   -4.1200   41.8200 N.am      2 ALA2        0.0000 
     21 N          17.4100   -7.3500   40.3600 N.am      2 ALA2        0.0000 
     22 N           7.7700   -0.2100   41.9400 N.am      2 ALA2        0.0000 
     23 N          13.8200   -4.2500   40.1100 N.am      2 ALA2        0.0000 
     24 N          15.0300   -5.0600   39.7500 N.am      2 ALA2        0.0000 
     25 N          16.2400   -5.8600   39.3900 N.am      2 ALA2        0.0000 
     26 N          13.4000   -3.7300   43.7300 N.am      2 ALA2        0.0000 
     27 N          14.6100   -4.5300   43.3600 N.am      2 ALA2        0.0000 
     28 O          17.0300   -6.1500   42.6300 O.2       2 ALA2        0.0000 
     29 N          13.4500   -3.0500   42.3900 N.am      2 ALA2        0.0000 
     30 N          14.6600   -3.8600   42.0200 N.am      2 ALA2        0.0000 
     31 N          15.8700   -4.6600   41.6600 N.am      2 ALA2        0.0000 
     32 N          17.0800   -5.4700   41.3000 N.am      2 ALA2        0.0000 
     33 N          14.7100   -3.1800   40.6900 N.am      2 ALA2        0.0000 
     34 N          15.9200   -3.9900   40.3200 N.am      2 ALA2        0.0000 
     35 O          14.7500   -2.5100   39.3500 O.2       2 ALA2        0.0000 
     36 N          14.2800   -2.6600   44.3000 N.am      2 ALA2        0.0000 
     37 O          14.3300   -1.9800   42.9600 O.2       2 ALA2        0.0000 
     38 N          16.7500   -3.6000   42.2300 N.am      2 ALA2        0.0000 
     39 N          17.9600   -4.4000   41.8700 N.am      2 ALA2        0.0000 
     40 O          14.3800   -1.3100   41.6200 O.2       2 ALA2        0.0000 
     41 N          16.8000   -2.9200   40.8900 N.am      2 ALA2        0.0000 
     42 N          18.0100   -3.7300   40.5300 N.am      2 ALA2        0.0000 
     43 OD1        16.9500   -8.9400   36.1800 O.co2     3 ASP3        0.0000 
     44 OD1        17.6900   -9.9000   40.7600 O.co2     3 ASP3        0.0000 
     45 OD1        17.8800   -7.1900   35.4100 O.co2     3 ASP3        0.0000 
     46 OD1        10.0500   -3.8600   45.2200 O.co2     3 ASP3        0.0000 
     47 OD1        11.2600   -4.6600   44.8600 O.co2     3 ASP3        0.0000 
     48 OD1        18.5700   -8.8300   41.3300 O.co2     3 ASP3        0.0000 
     49 OD1        19.7800   -9.6400   40.9700 O.co2     3 ASP3        0.0000 
     50 OD1        18.6200   -8.1500   40.0000 O.co2     3 ASP3        0.0000 
     51 OD1        17.4600   -6.6700   39.0200 O.co2     3 ASP3        0.0000 
     52 OD1        18.6700   -7.4800   38.6600 O.co2     3 ASP3        0.0000 
     53 OD1        17.5000   -5.9900   37.6800 O.co2     3 ASP3        0.0000 
     54 OD1        18.7100   -6.8000   37.3200 O.co2     3 ASP3        0.0000 
     55 OD1        18.7600   -6.1300   35.9800 O.co2     3 ASP3        0.0000 
     56 OD1        19.9700   -6.9300   35.6200 O.co2     3 ASP3        0.0000 
     57 OD1        20.6700   -8.5700   41.5400 O.co2     3 ASP3        0.0000 
     58 OD1        20.7100   -7.8900   40.2000 O.co2     3 ASP3        0.0000 
     59 OD1        18.3400   -5.6000   39.5900 O.co2     3 ASP3        0.0000 
     60 OD1        20.7600   -7.2200   38.8700 O.co2     3 ASP3        0.0000 
     61 OD1        19.6000   -5.7300   37.8900 O.co2     3 ASP3        0.0000 
     62 OD1        20.8100   -6.5400   37.5300 O.co2     3 ASP3        0.0000 
     63 CZ          8.1000   -2.0900   41.0000 C.ar      4 PHE5        0.0000 
     64 CZ         10.1400   -2.5000   42.5500 C.ar      4 PHE5        0.0000 
     65 CZ         11.3500   -3.3100   42.1800 C.ar      4 PHE5        0.0000 
     66 CZ          8.9800   -1.0200   41.5700 C.ar      4 PHE5        0.0000 
     67 CZ         10.1900   -1.8300   41.2100 C.ar      4 PHE5        0.0000 
     68 CZ         12.6100   -3.4400   40.4800 C.ar      4 PHE5        0.0000 
     69 CZ          9.7700   -1.3000   44.8200 C.ar      4 PHE5        0.0000 
     70 CZ         10.9800   -2.1100   44.4600 C.ar      4 PHE5        0.0000 
     71 CZ         12.1900   -2.9200   44.0900 C.ar      4 PHE5        0.0000 
     72 CZ          8.6000    0.1800   43.8500 C.ar      4 PHE5        0.0000 
     73 CZ         11.0300   -1.4400   43.1200 C.ar      4 PHE5        0.0000 
     74 CZ         12.2400   -2.2400   42.7500 C.ar      4 PHE5        0.0000 
     75 CZ          9.8600    0.0500   42.1400 C.ar      4 PHE5        0.0000 
     76 CZ         11.0700   -0.7600   41.7800 C.ar      4 PHE5        0.0000 
     77 CZ         13.0700   -1.8500   44.6600 C.ar      4 PHE5        0.0000 
     78 CZ         13.1200   -1.1700   43.3200 C.ar      4 PHE5        0.0000 
     79 CZ         13.1700   -0.5000   41.9900 C.ar      4 PHE5        0.0000 
     80 CA         16.5700   -7.7400   38.4500 C.3       5 GLY6        0.0000 
     81 CA         14.2000   -5.4500   37.8400 C.3       5 GLY6        0.0000 
     82 CA         15.4100   -6.2600   37.4800 C.3       5 GLY6        0.0000 
     83 CA         16.6200   -7.0600   37.1100 C.3       5 GLY6        0.0000 
     84 CA         16.6700   -6.3900   35.7700 C.3       5 GLY6        0.0000 
     85 CA         17.9300   -6.5200   34.0700 C.3       5 GLY6        0.0000 
     86 CA         18.5200   -9.5100   42.6700 C.3       5 GLY6        0.0000 
     87 CA         19.7300  -10.3100   42.3100 C.3       5 GLY6        0.0000 
     88 CA         13.8700   -3.5700   38.7800 C.3       5 GLY6        0.0000 
     89 CA         15.0800   -4.3800   38.4100 C.3       5 GLY6        0.0000 
     90 CA          9.7200   -1.9800   46.1600 C.3       5 GLY6        0.0000 
     91 CA         10.9300   -2.7900   45.7900 C.3       5 GLY6        0.0000 
     92 CA         12.1400   -3.5900   45.4300 C.3       5 GLY6        0.0000 
     93 CA         19.4100   -8.4400   43.2400 C.3       5 GLY6        0.0000 
     94 CA         20.6200   -9.2400   42.8800 C.3       5 GLY6        0.0000 
     95 CA         18.2400   -6.9500   42.2700 C.3       5 GLY6        0.0000 
     96 CA         19.4500   -7.7600   41.9100 C.3       5 GLY6        0.0000 
     97 CA         19.1800   -5.2100   41.5000 C.3       5 GLY6        0.0000 
     98 CA         20.3900   -6.0200   41.1400 C.3       5 GLY6        0.0000 
     99 DU         11.3100   -3.9900   43.5200 H         6 CUB7        0.0000 
    100 DU         18.2900   -6.2800   40.9300 H         6 CUB7        0.0000 
    101 DU         19.5000   -7.0800   40.5700 H         6 CUB7        0.0000 
    102 DU         17.1300   -4.8000   39.9600 H         6 CUB7        0.0000 
@<TRIPOS>BOND
@<TRIPOS>SUBSTRUCTURE
     1 SER1        1 GROUP   
     2 ALA2       12 GROUP   
     3 ASP3       43 GROUP   
     4 PHE5       63 GROUP   
     5 GLY6       80 GROUP   
     6 CUB7       99 GROUP   
@<TRIPOS>SET

