#    Name: 6ixj_4_NDP_CAVITY_N1_8
#    Modification time : Fri May 22 19:33:11 2020

@<TRIPOS>MOLECULE
6ixj_4_NDP_CAVITY_N1_8
   77     0     6     0     0
SMALL
NO_CHARGES


@<TRIPOS>ATOM
      1 OG         46.5700    5.3800   22.6200 O.3       1 SER1        0.0000 
      2 OG         47.7800    4.5800   22.2500 O.3       1 SER1        0.0000 
      3 OG         47.8300    5.2500   20.9100 O.3       1 SER1        0.0000 
      4 OG         49.9700    6.1900   19.7800 O.3       1 SER1        0.0000 
      5 OG         50.0200    6.8700   18.4500 O.3       1 SER1        0.0000 
      6 OG         51.2300    6.0600   18.0800 O.3       1 SER1        0.0000 
      7 OG         51.2800    6.7400   16.7400 O.3       1 SER1        0.0000 
      8 OG         52.1600    7.8000   17.3100 O.3       1 SER1        0.0000 
      9 OG         53.3800    7.0000   16.9500 O.3       1 SER1        0.0000 
     10 OG         52.2100    8.4800   15.9800 O.3       1 SER1        0.0000 
     11 OG         54.3600    9.4200   14.8400 O.3       1 SER1        0.0000 
     12 OG         53.6500   12.4900   18.0500 O.3       1 SER1        0.0000 
     13 OG         54.9100   12.3600   16.3500 O.3       1 SER1        0.0000 
     14 OG         54.9600   13.0400   15.0100 O.3       1 SER1        0.0000 
     15 OG         54.5400   13.5600   18.6300 O.3       1 SER1        0.0000 
     16 OG         55.8000   13.4300   16.9200 O.3       1 SER1        0.0000 
     17 O          46.5200    4.7100   23.9600 O.2       2 ALA2        0.0000 
     18 N          49.9300    5.5100   21.1200 N.am      2 ALA2        0.0000 
     19 N          48.7600    7.0000   20.1500 N.am      2 ALA2        0.0000 
     20 O          45.8200    7.7800   27.1600 O.2       2 ALA2        0.0000 
     21 N          47.0300    6.9800   26.8000 N.am      2 ALA2        0.0000 
     22 N          47.1800    9.0000   22.7900 N.am      2 ALA2        0.0000 
     23 N          48.3900    8.2000   22.4200 N.am      2 ALA2        0.0000 
     24 O          49.6000    7.3900   22.0600 O.2       2 ALA2        0.0000 
     25 N          50.8100    6.5800   21.6900 N.am      2 ALA2        0.0000 
     26 N          49.6500    8.0700   20.7200 N.am      2 ALA2        0.0000 
     27 N          50.8600    7.2600   20.3500 N.am      2 ALA2        0.0000 
     28 N          50.9100    7.9300   19.0200 N.am      2 ALA2        0.0000 
     29 N          51.7400    8.3300   20.9300 N.am      2 ALA2        0.0000 
     30 N          51.7900    9.0000   19.5900 N.am      2 ALA2        0.0000 
     31 O          53.0000    8.2000   19.2200 O.2       2 ALA2        0.0000 
     32 N          52.6700   10.0700   20.1600 N.am      2 ALA2        0.0000 
     33 N          53.8800    9.2700   19.8000 N.am      2 ALA2        0.0000 
     34 N          51.5100   11.5500   19.1800 N.am      2 ALA2        0.0000 
     35 N          55.2900   11.1600   14.0800 N.am      2 ALA2        0.0000 
     36 N          53.5600   11.1400   20.7300 N.am      2 ALA2        0.0000 
     37 N          56.1700   12.2300   14.6500 N.am      2 ALA2        0.0000 
     38 N          55.7500   12.7500   18.2600 N.am      2 ALA2        0.0000 
     39 OD1        46.2000    6.5800   24.8900 O.co2     3 ASP3        0.0000 
     40 OD1        46.2500    7.2600   23.5500 O.co2     3 ASP3        0.0000 
     41 OD1        46.2900    7.9400   22.2100 O.co2     3 ASP3        0.0000 
     42 OD1        45.8700    8.4600   25.8300 O.co2     3 ASP3        0.0000 
     43 OD1        53.6100   11.8200   19.3900 O.co2     3 ASP3        0.0000 
     44 OD1        54.4900   12.8900   19.9600 O.co2     3 ASP3        0.0000 
     45 CZ         50.9500    8.6100   17.6800 C.ar      4 PHE5        0.0000 
     46 CZ         51.8400    9.6800   18.2500 C.ar      4 PHE5        0.0000 
     47 CZ         53.0500    8.8700   17.8900 C.ar      4 PHE5        0.0000 
     48 CZ         54.2600    8.0700   17.5200 C.ar      4 PHE5        0.0000 
     49 CZ         53.1000    9.5500   16.5500 C.ar      4 PHE5        0.0000 
     50 CZ         54.3100    8.7400   16.1800 C.ar      4 PHE5        0.0000 
     51 CZ         52.7200   10.7500   18.8200 C.ar      4 PHE5        0.0000 
     52 CZ         53.9300    9.9400   18.4600 C.ar      4 PHE5        0.0000 
     53 CZ         52.7700   11.4200   17.4800 C.ar      4 PHE5        0.0000 
     54 CZ         53.9800   10.6200   17.1200 C.ar      4 PHE5        0.0000 
     55 CZ         54.0300   11.2900   15.7800 C.ar      4 PHE5        0.0000 
     56 CZ         55.2400   10.4900   15.4200 C.ar      4 PHE5        0.0000 
     57 CZ         54.0800   11.9700   14.4400 C.ar      4 PHE5        0.0000 
     58 CZ         54.8600   11.6900   17.6900 C.ar      4 PHE5        0.0000 
     59 CZ         56.1200   11.5500   15.9900 C.ar      4 PHE5        0.0000 
     60 CA         46.1500    5.9100   26.2300 C.3       5 GLY6        0.0000 
     61 CA         47.4100    5.7800   24.5300 C.3       5 GLY6        0.0000 
     62 CA         47.4600    6.4500   23.1900 C.3       5 GLY6        0.0000 
     63 CA         48.6700    5.6500   22.8200 C.3       5 GLY6        0.0000 
     64 CA         47.0800    7.6500   25.4600 C.3       5 GLY6        0.0000 
     65 CA         48.2900    6.8500   25.1000 C.3       5 GLY6        0.0000 
     66 CA         45.9200    9.1400   24.4900 C.3       5 GLY6        0.0000 
     67 CA         47.1300    8.3300   24.1200 C.3       5 GLY6        0.0000 
     68 CA         48.3400    7.5200   23.7600 C.3       5 GLY6        0.0000 
     69 CA         49.5500    6.7100   23.4000 C.3       5 GLY6        0.0000 
     70 CA         45.9700    9.8100   23.1500 C.3       5 GLY6        0.0000 
     71 CA         48.0100    9.4000   24.6900 C.3       5 GLY6        0.0000 
     72 CA         52.4000   12.6200   19.7600 C.3       5 GLY6        0.0000 
     73 CA         54.8200   11.0100   19.0300 C.3       5 GLY6        0.0000 
     74 CA         55.7000   12.0800   19.6000 C.3       5 GLY6        0.0000 
     75 DU         47.5000    7.1300   21.8500 H         6 CUB7        0.0000 
     76 DU         48.7100    6.3200   21.4900 H         6 CUB7        0.0000 
     77 DU         52.1200    7.1300   18.6500 H         6 CUB7        0.0000 
@<TRIPOS>BOND
@<TRIPOS>SUBSTRUCTURE
     1 SER1        1 GROUP   
     2 ALA2       17 GROUP   
     3 ASP3       39 GROUP   
     4 PHE5       45 GROUP   
     5 GLY6       60 GROUP   
     6 CUB7       75 GROUP   
@<TRIPOS>SET

