#    Name: 6ixj_5_NDP
#    Modification time : Fri May 22 19:33:14 2020

@<TRIPOS>MOLECULE
6ixj_5_NDP
   48    52     1     0     1
SMALL
NO_CHARGES


@<TRIPOS>ATOM
      1 PA         49.7760   39.8290   37.9400 P.3       1 NDP301      0.0000 
      2 O1A        50.1260   41.1590   38.5030 O.co2     1 NDP301      0.0000 
      3 O2A        49.4540   38.6900   38.8620 O.co2     1 NDP301      0.0000 
      4 O5B        48.5510   40.0080   36.8600 O.3       1 NDP301      0.0000 
      5 C5B        47.9310   38.7590   36.8410 C.3       1 NDP301      0.0000 
      6 C4B        46.6570   38.8870   36.0600 C.3       1 NDP301      0.0000 
      7 O4B        46.2140   37.6160   35.6080 O.3       1 NDP301      0.0000 
      8 C3B        45.6420   39.4590   37.0710 C.3       1 NDP301      0.0000 
      9 O3B        45.1040   40.6500   36.5920 O.3       1 NDP301      0.0000 
     10 C2B        44.5350   38.3690   37.1280 C.3       1 NDP301      0.0000 
     11 O2B        43.2960   38.8680   37.1750 O.3       1 NDP301      0.0000 
     12 C1B        44.8030   37.6110   35.7760 C.3       1 NDP301      0.0000 
     13 N9A        44.3420   36.2140   35.8460 N.pl3     1 NDP301      0.0000 
     14 C8A        44.9350   35.1200   36.5160 C.2       1 NDP301      0.0000 
     15 N7A        44.2360   33.9680   36.3870 N.2       1 NDP301      0.0000 
     16 C5A        43.1350   34.3390   35.5920 C.ar      1 NDP301      0.0000 
     17 C6A        42.0440   33.6060   35.0990 C.ar      1 NDP301      0.0000 
     18 N6A        41.9250   32.2620   35.3820 N.pl3     1 NDP301      0.0000 
     19 N1A        41.0760   34.1940   34.3310 N.ar      1 NDP301      0.0000 
     20 C2A        41.2660   35.5380   34.0940 C.ar      1 NDP301      0.0000 
     21 N3A        42.2430   36.3720   34.4870 N.ar      1 NDP301      0.0000 
     22 C4A        43.1890   35.7350   35.2510 C.ar      1 NDP301      0.0000 
     23 O3         51.1850   39.3780   37.1820 O.3       1 NDP301      0.0000 
     24 PN         51.5330   40.3070   35.9230 P.3       1 NDP301      0.0000 
     25 O1N        51.0730   41.6930   36.1340 O.co2     1 NDP301      0.0000 
     26 O2N        52.8930   39.9930   35.3430 O.co2     1 NDP301      0.0000 
     27 O5D        50.5140   39.8880   34.5690 O.3       1 NDP301      0.0000 
     28 C5D        50.7370   38.5720   34.4010 C.3       1 NDP301      0.0000 
     29 C4D        50.9500   38.2970   32.9400 C.3       1 NDP301      0.0000 
     30 O4D        52.2590   38.7680   32.5340 O.3       1 NDP301      0.0000 
     31 C3D        50.9870   36.7590   32.8110 C.3       1 NDP301      0.0000 
     32 O3D        50.7080   36.4230   31.5010 O.3       1 NDP301      0.0000 
     33 C2D        52.4390   36.5130   33.1370 C.3       1 NDP301      0.0000 
     34 O2D        52.8860   35.2870   32.6850 O.3       1 NDP301      0.0000 
     35 C1D        53.0390   37.6140   32.2400 C.3       1 NDP301      0.0000 
     36 N1N        54.4600   37.8490   32.5510 N.pl3     1 NDP301      0.0000 
     37 C2N        54.8450   38.4170   33.7460 C.2       1 NDP301      0.0000 
     38 C3N        56.1650   38.5780   34.0520 C.2       1 NDP301      0.0000 
     39 C7N        56.4840   39.2010   35.3370 C.2       1 NDP301      0.0000 
     40 O7N        55.6510   39.6490   36.1340 O.2       1 NDP301      0.0000 
     41 N7N        57.8270   39.2980   35.6660 N.am      1 NDP301      0.0000 
     42 C4N        57.2520   38.1470   33.1330 C.3       1 NDP301      0.0000 
     43 C5N        56.7380   37.6360   31.8440 C.2       1 NDP301      0.0000 
     44 C6N        55.4330   37.5020   31.6010 C.2       1 NDP301      0.0000 
     45 P2B        42.2690   38.0710   38.4850 P.3       1 NDP301      0.0000 
     46 O1X        41.5980   37.0660   37.6020 O.co2     1 NDP301      0.0000 
     47 O2X        43.3010   37.5460   39.4880 O.co2     1 NDP301      0.0000 
     48 O3X        41.4750   39.2820   38.8850 O.co2     1 NDP301      0.0000 
@<TRIPOS>BOND
     1    1    2 ar   
     2    1    3 ar   
     3    1    4 1    
     4    1   23 1    
     5    4    5 1    
     6    5    6 1    
     7    6    7 1    
     8    6    8 1    
     9    7   12 1    
    10    8    9 1    
    11    8   10 1    
    12   10   11 1    
    13   10   12 1    
    14   11   45 1    
    15   12   13 1    
    16   13   14 1    
    17   13   22 1    
    18   14   15 2    
    19   15   16 1    
    20   16   17 ar   
    21   16   22 ar   
    22   17   18 1    
    23   17   19 ar   
    24   19   20 ar   
    25   20   21 ar   
    26   21   22 ar   
    27   23   24 1    
    28   24   25 ar   
    29   24   26 ar   
    30   24   27 1    
    31   27   28 1    
    32   28   29 1    
    33   29   30 1    
    34   29   31 1    
    35   30   35 1    
    36   31   32 1    
    37   31   33 1    
    38   33   34 1    
    39   33   35 1    
    40   35   36 1    
    41   36   37 1    
    42   36   44 1    
    43   37   38 2    
    44   38   39 1    
    45   38   42 1    
    46   39   40 2    
    47   39   41 am   
    48   42   43 1    
    49   43   44 2    
    50   45   46 ar   
    51   45   47 ar   
    52   45   48 ar   
@<TRIPOS>SUBSTRUCTURE
     1 NDP301      1 GROUP   
@<TRIPOS>SET
ATOM$ORANGE STATIC     ATOMS   COLORGROUP SYSTEM 
42 5 5 6 6 8 8 10 10 12 12 14 14 16 16 17 17 20 \
20 22 22 28 28 29 29 31 31 33 33 35 35 37 37 38 38 39 \
39 42 42 43 43 44 44 

