#    Name: 6ixj_6_NDP
#    Modification time : Fri May 22 19:33:18 2020

@<TRIPOS>MOLECULE
6ixj_6_NDP
   48    52     1     0     1
SMALL
NO_CHARGES


@<TRIPOS>ATOM
      1 PA         81.4340  -61.7480   40.2490 P.3       1 NDP301      0.0000 
      2 O1A        81.9820  -62.5340   41.3850 O.co2     1 NDP301      0.0000 
      3 O2A        81.2770  -60.2570   40.3080 O.co2     1 NDP301      0.0000 
      4 O5B        82.2450  -62.1580   38.8950 O.3       1 NDP301      0.0000 
      5 C5B        81.2590  -62.0520   37.9070 C.3       1 NDP301      0.0000 
      6 C4B        81.8890  -62.3280   36.5840 C.3       1 NDP301      0.0000 
      7 O4B        82.2580  -61.1450   35.9080 O.3       1 NDP301      0.0000 
      8 C3B        83.1550  -63.1400   36.9000 C.3       1 NDP301      0.0000 
      9 O3B        82.9800  -64.4600   36.4960 O.3       1 NDP301      0.0000 
     10 C2B        84.2210  -62.4770   36.0030 C.3       1 NDP301      0.0000 
     11 O2B        84.9150  -63.3480   35.2880 O.3       1 NDP301      0.0000 
     12 C1B        83.2960  -61.5810   35.0650 C.3       1 NDP301      0.0000 
     13 N9A        84.0000  -60.4130   34.5010 N.pl3     1 NDP301      0.0000 
     14 C8A        84.4270  -59.2430   35.1520 C.2       1 NDP301      0.0000 
     15 N7A        85.0550  -58.3730   34.3350 N.2       1 NDP301      0.0000 
     16 C5A        85.0360  -59.0150   33.0850 C.ar      1 NDP301      0.0000 
     17 C6A        85.5280  -58.6340   31.8210 C.ar      1 NDP301      0.0000 
     18 N6A        86.1680  -57.4210   31.6620 N.pl3     1 NDP301      0.0000 
     19 N1A        85.3890  -59.4440   30.7210 N.ar      1 NDP301      0.0000 
     20 C2A        84.7380  -60.6360   30.9610 C.ar      1 NDP301      0.0000 
     21 N3A        84.2160  -61.1400   32.0950 N.ar      1 NDP301      0.0000 
     22 C4A        84.3830  -60.2890   33.1720 C.ar      1 NDP301      0.0000 
     23 O3         79.9540  -62.4610   40.0460 O.3       1 NDP301      0.0000 
     24 PN         78.8500  -61.7690   40.9460 P.3       1 NDP301      0.0000 
     25 O1N        79.4870  -61.0270   42.0520 O.co2     1 NDP301      0.0000 
     26 O2N        77.6360  -62.6540   41.1320 O.co2     1 NDP301      0.0000 
     27 O5D        78.1100  -60.4620   40.0600 O.3       1 NDP301      0.0000 
     28 C5D        77.4970  -61.0780   39.0030 C.3       1 NDP301      0.0000 
     29 C4D        76.7930  -60.0350   38.1510 C.3       1 NDP301      0.0000 
     30 O4D        75.6100  -59.6100   38.8510 O.3       1 NDP301      0.0000 
     31 C3D        77.6980  -58.7900   37.9490 C.3       1 NDP301      0.0000 
     32 O3D        77.5200  -58.3560   36.6430 O.3       1 NDP301      0.0000 
     33 C2D        77.1360  -57.7670   38.9460 C.3       1 NDP301      0.0000 
     34 O2D        77.1560  -56.4720   38.4460 O.3       1 NDP301      0.0000 
     35 C1D        75.6500  -58.2110   39.0570 C.3       1 NDP301      0.0000 
     36 N1N        75.0940  -57.9100   40.4010 N.pl3     1 NDP301      0.0000 
     37 C2N        75.6600  -58.4460   41.5370 C.2       1 NDP301      0.0000 
     38 C3N        75.1820  -58.1150   42.7720 C.2       1 NDP301      0.0000 
     39 C7N        75.8290  -58.7290   43.9100 C.2       1 NDP301      0.0000 
     40 O7N        75.4770  -58.5690   45.0830 O.2       1 NDP301      0.0000 
     41 N7N        76.9040  -59.5480   43.6440 N.am      1 NDP301      0.0000 
     42 C4N        74.0510  -57.1770   42.9760 C.3       1 NDP301      0.0000 
     43 C5N        73.4550  -56.7370   41.7020 C.2       1 NDP301      0.0000 
     44 C6N        73.9620  -57.0880   40.5180 C.2       1 NDP301      0.0000 
     45 P2B        86.6740  -62.8800   35.1830 P.3       1 NDP301      0.0000 
     46 O1X        86.7980  -63.1560   33.7180 O.co2     1 NDP301      0.0000 
     47 O2X        86.6940  -61.4170   35.6350 O.co2     1 NDP301      0.0000 
     48 O3X        87.2220  -63.9070   36.1330 O.co2     1 NDP301      0.0000 
@<TRIPOS>BOND
     1    1    2 ar   
     2    1    3 ar   
     3    1    4 1    
     4    1   23 1    
     5    4    5 1    
     6    5    6 1    
     7    6    7 1    
     8    6    8 1    
     9    7   12 1    
    10    8    9 1    
    11    8   10 1    
    12   10   11 1    
    13   10   12 1    
    14   11   45 1    
    15   12   13 1    
    16   13   14 1    
    17   13   22 1    
    18   14   15 2    
    19   15   16 1    
    20   16   17 ar   
    21   16   22 ar   
    22   17   18 1    
    23   17   19 ar   
    24   19   20 ar   
    25   20   21 ar   
    26   21   22 ar   
    27   23   24 1    
    28   24   25 ar   
    29   24   26 ar   
    30   24   27 1    
    31   27   28 1    
    32   28   29 1    
    33   29   30 1    
    34   29   31 1    
    35   30   35 1    
    36   31   32 1    
    37   31   33 1    
    38   33   34 1    
    39   33   35 1    
    40   35   36 1    
    41   36   37 1    
    42   36   44 1    
    43   37   38 2    
    44   38   39 1    
    45   38   42 1    
    46   39   40 2    
    47   39   41 am   
    48   42   43 1    
    49   43   44 2    
    50   45   46 ar   
    51   45   47 ar   
    52   45   48 ar   
@<TRIPOS>SUBSTRUCTURE
     1 NDP301      1 GROUP   
@<TRIPOS>SET
ATOM$ORANGE STATIC     ATOMS   COLORGROUP SYSTEM 
42 5 5 6 6 8 8 10 10 12 12 14 14 16 16 17 17 20 \
20 22 22 28 28 29 29 31 31 33 33 35 35 37 37 38 38 39 \
39 42 42 43 43 44 44 

