#    Name: 6ixj_1_NDP_CAVITY_N1_4
#    Modification time : Fri May 22 19:32:57 2020

@<TRIPOS>MOLECULE
6ixj_1_NDP_CAVITY_N1_4
  101     0     6     0     0
SMALL
NO_CHARGES


@<TRIPOS>ATOM
      1 OG         52.6900  -31.7700   51.1500 O.3       1 SER1        0.0000 
      2 OG         45.0500  -25.7300   55.6100 O.3       1 SER1        0.0000 
      3 OG         45.0900  -25.0500   54.2700 O.3       1 SER1        0.0000 
      4 OG         54.7800  -31.5100   51.3600 O.3       1 SER1        0.0000 
      5 OG         55.9900  -32.3200   50.9900 O.3       1 SER1        0.0000 
      6 OG         50.4500  -26.0100   55.6600 O.3       1 SER1        0.0000 
      7 OG         51.6600  -26.8200   55.2900 O.3       1 SER1        0.0000 
      8 OG         52.8700  -27.6300   54.9300 O.3       1 SER1        0.0000 
      9 OG         54.0800  -28.4400   54.5600 O.3       1 SER1        0.0000 
     10 OG         52.9200  -26.9500   53.5900 O.3       1 SER1        0.0000 
     11 OG         54.1300  -27.7600   53.2300 O.3       1 SER1        0.0000 
     12 N          41.2800  -26.7800   51.5800 N.am      2 ALA2        0.0000 
     13 N          45.7000  -29.4800   53.7400 N.am      2 ALA2        0.0000 
     14 O          42.1100  -26.3800   53.4900 O.2       2 ALA2        0.0000 
     15 O          45.7500  -28.8100   52.4000 O.2       2 ALA2        0.0000 
     16 O          42.9500  -25.9900   55.4000 O.2       2 ALA2        0.0000 
     17 N          46.5800  -28.4100   54.3100 N.am      2 ALA2        0.0000 
     18 N          51.5200  -30.2900   50.1700 N.am      2 ALA2        0.0000 
     19 N          47.4700  -27.3400   54.8800 N.am      2 ALA2        0.0000 
     20 N          48.6800  -28.1500   54.5100 N.am      2 ALA2        0.0000 
     21 N          48.7300  -27.4800   53.1800 N.am      2 ALA2        0.0000 
     22 N          49.9400  -28.2800   52.8100 N.am      2 ALA2        0.0000 
     23 N          51.1500  -29.0900   52.4500 N.am      2 ALA2        0.0000 
     24 N          52.3600  -29.9000   52.0800 N.am      2 ALA2        0.0000 
     25 N          51.2000  -28.4100   51.1100 N.am      2 ALA2        0.0000 
     26 N          52.4100  -29.2200   50.7500 N.am      2 ALA2        0.0000 
     27 N          56.0400  -31.6400   49.6500 N.am      2 ALA2        0.0000 
     28 N          50.7700  -27.8900   54.7200 N.am      2 ALA2        0.0000 
     29 N          48.4000  -25.6000   54.1100 N.am      2 ALA2        0.0000 
     30 N          49.6100  -26.4100   53.7500 N.am      2 ALA2        0.0000 
     31 N          56.8800  -31.2500   51.5600 N.am      2 ALA2        0.0000 
     32 N          58.0900  -32.0600   51.2000 N.am      2 ALA2        0.0000 
     33 N          52.0800  -27.3400   51.6800 N.am      2 ALA2        0.0000 
     34 N          57.7600  -30.1800   52.1300 N.am      2 ALA2        0.0000 
     35 OD1        43.5600  -30.4200   54.8700 O.co2     3 ASP3        0.0000 
     36 OD1        42.3900  -28.9400   53.8900 O.co2     3 ASP3        0.0000 
     37 OD1        45.6500  -30.1600   55.0700 O.co2     3 ASP3        0.0000 
     38 OD1        43.2800  -27.8700   54.4600 O.co2     3 ASP3        0.0000 
     39 OD1        44.4900  -28.6700   54.1000 O.co2     3 ASP3        0.0000 
     40 OD1        43.3300  -27.1900   53.1300 O.co2     3 ASP3        0.0000 
     41 OD1        46.4900  -29.7600   56.9800 O.co2     3 ASP3        0.0000 
     42 OD1        46.5400  -29.0900   55.6500 O.co2     3 ASP3        0.0000 
     43 OD1        44.1600  -26.8000   55.0400 O.co2     3 ASP3        0.0000 
     44 OD1        45.3700  -27.6100   54.6700 O.co2     3 ASP3        0.0000 
     45 OD1        52.7300  -31.1000   49.8100 O.co2     3 ASP3        0.0000 
     46 OD1        53.9400  -31.9000   49.4500 O.co2     3 ASP3        0.0000 
     47 OD1        44.9000  -27.7600   59.6200 O.co2     3 ASP3        0.0000 
     48 OD1        46.1100  -28.5600   59.2600 O.co2     3 ASP3        0.0000 
     49 OD1        44.9500  -27.0800   58.2800 O.co2     3 ASP3        0.0000 
     50 OD1        46.1600  -27.8900   57.9200 O.co2     3 ASP3        0.0000 
     51 OD1        45.0000  -26.4100   56.9400 O.co2     3 ASP3        0.0000 
     52 OD1        46.2100  -27.2100   56.5800 O.co2     3 ASP3        0.0000 
     53 OD1        47.4200  -28.0200   56.2200 O.co2     3 ASP3        0.0000 
     54 OD1        46.2600  -26.5400   55.2400 O.co2     3 ASP3        0.0000 
     55 OD1        45.7900  -26.6900   60.1900 O.co2     3 ASP3        0.0000 
     56 OD1        48.3000  -26.9500   56.7900 O.co2     3 ASP3        0.0000 
     57 OD1        48.3500  -26.2800   55.4500 O.co2     3 ASP3        0.0000 
     58 CZ         52.3100  -30.5700   53.4200 C.ar      4 PHE5        0.0000 
     59 CZ         53.5700  -30.7000   51.7200 C.ar      4 PHE5        0.0000 
     60 CZ         53.6200  -30.0300   50.3800 C.ar      4 PHE5        0.0000 
     61 CZ         54.8300  -30.8300   50.0200 C.ar      4 PHE5        0.0000 
     62 CZ         51.9800  -28.7000   54.3600 C.ar      4 PHE5        0.0000 
     63 CZ         53.1900  -29.5000   53.9900 C.ar      4 PHE5        0.0000 
     64 CZ         55.6200  -31.1200   53.2600 C.ar      4 PHE5        0.0000 
     65 CZ         56.8300  -31.9200   52.9000 C.ar      4 PHE5        0.0000 
     66 CZ         54.4500  -29.6300   52.2900 C.ar      4 PHE5        0.0000 
     67 CZ         55.6600  -30.4400   51.9300 C.ar      4 PHE5        0.0000 
     68 CZ         53.2900  -28.1500   51.3200 C.ar      4 PHE5        0.0000 
     69 CZ         56.9200  -30.5700   50.2200 C.ar      4 PHE5        0.0000 
     70 CZ         56.5000  -30.0500   53.8400 C.ar      4 PHE5        0.0000 
     71 CZ         57.7100  -30.8600   53.4700 C.ar      4 PHE5        0.0000 
     72 CZ         55.3400  -28.5700   52.8600 C.ar      4 PHE5        0.0000 
     73 CZ         56.5500  -29.3700   52.5000 C.ar      4 PHE5        0.0000 
     74 CA         41.5100  -30.0000   53.3200 C.3       5 GLY6        0.0000 
     75 CA         42.7200  -30.8100   52.9600 C.3       5 GLY6        0.0000 
     76 CA         41.5600  -29.3300   51.9800 C.3       5 GLY6        0.0000 
     77 CA         42.7700  -30.1400   51.6200 C.3       5 GLY6        0.0000 
     78 CA         43.6000  -29.7400   53.5300 C.3       5 GLY6        0.0000 
     79 CA         44.8100  -30.5500   53.1600 C.3       5 GLY6        0.0000 
     80 CA         41.2300  -27.4500   52.9200 C.3       5 GLY6        0.0000 
     81 CA         42.4400  -28.2600   52.5500 C.3       5 GLY6        0.0000 
     82 CA         43.6500  -29.0700   52.1900 C.3       5 GLY6        0.0000 
     83 CA         44.8600  -29.8700   51.8300 C.3       5 GLY6        0.0000 
     84 CA         42.4900  -27.5800   51.2200 C.3       5 GLY6        0.0000 
     85 CA         44.5400  -28.0000   52.7600 C.3       5 GLY6        0.0000 
     86 CA         43.3700  -26.5200   51.7900 C.3       5 GLY6        0.0000 
     87 CA         43.0000  -25.3200   54.0600 C.3       5 GLY6        0.0000 
     88 CA         44.2100  -26.1200   53.7000 C.3       5 GLY6        0.0000 
     89 CA         45.4200  -26.9300   53.3300 C.3       5 GLY6        0.0000 
     90 CA         46.6300  -27.7400   52.9700 C.3       5 GLY6        0.0000 
     91 CA         51.4700  -30.9700   51.5100 C.3       5 GLY6        0.0000 
     92 CA         47.3700  -28.7000   57.5500 C.3       5 GLY6        0.0000 
     93 CA         46.3000  -25.8600   53.9000 C.3       5 GLY6        0.0000 
     94 CA         47.5200  -26.6700   53.5400 C.3       5 GLY6        0.0000 
     95 CA         48.2600  -27.6300   58.1300 C.3       5 GLY6        0.0000 
     96 CA         50.4000  -26.6900   57.0000 C.3       5 GLY6        0.0000 
     97 CA         49.2400  -25.2100   56.0200 C.3       5 GLY6        0.0000 
     98 DU         49.5600  -27.0800   55.0900 H         6 CUB7        0.0000 
     99 DU         50.8200  -27.2100   53.3800 H         6 CUB7        0.0000 
    100 DU         52.0300  -28.0200   53.0200 H         6 CUB7        0.0000 
    101 DU         53.2400  -28.8300   52.6500 H         6 CUB7        0.0000 
@<TRIPOS>BOND
@<TRIPOS>SUBSTRUCTURE
     1 SER1        1 GROUP   
     2 ALA2       12 GROUP   
     3 ASP3       35 GROUP   
     4 PHE5       58 GROUP   
     5 GLY6       74 GROUP   
     6 CUB7       98 GROUP   
@<TRIPOS>SET

