#    Name: 6pf3_4_UMP
#    Modification time : Fri May 22 19:28:10 2020

@<TRIPOS>MOLECULE
6pf3_4_UMP
   20    21     1     0     1
SMALL
NO_CHARGES


@<TRIPOS>ATOM
      1 N1         37.4640   22.8370   67.8300 N.am      1 UMP600      0.0000 
      2 C2         37.0620   23.7930   68.7890 C.2       1 UMP600      0.0000 
      3 N3         36.1800   23.3620   69.7820 N.am      1 UMP600      0.0000 
      4 C4         35.6580   22.0720   69.9090 C.2       1 UMP600      0.0000 
      5 C5         36.1110   21.1370   68.8890 C.2       1 UMP600      0.0000 
      6 C6         36.9580   21.5470   67.9170 C.2       1 UMP600      0.0000 
      7 O2         37.4540   24.9590   68.7800 O.2       1 UMP600      0.0000 
      8 O4         34.8840   21.8010   70.8250 O.2       1 UMP600      0.0000 
      9 C1'        38.4140   23.2080   66.7110 C.3       1 UMP600      0.0000 
     10 C2'        39.8270   23.5920   67.1670 C.3       1 UMP600      0.0000 
     11 C3'        40.6070   23.2250   65.9140 C.3       1 UMP600      0.0000 
     12 C4'        39.9010   21.9480   65.4410 C.3       1 UMP600      0.0000 
     13 O3'        40.5430   24.2580   64.9490 O.3       1 UMP600      0.0000 
     14 O4'        38.5470   22.1090   65.8640 O.3       1 UMP600      0.0000 
     15 C5'        40.4840   20.6590   66.0490 C.3       1 UMP600      0.0000 
     16 O5'        41.6130   20.1520   65.3530 O.3       1 UMP600      0.0000 
     17 P          43.1220   20.1620   65.9640 P.3       1 UMP600      0.0000 
     18 OP1        44.0380   19.9580   64.6430 O.co2     1 UMP600      0.0000 
     19 OP2        43.4880   21.3400   66.8000 O.co2     1 UMP600      0.0000 
     20 OP3        43.2110   18.7000   66.6630 O.co2     1 UMP600      0.0000 
@<TRIPOS>BOND
     1    1    2 1    
     2    1    6 1    
     3    1    9 1    
     4    2    3 1    
     5    2    7 2    
     6    3    4 1    
     7    4    5 1    
     8    4    8 2    
     9    5    6 2    
    10    9   10 1    
    11    9   14 1    
    12   10   11 1    
    13   11   12 1    
    14   11   13 1    
    15   12   14 1    
    16   12   15 1    
    17   15   16 1    
    18   16   17 1    
    19   17   18 ar   
    20   17   19 ar   
    21   17   20 ar   
@<TRIPOS>SUBSTRUCTURE
     1 UMP600      1 GROUP   
@<TRIPOS>SET
ATOM$ORANGE STATIC     ATOMS   COLORGROUP SYSTEM 
18 2 2 4 4 5 5 6 6 9 9 10 10 11 11 12 12 15 \
15 

