#    Name: 6pf3_4_UMP_CAVITY_N1_4
#    Modification time : Fri May 22 19:28:12 2020

@<TRIPOS>MOLECULE
6pf3_4_UMP_CAVITY_N1_4
   57     0     6     0     0
SMALL
NO_CHARGES


@<TRIPOS>ATOM
      1 OG         39.9300   23.5300   64.7300 O.3       1 SER1        0.0000 
      2 OG         40.4300   22.1200   64.8000 O.3       1 SER1        0.0000 
      3 OG         35.2700   20.5500   70.2200 O.3       1 SER1        0.0000 
      4 OG         39.5100   23.4900   66.8100 O.3       1 SER1        0.0000 
      5 OG         40.7000   23.8700   65.9700 O.3       1 SER1        0.0000 
      6 OG         41.2000   22.4600   66.0400 O.3       1 SER1        0.0000 
      7 OG         41.7000   21.0400   66.1100 O.3       1 SER1        0.0000 
      8 OG         42.3800   22.8400   65.2000 O.3       1 SER1        0.0000 
      9 OG         43.5700   23.2200   64.3700 O.3       1 SER1        0.0000 
     10 OG         42.4700   21.3800   67.3500 O.3       1 SER1        0.0000 
     11 OG         43.6600   21.7600   66.5200 O.3       1 SER1        0.0000 
     12 OG         44.3400   23.5500   65.6100 O.3       1 SER1        0.0000 
     13 OG         44.8400   22.1400   65.6800 O.3       1 SER1        0.0000 
     14 OG         45.1100   23.8900   66.8500 O.3       1 SER1        0.0000 
     15 OG         45.6100   22.4800   66.9200 O.3       1 SER1        0.0000 
     16 OG         46.3800   22.8100   68.1700 O.3       1 SER1        0.0000 
     17 N          36.8700   20.9800   67.3100 N.am      2 ALA2        0.0000 
     18 N          38.0600   21.3600   66.4700 N.am      2 ALA2        0.0000 
     19 O          34.7700   21.9600   70.1500 O.2       2 ALA2        0.0000 
     20 N          35.9600   22.3400   69.3200 N.am      2 ALA2        0.0000 
     21 N          36.4600   20.9300   69.3900 N.am      2 ALA2        0.0000 
     22 N          37.1400   22.7200   68.4800 N.am      2 ALA2        0.0000 
     23 O          37.8200   24.5200   67.5800 O.2       2 ALA2        0.0000 
     24 N          38.3300   23.1000   67.6400 N.am      2 ALA2        0.0000 
     25 O          39.0100   24.9000   66.7400 O.2       2 ALA2        0.0000 
     26 N          40.0100   22.0700   66.8800 N.am      2 ALA2        0.0000 
     27 N          40.5200   20.6600   66.9500 N.am      2 ALA2        0.0000 
     28 O          45.2600   22.1900   63.6000 O.2       2 ALA2        0.0000 
     29 OD1        39.7500   20.3300   65.7000 O.co2     3 ASP3        0.0000 
     30 OD1        40.9300   20.7100   64.8700 O.co2     3 ASP3        0.0000 
     31 OD1        42.2100   19.6300   66.1800 O.co2     3 ASP3        0.0000 
     32 OD1        42.8900   21.4300   65.2700 O.co2     3 ASP3        0.0000 
     33 OD1        43.3900   20.0100   65.3400 O.co2     3 ASP3        0.0000 
     34 OD1        43.8900   18.6000   65.4100 O.co2     3 ASP3        0.0000 
     35 OD1        44.0700   21.8100   64.4400 O.co2     3 ASP3        0.0000 
     36 OD1        44.5800   20.4000   64.5100 O.co2     3 ASP3        0.0000 
     37 OD1        45.0800   18.9800   64.5700 O.co2     3 ASP3        0.0000 
     38 OD1        44.1600   20.3500   66.5900 O.co2     3 ASP3        0.0000 
     39 OD1        44.6600   18.9400   66.6500 O.co2     3 ASP3        0.0000 
     40 OD1        45.3400   20.7300   65.7500 O.co2     3 ASP3        0.0000 
     41 OD1        46.1100   21.0700   66.9900 O.co2     3 ASP3        0.0000 
     42 CZ         34.5000   20.2100   68.9800 C.ar      4 PHE5        0.0000 
     43 CA         38.7400   23.1500   65.5700 C.3       5 GLY6        0.0000 
     44 CA         36.6400   24.1300   68.4100 C.3       5 GLY6        0.0000 
     45 CA         44.7500   23.6000   63.5300 C.3       5 GLY6        0.0000 
     46 CA         45.7600   20.7800   63.6700 C.3       5 GLY6        0.0000 
     47 CA         46.2600   19.3700   63.7400 C.3       5 GLY6        0.0000 
     48 CA         45.5200   23.9400   64.7700 C.3       5 GLY6        0.0000 
     49 CA         45.8800   24.2200   68.1000 C.3       5 GLY6        0.0000 
     50 DU         35.6900   20.5900   68.1400 H         6 CUB7        0.0000 
     51 DU         37.5600   22.7700   66.4000 H         6 CUB7        0.0000 
     52 DU         39.2400   21.7400   65.6300 H         6 CUB7        0.0000 
     53 DU         45.8500   19.3200   65.8200 H         6 CUB7        0.0000 
     54 DU         46.0300   22.5200   64.8400 H         6 CUB7        0.0000 
     55 DU         46.5300   21.1100   64.9100 H         6 CUB7        0.0000 
     56 DU         46.8000   22.8600   66.0900 H         6 CUB7        0.0000 
     57 DU         47.3000   21.4500   66.1500 H         6 CUB7        0.0000 
@<TRIPOS>BOND
@<TRIPOS>SUBSTRUCTURE
     1 SER1        1 GROUP   
     2 ALA2       17 GROUP   
     3 ASP3       29 GROUP   
     4 PHE5       42 GROUP   
     5 GLY6       43 GROUP   
     6 CUB7       50 GROUP   
@<TRIPOS>SET

