#    Name: 6b2e_1_STU
#    Modification time : Fri May 22 19:33:27 2020

@<TRIPOS>MOLECULE
6b2e_1_STU
   35    42     1     0     0
SMALL
NO_CHARGES


@<TRIPOS>ATOM
      1 O4        -12.2420  -37.1880    1.6300 O.3       1 STU601      0.0000 
      2 C25       -10.9680  -36.7020    1.1840 C.3       1 STU601      0.0000 
      3 C24       -10.0790  -36.1400    2.2920 C.3       1 STU601      0.0000 
      4 C23       -10.6580  -36.3960    3.6710 C.3       1 STU601      0.0000 
      5 C22       -12.0770  -35.8580    3.7230 C.3       1 STU601      0.0000 
      6 C21       -12.9650  -36.4600    2.6300 C.3       1 STU601      0.0000 
      7 C26       -13.8850  -37.4880    3.2830 C.3       1 STU601      0.0000 
      8 N2        -13.7840  -35.3770    1.9950 N.pl3     1 STU601      0.0000 
      9 C18       -13.4250  -34.7050    0.8750 C.ar      1 STU601      0.0000 
     10 C19       -12.2250  -34.8450    0.0010 C.ar      1 STU601      0.0000 
     11 C6        -12.0860  -33.9840   -1.1740 C.ar      1 STU601      0.0000 
     12 C7        -13.1660  -32.9990   -1.4430 C.ar      1 STU601      0.0000 
     13 C10       -14.3580  -32.8280   -0.6180 C.ar      1 STU601      0.0000 
     14 C11       -14.4800  -33.7160    0.5760 C.ar      1 STU601      0.0000 
     15 C12       -15.4690  -33.8840    1.6420 C.ar      1 STU601      0.0000 
     16 C17       -14.9720  -34.9600    2.5350 C.ar      1 STU601      0.0000 
     17 C16       -15.7520  -35.3050    3.6290 C.ar      1 STU601      0.0000 
     18 C15       -16.9530  -34.6230    3.8350 C.ar      1 STU601      0.0000 
     19 C14       -17.3990  -33.6090    2.9790 C.ar      1 STU601      0.0000 
     20 C13       -16.6620  -33.2190    1.8620 C.ar      1 STU601      0.0000 
     21 C9        -15.2080  -31.7800   -1.1640 C.3       1 STU601      0.0000 
     22 N1        -14.4880  -31.2990   -2.3780 N.am      1 STU601      0.0000 
     23 C8        -13.3350  -32.0040   -2.5170 C.2       1 STU601      0.0000 
     24 O5        -12.4910  -31.8240   -3.4690 O.2       1 STU601      0.0000 
     25 C5        -10.8260  -34.3840   -1.7770 C.ar      1 STU601      0.0000 
     26 C20       -10.2890  -35.4680   -0.9160 C.ar      1 STU601      0.0000 
     27 C1         -9.0740  -36.0210   -1.2920 C.ar      1 STU601      0.0000 
     28 C2         -8.4330  -35.5410   -2.4370 C.ar      1 STU601      0.0000 
     29 C3         -8.9670  -34.5180   -3.2270 C.ar      1 STU601      0.0000 
     30 C4        -10.1820  -33.9170   -2.9090 C.ar      1 STU601      0.0000 
     31 N3        -11.1680  -35.6860    0.1200 N.pl3     1 STU601      0.0000 
     32 O6        -12.0270  -34.4340    3.6250 O.3       1 STU601      0.0000 
     33 C27       -11.8340  -33.8220    4.8990 C.3       1 STU601      0.0000 
     34 N4         -9.8420  -35.7560    4.6840 N.4       1 STU601      0.0000 
     35 C28        -8.7220  -36.4660    5.2690 C.3       1 STU601      0.0000 
@<TRIPOS>BOND
     1    1    2 1    
     2    1    6 1    
     3    2    3 1    
     4    2   31 1    
     5    3    4 1    
     6    4    5 1    
     7    4   34 1    
     8    5    6 1    
     9    5   32 1    
    10    6    7 1    
    11    6    8 1    
    12    8    9 1    
    13    8   16 1    
    14    9   10 ar   
    15    9   14 ar   
    16   10   11 ar   
    17   10   31 1    
    18   11   12 ar   
    19   11   25 1    
    20   12   13 ar   
    21   12   23 1    
    22   13   14 ar   
    23   13   21 1    
    24   14   15 1    
    25   15   16 ar   
    26   15   20 ar   
    27   16   17 ar   
    28   17   18 ar   
    29   18   19 ar   
    30   19   20 ar   
    31   21   22 1    
    32   22   23 am   
    33   23   24 2    
    34   25   26 ar   
    35   25   30 ar   
    36   26   27 ar   
    37   26   31 1    
    38   27   28 ar   
    39   28   29 ar   
    40   29   30 ar   
    41   32   33 1    
    42   34   35 1    
@<TRIPOS>SUBSTRUCTURE
     1 STU601      1 GROUP   
@<TRIPOS>SET

