#    Name: 6b2e_4_AMP
#    Modification time : Fri May 22 19:33:41 2020

@<TRIPOS>MOLECULE
6b2e_4_AMP
   23    25     1     0     1
SMALL
NO_CHARGES


@<TRIPOS>ATOM
      1 P         -35.6310   25.1840   23.2440 P.3       1 AMP401      0.0000 
      2 O1P       -35.7570   24.2270   22.0810 O.co2     1 AMP401      0.0000 
      3 O2P       -36.4120   24.7790   24.4720 O.co2     1 AMP401      0.0000 
      4 O3P       -34.2140   25.6280   23.5230 O.co2     1 AMP401      0.0000 
      5 O5'       -36.3520   26.5400   22.7570 O.3       1 AMP401      0.0000 
      6 C5'       -37.6910   26.5680   22.2540 C.3       1 AMP401      0.0000 
      7 C4'       -37.9800   27.9260   21.6110 C.3       1 AMP401      0.0000 
      8 O4'       -37.5810   28.9910   22.4830 O.3       1 AMP401      0.0000 
      9 C3'       -37.2400   28.1110   20.2910 C.3       1 AMP401      0.0000 
     10 O3'       -38.1770   28.5140   19.2840 O.3       1 AMP401      0.0000 
     11 C2'       -36.2010   29.1940   20.5540 C.3       1 AMP401      0.0000 
     12 O2'       -36.1440   30.1640   19.5010 O.3       1 AMP401      0.0000 
     13 C1'       -36.6070   29.8430   21.8710 C.3       1 AMP401      0.0000 
     14 N9        -35.4630   30.0430   22.8080 N.pl3     1 AMP401      0.0000 
     15 C8        -34.3480   29.2870   22.9200 C.2       1 AMP401      0.0000 
     16 N7        -33.5250   29.7510   23.8940 N.2       1 AMP401      0.0000 
     17 C5        -34.1240   30.8190   24.4490 C.ar      1 AMP401      0.0000 
     18 C6        -33.8150   31.7870   25.5390 C.ar      1 AMP401      0.0000 
     19 N6        -32.6640   31.6970   26.2490 N.pl3     1 AMP401      0.0000 
     20 N1        -34.7210   32.7650   25.8000 N.ar      1 AMP401      0.0000 
     21 C2        -35.8780   32.8690   25.1090 C.ar      1 AMP401      0.0000 
     22 N3        -36.2190   32.0310   24.1060 N.ar      1 AMP401      0.0000 
     23 C4        -35.3970   31.0130   23.7250 C.ar      1 AMP401      0.0000 
@<TRIPOS>BOND
     1    1    2 ar   
     2    1    3 ar   
     3    1    4 ar   
     4    1    5 1    
     5    5    6 1    
     6    6    7 1    
     7    7    8 1    
     8    7    9 1    
     9    8   13 1    
    10    9   10 1    
    11    9   11 1    
    12   11   12 1    
    13   11   13 1    
    14   13   14 1    
    15   14   15 1    
    16   14   23 1    
    17   15   16 2    
    18   16   17 1    
    19   17   18 ar   
    20   17   23 ar   
    21   18   19 1    
    22   18   20 ar   
    23   20   21 ar   
    24   21   22 ar   
    25   22   23 ar   
@<TRIPOS>SUBSTRUCTURE
     1 AMP401      1 GROUP   
@<TRIPOS>SET
ATOM$ORANGE STATIC     ATOMS   COLORGROUP SYSTEM 
20 6 6 7 7 9 9 11 11 13 13 15 15 17 17 18 18 21 \
21 23 23 

