#    Name: 6b2e_3_AMP
#    Modification time : Fri May 22 19:33:37 2020

@<TRIPOS>MOLECULE
6b2e_3_AMP
   23    25     1     0     1
SMALL
NO_CHARGES


@<TRIPOS>ATOM
      1 P         -28.2360   20.9430   26.2160 P.3       1 AMP400      0.0000 
      2 O1P       -28.1900   19.9400   25.0870 O.co2     1 AMP400      0.0000 
      3 O2P       -28.6660   22.3310   25.8060 O.co2     1 AMP400      0.0000 
      4 O3P       -28.9160   20.4400   27.4680 O.co2     1 AMP400      0.0000 
      5 O5'       -26.6880   21.1430   26.6190 O.3       1 AMP400      0.0000 
      6 C5'       -25.9190   20.1200   27.2570 C.3       1 AMP400      0.0000 
      7 C4'       -24.6460   20.7190   27.8570 C.3       1 AMP400      0.0000 
      8 O4'       -24.0000   21.5760   26.9080 O.3       1 AMP400      0.0000 
      9 C3'       -24.9140   21.5430   29.1130 C.3       1 AMP400      0.0000 
     10 O3'       -23.9880   21.1300   30.1260 O.3       1 AMP400      0.0000 
     11 C2'       -24.6450   22.9870   28.7090 C.3       1 AMP400      0.0000 
     12 O2'       -23.9550   23.7110   29.7350 O.3       1 AMP400      0.0000 
     13 C1'       -23.7910   22.8830   27.4500 C.3       1 AMP400      0.0000 
     14 N9        -24.1350   23.9260   26.4440 N.pl3     1 AMP400      0.0000 
     15 C8        -25.3160   24.0650   25.8050 C.2       1 AMP400      0.0000 
     16 N7        -25.2930   25.1130   24.9420 N.2       1 AMP400      0.0000 
     17 C5        -24.0610   25.6470   24.9920 C.ar      1 AMP400      0.0000 
     18 C6        -23.3480   26.7750   24.3330 C.ar      1 AMP400      0.0000 
     19 N6        -23.9720   27.5520   23.4140 N.pl3     1 AMP400      0.0000 
     20 N1        -22.0540   27.0030   24.6780 N.ar      1 AMP400      0.0000 
     21 C2        -21.4120   26.2400   25.5920 C.ar      1 AMP400      0.0000 
     22 N3        -22.0000   25.2030   26.2290 N.ar      1 AMP400      0.0000 
     23 C4        -23.2960   24.8580   25.9790 C.ar      1 AMP400      0.0000 
@<TRIPOS>BOND
     1    1    2 ar   
     2    1    3 ar   
     3    1    4 ar   
     4    1    5 1    
     5    5    6 1    
     6    6    7 1    
     7    7    8 1    
     8    7    9 1    
     9    8   13 1    
    10    9   10 1    
    11    9   11 1    
    12   11   12 1    
    13   11   13 1    
    14   13   14 1    
    15   14   15 1    
    16   14   23 1    
    17   15   16 2    
    18   16   17 1    
    19   17   18 ar   
    20   17   23 ar   
    21   18   19 1    
    22   18   20 ar   
    23   20   21 ar   
    24   21   22 ar   
    25   22   23 ar   
@<TRIPOS>SUBSTRUCTURE
     1 AMP400      1 GROUP   
@<TRIPOS>SET
ATOM$ORANGE STATIC     ATOMS   COLORGROUP SYSTEM 
20 6 6 7 7 9 9 11 11 13 13 15 15 17 17 18 18 21 \
21 23 23 

