#    Name: 6i20_1_FMN
#    Modification time : Fri May 22 19:43:38 2020

@<TRIPOS>MOLECULE
6i20_1_FMN
   31    33     1     0     1
SMALL
NO_CHARGES


@<TRIPOS>ATOM
      1 N1          4.4790   -9.9350  -30.8910 N.2       1 FMN401      0.0000 
      2 C2          5.0250   -9.9040  -29.6560 C.2       1 FMN401      0.0000 
      3 O2          5.9280   -9.0650  -29.4310 O.2       1 FMN401      0.0000 
      4 N3          4.6320  -10.7190  -28.6470 N.am      1 FMN401      0.0000 
      5 C4          3.6580  -11.6630  -28.8190 C.2       1 FMN401      0.0000 
      6 O4          3.3700  -12.4490  -27.8770 O.2       1 FMN401      0.0000 
      7 C4A         3.0240  -11.7160  -30.0930 C.2       1 FMN401      0.0000 
      8 N5          2.0230  -12.6240  -30.3230 N.2       1 FMN401      0.0000 
      9 C5A         1.5130  -12.6940  -31.5770 C.ar      1 FMN401      0.0000 
     10 C6          0.4960  -13.6300  -31.8650 C.ar      1 FMN401      0.0000 
     11 C7         -0.0500  -13.7420  -33.1010 C.ar      1 FMN401      0.0000 
     12 C7M        -1.1370  -14.8020  -33.3890 C.3       1 FMN401      0.0000 
     13 C8          0.3920  -12.8930  -34.1730 C.ar      1 FMN401      0.0000 
     14 C8M        -0.1900  -13.0160  -35.5440 C.3       1 FMN401      0.0000 
     15 C9          1.3780  -11.9710  -33.9190 C.ar      1 FMN401      0.0000 
     16 C9A         1.9720  -11.8550  -32.6700 C.ar      1 FMN401      0.0000 
     17 N10         2.9450  -10.8600  -32.3960 N.pl3     1 FMN401      0.0000 
     18 C10         3.5060  -10.8370  -31.1520 C.2       1 FMN401      0.0000 
     19 C1'         3.5190  -10.0500  -33.4640 C.3       1 FMN401      0.0000 
     20 C2'         2.8140   -8.7210  -33.7520 C.3       1 FMN401      0.0000 
     21 O2'         1.4020   -8.9060  -33.5700 O.3       1 FMN401      0.0000 
     22 C3'         3.0850   -8.3090  -35.1910 C.3       1 FMN401      0.0000 
     23 O3'         2.7130   -9.3430  -36.1180 O.3       1 FMN401      0.0000 
     24 C4'         4.5120   -7.8980  -35.4760 C.3       1 FMN401      0.0000 
     25 O4'         4.8840   -6.8930  -34.5170 O.3       1 FMN401      0.0000 
     26 C5'         4.6330   -7.2790  -36.9090 C.3       1 FMN401      0.0000 
     27 O5'         3.4520   -6.4640  -37.2130 O.3       1 FMN401      0.0000 
     28 P           3.6420   -5.2900  -38.3020 P.3       1 FMN401      0.0000 
     29 O1P         2.3510   -4.5710  -38.3640 O.co2     1 FMN401      0.0000 
     30 O2P         4.7550   -4.4540  -37.8220 O.co2     1 FMN401      0.0000 
     31 O3P         3.9910   -6.0450  -39.5780 O.co2     1 FMN401      0.0000 
@<TRIPOS>BOND
     1    1    2 1    
     2    1   18 2    
     3    2    3 2    
     4    2    4 am   
     5    4    5 am   
     6    5    6 2    
     7    5    7 1    
     8    7    8 2    
     9    7   18 1    
    10    8    9 1    
    11    9   10 ar   
    12    9   16 ar   
    13   10   11 ar   
    14   11   12 1    
    15   11   13 ar   
    16   13   14 1    
    17   13   15 ar   
    18   15   16 ar   
    19   16   17 1    
    20   17   18 1    
    21   17   19 1    
    22   19   20 1    
    23   20   21 1    
    24   20   22 1    
    25   22   23 1    
    26   22   24 1    
    27   24   25 1    
    28   24   26 1    
    29   26   27 1    
    30   27   28 1    
    31   28   29 ar   
    32   28   30 ar   
    33   28   31 ar   
@<TRIPOS>SUBSTRUCTURE
     1 FMN401      1 GROUP   
@<TRIPOS>SET
ATOM$ORANGE STATIC     ATOMS   COLORGROUP SYSTEM 
34 2 2 5 5 7 7 9 9 10 10 11 11 12 12 13 13 14 \
14 15 15 16 16 18 18 19 19 20 20 22 22 24 24 26 26 

