#    Name: 6fqk_2_ZK1_CAVITY_N1_6
#    Modification time : Fri May 22 19:30:53 2020

@<TRIPOS>MOLECULE
6fqk_2_ZK1_CAVITY_N1_6
   80     0     6     0     0
SMALL
NO_CHARGES


@<TRIPOS>ATOM
      1 OG        -24.7200   35.1700  -15.9800 O.3       1 SER1        0.0000 
      2 OG        -23.6000   35.2900  -16.9700 O.3       1 SER1        0.0000 
      3 OG        -24.8800   33.4200  -11.8400 O.3       1 SER1        0.0000 
      4 OG        -23.7600   33.5400  -12.8300 O.3       1 SER1        0.0000 
      5 OG        -23.9700   36.0600  -15.0300 O.3       1 SER1        0.0000 
      6 OG        -22.8500   36.1800  -16.0300 O.3       1 SER1        0.0000 
      7 OG        -23.5100   37.3800  -16.6300 O.3       1 SER1        0.0000 
      8 OG        -22.3900   37.5000  -17.6200 O.3       1 SER1        0.0000 
      9 OG        -25.2500   34.1900   -9.9000 O.3       1 SER1        0.0000 
     10 OG        -27.0300   35.2800   -9.5100 O.3       1 SER1        0.0000 
     11 OG        -25.9100   35.3900  -10.5000 O.3       1 SER1        0.0000 
     12 OG        -27.6900   36.4800  -10.1100 O.3       1 SER1        0.0000 
     13 OG        -23.2200   36.9500  -14.0800 O.3       1 SER1        0.0000 
     14 OG        -24.5000   35.0800   -8.9500 O.3       1 SER1        0.0000 
     15 OD1       -27.8600   32.3000  -10.8000 O.co2     2 ASP3        0.0000 
     16 OD1       -27.1100   33.1900   -9.8500 O.co2     2 ASP3        0.0000 
     17 OD1       -26.0000   33.3000  -10.8500 O.co2     2 ASP3        0.0000 
     18 NZ        -27.9900   34.4900  -17.4900 N.4       3 LYS4        0.0000 
     19 NZ        -28.6600   35.6900  -18.0900 N.4       3 LYS4        0.0000 
     20 NZ        -28.2000   37.0100  -19.6900 N.4       3 LYS4        0.0000 
     21 NZ        -27.2400   35.3700  -16.5400 N.4       3 LYS4        0.0000 
     22 NZ        -26.7900   36.6900  -18.1400 N.4       3 LYS4        0.0000 
     23 NZ        -25.3800   36.3800  -16.5800 N.4       3 LYS4        0.0000 
     24 NZ        -25.5400   34.6200  -12.4400 N.4       3 LYS4        0.0000 
     25 NZ        -24.4200   34.7400  -13.4400 N.4       3 LYS4        0.0000 
     26 NZ        -27.3200   35.7100  -12.0500 N.4       3 LYS4        0.0000 
     27 NZ        -26.2000   35.8300  -13.0500 N.4       3 LYS4        0.0000 
     28 NZ        -25.0800   35.9500  -14.0400 N.4       3 LYS4        0.0000 
     29 NZ        -27.9800   36.9100  -12.6600 N.4       3 LYS4        0.0000 
     30 NZ        -26.8600   37.0300  -13.6500 N.4       3 LYS4        0.0000 
     31 NZ        -25.7500   37.1500  -14.6400 N.4       3 LYS4        0.0000 
     32 NZ        -24.6300   37.2700  -15.6400 N.4       3 LYS4        0.0000 
     33 NZ        -27.5200   38.2400  -14.2500 N.4       3 LYS4        0.0000 
     34 NZ        -26.4100   38.3500  -15.2500 N.4       3 LYS4        0.0000 
     35 NZ        -25.2900   38.4700  -16.2400 N.4       3 LYS4        0.0000 
     36 NZ        -24.7900   35.5100  -11.4900 N.4       3 LYS4        0.0000 
     37 NZ        -23.6700   35.6300  -12.4900 N.4       3 LYS4        0.0000 
     38 NZ        -26.5700   36.6000  -11.1000 N.4       3 LYS4        0.0000 
     39 CZ        -29.2800   32.6200  -12.3600 C.ar      4 PHE5        0.0000 
     40 CZ        -28.1600   32.7300  -13.3500 C.ar      4 PHE5        0.0000 
     41 CZ        -28.8200   33.9400  -13.9500 C.ar      4 PHE5        0.0000 
     42 CZ        -27.7000   34.0500  -14.9400 C.ar      4 PHE5        0.0000 
     43 CZ        -28.3600   35.2600  -15.5500 C.ar      4 PHE5        0.0000 
     44 CZ        -26.7500   32.4200  -11.8000 C.ar      4 PHE5        0.0000 
     45 CZ        -25.6300   32.5300  -12.7900 C.ar      4 PHE5        0.0000 
     46 CZ        -24.5100   32.6500  -13.7800 C.ar      4 PHE5        0.0000 
     47 CZ        -27.4100   33.6200  -12.4000 C.ar      4 PHE5        0.0000 
     48 CZ        -26.2900   33.7400  -13.3900 C.ar      4 PHE5        0.0000 
     49 CZ        -25.1700   33.8500  -14.3900 C.ar      4 PHE5        0.0000 
     50 CZ        -24.0500   33.9700  -15.3800 C.ar      4 PHE5        0.0000 
     51 CZ        -26.9500   34.9400  -14.0000 C.ar      4 PHE5        0.0000 
     52 CZ        -25.8300   35.0600  -14.9900 C.ar      4 PHE5        0.0000 
     53 CA        -29.3200   36.8900  -18.7000 C.3       5 GLY6        0.0000 
     54 CA        -30.1400   36.3400  -15.1600 C.3       5 GLY6        0.0000 
     55 CA        -29.0200   36.4600  -16.1500 C.3       5 GLY6        0.0000 
     56 CA        -27.9100   36.5800  -17.1400 C.3       5 GLY6        0.0000 
     57 CA        -27.4500   37.9000  -18.7400 C.3       5 GLY6        0.0000 
     58 CA        -26.3300   38.0100  -19.7300 C.3       5 GLY6        0.0000 
     59 CA        -28.7300   36.0300  -13.6100 C.3       5 GLY6        0.0000 
     60 CA        -24.2600   36.5000  -17.5800 C.3       5 GLY6        0.0000 
     61 CA        -23.1400   36.6100  -18.5700 C.3       5 GLY6        0.0000 
     62 CA        -29.3900   37.2300  -14.2100 C.3       5 GLY6        0.0000 
     63 CA        -28.2700   37.3500  -15.2000 C.3       5 GLY6        0.0000 
     64 CA        -27.1600   37.4600  -16.1900 C.3       5 GLY6        0.0000 
     65 CA        -24.9200   37.7000  -18.1800 C.3       5 GLY6        0.0000 
     66 CA        -26.7000   38.7900  -17.7900 C.3       5 GLY6        0.0000 
     67 CA        -27.3600   39.9900  -18.3900 C.3       5 GLY6        0.0000 
     68 CA        -24.1700   38.5900  -17.2300 C.3       5 GLY6        0.0000 
     69 CA        -25.9500   39.6700  -16.8400 C.3       5 GLY6        0.0000 
     70 CA        -22.7600   38.2700  -15.6800 C.3       5 GLY6        0.0000 
     71 DU        -28.9800   32.1800   -9.8100 H         6 CUB7        0.0000 
     72 DU        -28.5300   33.5000  -11.4100 H         6 CUB7        0.0000 
     73 DU        -29.1900   34.7100  -12.0100 H         6 CUB7        0.0000 
     74 DU        -28.0700   34.8200  -13.0000 H         6 CUB7        0.0000 
     75 DU        -27.6100   36.1400  -14.6000 H         6 CUB7        0.0000 
     76 DU        -26.4900   36.2600  -15.5900 H         6 CUB7        0.0000 
     77 DU        -26.0400   37.5800  -17.1900 H         6 CUB7        0.0000 
     78 DU        -27.7800   34.3900  -10.4600 H         6 CUB7        0.0000 
     79 DU        -26.6600   34.5100  -11.4500 H         6 CUB7        0.0000 
     80 DU        -28.4400   35.5900  -11.0600 H         6 CUB7        0.0000 
@<TRIPOS>BOND
@<TRIPOS>SUBSTRUCTURE
     1 SER1        1 GROUP   
     2 ASP3       15 GROUP   
     3 LYS4       18 GROUP   
     4 PHE5       39 GROUP   
     5 GLY6       53 GROUP   
     6 CUB7       71 GROUP   
@<TRIPOS>SET

