#    Name: 6fqk_2_ZK1
#    Modification time : Fri May 22 19:30:51 2020

@<TRIPOS>MOLECULE
6fqk_2_ZK1
   27    29     1     0     0
SMALL
NO_CHARGES


@<TRIPOS>ATOM
      1 OAA       -23.5390   31.2460  -11.6660 O.2       1 ZK1301      0.0000 
      2 OAB       -25.9670   32.1300  -10.6740 O.2       1 ZK1301      0.0000 
      3 OAC       -26.8000   36.8960  -11.4820 O.co2     1 ZK1301      0.0000 
      4 OAD       -28.4060   35.9780   -9.9980 O.co2     1 ZK1301      0.0000 
      5 OAE       -26.0140   35.3280   -9.7860 O.co2     1 ZK1301      0.0000 
      6 FAF       -22.2610   35.4550  -17.2040 F         1 ZK1301      0.0000 
      7 FAG       -23.1820   37.4230  -16.7230 F         1 ZK1301      0.0000 
      8 FAH       -24.1880   36.0080  -18.0870 F         1 ZK1301      0.0000 
      9 CAI       -26.0810   35.3720  -14.0890 C.ar      1 ZK1301      0.0000 
     10 CAJ       -23.6250   34.4660  -15.0810 C.ar      1 ZK1301      0.0000 
     11 CAK       -26.5220   39.5810  -16.1130 C.3       1 ZK1301      0.0000 
     12 CAL       -26.4250   38.0840  -18.0310 C.3       1 ZK1301      0.0000 
     13 CAM       -25.7580   38.4290  -15.4830 C.3       1 ZK1301      0.0000 
     14 CAN       -26.8570   36.9400  -17.1100 C.3       1 ZK1301      0.0000 
     15 CAO       -27.3910   34.2630  -11.8480 C.3       1 ZK1301      0.0000 
     16 NAP       -23.5230   32.7490  -13.3170 N.am      1 ZK1301      0.0000 
     17 OAQ       -26.8330   39.3510  -17.4940 O.3       1 ZK1301      0.0000 
     18 CAR       -25.4880   35.9850  -15.2280 C.ar      1 ZK1301      0.0000 
     19 CAS       -24.2620   35.5240  -15.7100 C.ar      1 ZK1301      0.0000 
     20 CAT       -24.1240   32.1470  -12.1800 C.2       1 ZK1301      0.0000 
     21 CAU       -25.4060   32.6360  -11.6760 C.2       1 ZK1301      0.0000 
     22 CAV       -24.2110   33.8520  -13.9520 C.ar      1 ZK1301      0.0000 
     23 CAW       -25.4380   34.3190  -13.4720 C.ar      1 ZK1301      0.0000 
     24 NAX       -26.2760   37.1340  -15.8260 N.3       1 ZK1301      0.0000 
     25 NAY       -26.0620   33.7220  -12.3210 N.am      1 ZK1301      0.0000 
     26 CAZ       -23.4760   36.1520  -16.9890 C.3       1 ZK1301      0.0000 
     27 PBA       -27.1410   35.6830  -10.7210 P.3       1 ZK1301      0.0000 
@<TRIPOS>BOND
     1    1   20 2    
     2    2   21 2    
     3    3   27 ar   
     4    4   27 ar   
     5    5   27 ar   
     6    6   26 1    
     7    7   26 1    
     8    8   26 1    
     9    9   18 ar   
    10    9   23 ar   
    11   10   19 ar   
    12   10   22 ar   
    13   11   13 1    
    14   11   17 1    
    15   12   14 1    
    16   12   17 1    
    17   13   24 1    
    18   14   24 1    
    19   15   25 1    
    20   15   27 1    
    21   16   20 am   
    22   16   22 1    
    23   18   19 ar   
    24   18   24 1    
    25   19   26 1    
    26   20   21 1    
    27   21   25 am   
    28   22   23 ar   
    29   23   25 1    
@<TRIPOS>SUBSTRUCTURE
     1 ZK1301      1 GROUP   
@<TRIPOS>SET

