#    Name: 5wf6_1_UKA
#    Modification time : Fri May 22 19:17:43 2020

@<TRIPOS>MOLECULE
5wf6_1_UKA
   57    63     1     0     0
SMALL
NO_CHARGES


@<TRIPOS>ATOM
      1 C1         -6.1840  -11.5920   49.2670 C.3       1 UKA1201     0.0000 
      2 N1         -5.1860  -10.3530   51.2050 N.pl3     1 UKA1201     0.0000 
      3 O1         -3.8770  -11.1450   49.4450 O.3       1 UKA1201     0.0000 
      4 C2         -5.8090  -10.5770   48.1870 C.3       1 UKA1201     0.0000 
      5 N2         -2.5960   -9.4340   46.9890 N.am      1 UKA1201     0.0000 
      6 O2         -6.3980  -10.8930   46.9300 O.3       1 UKA1201     0.0000 
      7 C3         -4.2840  -10.7350   48.1300 C.3       1 UKA1201     0.0000 
      8 N3         -5.0970   -8.2870   52.0860 N.2       1 UKA1201     0.0000 
      9 O3         -6.2320  -12.9230   48.7640 O.3       1 UKA1201     0.0000 
     10 C4         -5.0150  -11.4320   50.2360 C.3       1 UKA1201     0.0000 
     11 N4         -6.5840  -10.1220   54.9490 N.ar      1 UKA1201     0.0000 
     12 O4         -4.1600   -8.3400   48.1910 O.2       1 UKA1201     0.0000 
     13 C5         -3.6760   -9.3870   47.7680 C.2       1 UKA1201     0.0000 
     14 N5         -6.1830  -11.5360   53.0770 N.ar      1 UKA1201     0.0000 
     15 O5         -7.2750  -13.6000   54.4150 O.2       1 UKA1201     0.0000 
     16 C6         -1.8280   -8.2620   46.5820 C.3       1 UKA1201     0.0000 
     17 N6         -6.0940   -7.8470   54.9660 N.pl3     1 UKA1201     0.0000 
     18 O6        -10.2700  -12.6630   59.5090 O.2       1 UKA1201     0.0000 
     19 C7         -2.6450   -7.3130   45.7770 C.3       1 UKA1201     0.0000 
     20 N7         -7.7740  -12.3170   56.1970 N.am      1 UKA1201     0.0000 
     21 C8         -4.8390   -9.0370   51.0430 C.2       1 UKA1201     0.0000 
     22 N8         -8.0450  -12.6120   59.1290 N.am      1 UKA1201     0.0000 
     23 C9         -5.6540   -9.1710   52.9990 C.ar      1 UKA1201     0.0000 
     24 N9         -8.9530  -11.2800   60.7280 N.am      1 UKA1201     0.0000 
     25 C10        -5.7150  -10.4450   52.4670 C.ar      1 UKA1201     0.0000 
     26 N10       -11.3980   -8.5520   62.8510 N.3       1 UKA1201     0.0000 
     27 C11        -6.1180   -9.0240   54.3220 C.ar      1 UKA1201     0.0000 
     28 N11       -10.5570   -6.7790   64.0670 N.ar      1 UKA1201     0.0000 
     29 C12        -6.6150  -11.3070   54.3210 C.ar      1 UKA1201     0.0000 
     30 C13        -6.0830   -7.7110   56.4150 C.3       1 UKA1201     0.0000 
     31 C14        -7.1980   -8.3310   57.2600 C.3       1 UKA1201     0.0000 
     32 C15        -8.5190   -8.5690   56.5410 C.ar      1 UKA1201     0.0000 
     33 C16        -7.4230   -7.5390   58.5420 C.ar      1 UKA1201     0.0000 
     34 C17        -9.3020   -9.6640   56.8780 C.ar      1 UKA1201     0.0000 
     35 C18       -10.4980   -9.9030   56.2270 C.ar      1 UKA1201     0.0000 
     36 C19       -10.9300   -9.0520   55.2350 C.ar      1 UKA1201     0.0000 
     37 C20       -10.1670   -7.9550   54.8980 C.ar      1 UKA1201     0.0000 
     38 C21        -8.9700   -7.7130   55.5470 C.ar      1 UKA1201     0.0000 
     39 C22        -7.3850   -8.1670   59.7790 C.ar      1 UKA1201     0.0000 
     40 C23        -7.6380   -7.4550   60.9380 C.ar      1 UKA1201     0.0000 
     41 C24        -7.9290   -6.1110   60.8780 C.ar      1 UKA1201     0.0000 
     42 C25        -7.9640   -5.4750   59.6580 C.ar      1 UKA1201     0.0000 
     43 C26        -7.7110   -6.1820   58.4960 C.ar      1 UKA1201     0.0000 
     44 C27        -7.2460  -12.5140   54.9870 C.2       1 UKA1201     0.0000 
     45 C28        -8.6240  -13.3060   56.8440 C.3       1 UKA1201     0.0000 
     46 C29        -8.0630  -13.7210   58.1870 C.3       1 UKA1201     0.0000 
     47 C30        -9.1590  -12.2130   59.7720 C.2       1 UKA1201     0.0000 
     48 C31       -10.0350  -10.7410   61.5450 C.3       1 UKA1201     0.0000 
     49 C32       -10.8610   -9.7400   60.7620 C.3       1 UKA1201     0.0000 
     50 C33       -11.9600   -9.1640   61.6430 C.3       1 UKA1201     0.0000 
     51 C34       -10.6210   -9.5180   63.6360 C.3       1 UKA1201     0.0000 
     52 C35        -9.4870  -10.1080   62.8090 C.3       1 UKA1201     0.0000 
     53 C36       -11.7710   -6.3050   62.0510 C.ar      1 UKA1201     0.0000 
     54 C37       -11.5910   -4.9510   62.2650 C.ar      1 UKA1201     0.0000 
     55 C38       -10.9020   -4.5140   63.3700 C.ar      1 UKA1201     0.0000 
     56 C39       -10.4060   -5.4590   64.2380 C.ar      1 UKA1201     0.0000 
     57 C40       -11.2350   -7.1910   62.9870 C.ar      1 UKA1201     0.0000 
@<TRIPOS>BOND
     1    1    4 1    
     2    1    9 1    
     3    1   10 1    
     4    2   10 1    
     5    2   21 1    
     6    2   25 1    
     7    3    7 1    
     8    3   10 1    
     9    4    6 1    
    10    4    7 1    
    11    5   13 am   
    12    5   16 1    
    13    7   13 1    
    14    8   21 2    
    15    8   23 1    
    16   11   27 ar   
    17   11   29 ar   
    18   12   13 2    
    19   14   25 ar   
    20   14   29 ar   
    21   15   44 2    
    22   16   19 1    
    23   17   27 1    
    24   17   30 1    
    25   18   47 2    
    26   20   44 am   
    27   20   45 1    
    28   22   46 1    
    29   22   47 am   
    30   23   25 ar   
    31   23   27 ar   
    32   24   47 am   
    33   24   48 1    
    34   26   50 1    
    35   26   51 1    
    36   26   57 1    
    37   28   56 ar   
    38   28   57 ar   
    39   29   44 1    
    40   30   31 1    
    41   31   32 1    
    42   31   33 1    
    43   32   34 ar   
    44   32   38 ar   
    45   33   39 ar   
    46   33   43 ar   
    47   34   35 ar   
    48   35   36 ar   
    49   36   37 ar   
    50   37   38 ar   
    51   39   40 ar   
    52   40   41 ar   
    53   41   42 ar   
    54   42   43 ar   
    55   45   46 1    
    56   48   49 1    
    57   48   52 1    
    58   49   50 1    
    59   51   52 1    
    60   53   54 ar   
    61   53   57 ar   
    62   54   55 ar   
    63   55   56 ar   
@<TRIPOS>SUBSTRUCTURE
     1 UKA1201     1 GROUP   
@<TRIPOS>SET

