#    Name: 6gz9_1_TXC
#    Modification time : Fri May 22 19:33:28 2020

@<TRIPOS>MOLECULE
6gz9_1_TXC
   23    24     1     0     0
SMALL
NO_CHARGES


@<TRIPOS>ATOM
      1 CG2         5.1140    4.1970  -15.1550 C.3       1 TXC501      0.0000 
      2 CB          3.7390    3.5350  -15.2240 C.3       1 TXC501      0.0000 
      3 CG1         3.3140    3.0790  -13.8440 C.3       1 TXC501      0.0000 
      4 CA          2.6310    4.3830  -15.8910 C.3       1 TXC501      0.0000 
      5 N           2.3390    5.6960  -15.3230 N.4       1 TXC501      0.0000 
      6 C           1.2300    3.6530  -15.9490 C.2       1 TXC501      0.0000 
      7 O           0.4150    3.6690  -15.0650 O.2       1 TXC501      0.0000 
      8 OAO         1.0400    3.0590  -17.1340 O.3       1 TXC501      0.0000 
      9 CAI        -0.2620    2.4560  -17.3650 C.3       1 TXC501      0.0000 
     10 CAH        -0.1820    1.4810  -18.5090 C.3       1 TXC501      0.0000 
     11 OAN        -0.7540    2.0070  -19.6940 O.3       1 TXC501      0.0000 
     12 CAJ        -2.0290    1.4990  -19.9710 C.3       1 TXC501      0.0000 
     13 N9         -3.0890    2.3390  -19.4050 N.pl3     1 TXC501      0.0000 
     14 C8         -3.1980    2.7600  -18.1150 C.2       1 TXC501      0.0000 
     15 N7         -4.1900    3.5940  -17.9170 N.2       1 TXC501      0.0000 
     16 C5         -4.7850    3.7160  -19.1650 C.2       1 TXC501      0.0000 
     17 C4         -4.1240    2.9370  -20.0760 C.2       1 TXC501      0.0000 
     18 N3         -4.5290    2.8000  -21.3850 N.2       1 TXC501      0.0000 
     19 C2         -5.6580    3.4870  -21.7440 C.2       1 TXC501      0.0000 
     20 N2         -6.1300    3.2700  -22.9700 N.pl3     1 TXC501      0.0000 
     21 N1         -6.3230    4.2870  -20.9120 N.am      1 TXC501      0.0000 
     22 C6         -5.9570    4.4720  -19.5880 C.2       1 TXC501      0.0000 
     23 O6         -6.5820    5.2350  -18.8370 O.2       1 TXC501      0.0000 
@<TRIPOS>BOND
     1    1    2 1    
     2    2    3 1    
     3    2    4 1    
     4    4    5 1    
     5    4    6 1    
     6    6    7 2    
     7    6    8 1    
     8    8    9 1    
     9    9   10 1    
    10   10   11 1    
    11   11   12 1    
    12   12   13 1    
    13   13   14 1    
    14   13   17 1    
    15   14   15 2    
    16   15   16 1    
    17   16   17 2    
    18   16   22 1    
    19   17   18 1    
    20   18   19 2    
    21   19   20 1    
    22   19   21 1    
    23   21   22 am   
    24   22   23 2    
@<TRIPOS>SUBSTRUCTURE
     1 TXC501      1 GROUP   
@<TRIPOS>SET

