#    Name: 6huo_1_08H_CAVITY_N1_4
#    Modification time : Fri May 22 19:32:10 2020

@<TRIPOS>MOLECULE
6huo_1_08H_CAVITY_N1_4
  110     0     5     0     0
SMALL
NO_CHARGES


@<TRIPOS>ATOM
      1 OG        155.1900  162.5700  155.3000 O.3       1 SER1        0.0000 
      2 OG        154.1900  159.6800  158.6000 O.3       1 SER1        0.0000 
      3 OG        154.3000  162.7300  157.2200 O.3       1 SER1        0.0000 
      4 OG        155.5000  160.1000  158.0000 O.3       1 SER1        0.0000 
      5 OG        155.6100  163.1500  156.6200 O.3       1 SER1        0.0000 
      6 OG        156.8100  160.5100  157.4000 O.3       1 SER1        0.0000 
      7 OG        157.4100  159.2000  157.7900 O.3       1 SER1        0.0000 
      8 OG        154.6100  160.2600  159.9200 O.3       1 SER1        0.0000 
      9 OG        154.1200  164.6300  158.1400 O.3       1 SER1        0.0000 
     10 OG        155.9200  160.6800  159.3200 O.3       1 SER1        0.0000 
     11 OG        154.8300  166.3700  157.1500 O.3       1 SER1        0.0000 
     12 OG        155.4300  165.0500  157.5400 O.3       1 SER1        0.0000 
     13 OG        151.9200  164.3800  160.6600 O.3       1 SER1        0.0000 
     14 OG        152.5200  163.0600  161.0500 O.3       1 SER1        0.0000 
     15 OG        153.2300  164.8000  160.0600 O.3       1 SER1        0.0000 
     16 OG        153.8300  163.4800  160.4500 O.3       1 SER1        0.0000 
     17 OG        149.8300  167.1800  161.7900 O.3       1 SER1        0.0000 
     18 OG        150.4300  165.8700  162.1900 O.3       1 SER1        0.0000 
     19 OG        151.0300  164.5500  162.5800 O.3       1 SER1        0.0000 
     20 OG        152.9400  163.6500  162.3700 O.3       1 SER1        0.0000 
     21 OG        153.5400  162.3300  162.7600 O.3       1 SER1        0.0000 
     22 OG        154.2500  164.0600  161.7700 O.3       1 SER1        0.0000 
     23 OG        150.8500  166.4500  163.5000 O.3       1 SER1        0.0000 
     24 OG        151.4500  165.1300  163.9000 O.3       1 SER1        0.0000 
     25 OG        152.0500  163.8100  164.2900 O.3       1 SER1        0.0000 
     26 OG        151.1600  163.9800  166.2100 O.3       1 SER1        0.0000 
     27 OG        153.0700  163.0800  166.0000 O.3       1 SER1        0.0000 
     28 N         153.3500  158.5200  155.9700 N.am      2 ALA2        0.0000 
     29 N         154.6600  158.9300  155.3700 N.am      2 ALA2        0.0000 
     30 N         155.2600  157.6100  155.7600 N.am      2 ALA2        0.0000 
     31 N         154.7700  161.9900  153.9800 N.am      2 ALA2        0.0000 
     32 N         155.3700  160.6700  154.3700 N.am      2 ALA2        0.0000 
     33 N         153.7700  159.1000  157.2800 N.am      2 ALA2        0.0000 
     34 N         153.8800  162.1500  155.9000 N.am      2 ALA2        0.0000 
     35 N         154.4800  160.8300  156.2900 N.am      2 ALA2        0.0000 
     36 N         155.0800  159.5100  156.6800 N.am      2 ALA2        0.0000 
     37 N         153.5900  161.0000  158.2100 N.am      2 ALA2        0.0000 
     38 N         154.5400  165.2200  159.4600 N.am      2 ALA2        0.0000 
     39 N         155.2500  166.9500  158.4700 N.am      2 ALA2        0.0000 
     40 N         155.8500  165.6300  158.8600 N.am      2 ALA2        0.0000 
     41 N         153.2500  161.1800  165.0700 N.am      2 ALA2        0.0000 
     42 N         153.8400  159.8600  165.4700 N.am      2 ALA2        0.0000 
     43 N         155.1500  160.2700  164.8600 N.am      2 ALA2        0.0000 
     44 N         151.7600  162.6600  166.6000 N.am      2 ALA2        0.0000 
     45 N         153.6600  161.7600  166.3900 N.am      2 ALA2        0.0000 
     46 CZ        151.6800  161.9000  158.4200 C.ar      3 PHE5        0.0000 
     47 CZ        152.2800  160.5800  158.8100 C.ar      3 PHE5        0.0000 
     48 CZ        152.8800  159.2600  159.2000 C.ar      3 PHE5        0.0000 
     49 CZ        152.9900  162.3200  157.8200 C.ar      3 PHE5        0.0000 
     50 CZ        151.5000  163.8000  159.3400 C.ar      3 PHE5        0.0000 
     51 CZ        152.1000  162.4800  159.7400 C.ar      3 PHE5        0.0000 
     52 CZ        152.7000  161.1600  160.1300 C.ar      3 PHE5        0.0000 
     53 CZ        153.3000  159.8500  160.5200 C.ar      3 PHE5        0.0000 
     54 CZ        152.8100  164.2200  158.7400 C.ar      3 PHE5        0.0000 
     55 CZ        153.4100  162.9000  159.1400 C.ar      3 PHE5        0.0000 
     56 CZ        150.6100  163.9700  161.2600 C.ar      3 PHE5        0.0000 
     57 CZ        151.2100  162.6500  161.6500 C.ar      3 PHE5        0.0000 
     58 CZ        152.4100  160.0100  162.4400 C.ar      3 PHE5        0.0000 
     59 CZ        151.3200  165.7000  160.2700 C.ar      3 PHE5        0.0000 
     60 CZ        153.1200  161.7500  161.4500 C.ar      3 PHE5        0.0000 
     61 CZ        153.7200  160.4300  161.8400 C.ar      3 PHE5        0.0000 
     62 CZ        152.6300  166.1200  159.6700 C.ar      3 PHE5        0.0000 
     63 CZ        155.0300  160.8400  161.2400 C.ar      3 PHE5        0.0000 
     64 CZ        153.9400  166.5300  159.0700 C.ar      3 PHE5        0.0000 
     65 CZ        150.3200  162.8100  163.5700 C.ar      3 PHE5        0.0000 
     66 CZ        150.9200  161.5000  163.9600 C.ar      3 PHE5        0.0000 
     67 CZ        151.5200  160.1800  164.3600 C.ar      3 PHE5        0.0000 
     68 CZ        151.6300  163.2300  162.9700 C.ar      3 PHE5        0.0000 
     69 CZ        152.2300  161.9100  163.3600 C.ar      3 PHE5        0.0000 
     70 CZ        152.8300  160.5900  163.7600 C.ar      3 PHE5        0.0000 
     71 CZ        154.1400  161.0100  163.1500 C.ar      3 PHE5        0.0000 
     72 CZ        154.7400  159.6900  163.5500 C.ar      3 PHE5        0.0000 
     73 CZ        155.4500  161.4300  162.5500 C.ar      3 PHE5        0.0000 
     74 CZ        151.3400  162.0800  165.2800 C.ar      3 PHE5        0.0000 
     75 CZ        151.9400  160.7600  165.6700 C.ar      3 PHE5        0.0000 
     76 CZ        152.6500  162.4900  164.6800 C.ar      3 PHE5        0.0000 
     77 CZ        153.9600  162.9100  164.0800 C.ar      3 PHE5        0.0000 
     78 CZ        154.5600  161.5900  164.4700 C.ar      3 PHE5        0.0000 
     79 CZ        155.8700  162.0100  163.8700 C.ar      3 PHE5        0.0000 
     80 CA        155.6800  158.2000  157.0800 C.3       4 GLY6        0.0000 
     81 CA        156.9900  158.6100  156.4800 C.3       4 GLY6        0.0000 
     82 CA        156.2100  161.8300  157.0100 C.3       4 GLY6        0.0000 
     83 CA        157.5200  162.2500  156.4100 C.3       4 GLY6        0.0000 
     84 CA        154.7200  163.3200  158.5300 C.3       4 GLY6        0.0000 
     85 CA        155.3200  162.0000  158.9300 C.3       4 GLY6        0.0000 
     86 CA        156.0300  163.7300  157.9300 C.3       4 GLY6        0.0000 
     87 CA        156.6300  162.4100  158.3300 C.3       4 GLY6        0.0000 
     88 CA        157.2300  161.1000  158.7200 C.3       4 GLY6        0.0000 
     89 CA        157.9400  162.8300  157.7300 C.3       4 GLY6        0.0000 
     90 CA        150.0100  165.2800  160.8700 C.3       4 GLY6        0.0000 
     91 CA        155.1400  163.9000  159.8500 C.3       4 GLY6        0.0000 
     92 CA        155.7400  162.5800  160.2400 C.3       4 GLY6        0.0000 
     93 CA        156.3400  161.2600  160.6400 C.3       4 GLY6        0.0000 
     94 CA        149.1200  165.4500  162.7900 C.3       4 GLY6        0.0000 
     95 CA        149.7200  164.1300  163.1800 C.3       4 GLY6        0.0000 
     96 CA        154.8500  162.7500  162.1600 C.3       4 GLY6        0.0000 
     97 CA        154.9600  165.8000  160.7800 C.3       4 GLY6        0.0000 
     98 CA        155.5600  164.4800  161.1700 C.3       4 GLY6        0.0000 
     99 CA        156.1600  163.1600  161.5600 C.3       4 GLY6        0.0000 
    100 CA        149.4300  162.9800  165.4900 C.3       4 GLY6        0.0000 
    101 CA        150.1400  164.7100  164.5000 C.3       4 GLY6        0.0000 
    102 CA        155.2700  163.3300  163.4800 C.3       4 GLY6        0.0000 
    103 CA        156.4600  160.6900  164.2600 C.3       4 GLY6        0.0000 
    104 DU        155.7900  161.2500  155.6900 H         5 CUB7        0.0000 
    105 DU        156.3900  159.9300  156.0800 H         5 CUB7        0.0000 
    106 DU        154.9000  161.4200  157.6100 H         5 CUB7        0.0000 
    107 DU        156.9200  163.5700  156.0200 H         5 CUB7        0.0000 
    108 DU        154.0100  161.5800  159.5300 H         5 CUB7        0.0000 
    109 DU        154.4300  162.1600  160.8400 H         5 CUB7        0.0000 
    110 DU        150.7400  163.4000  164.8900 H         5 CUB7        0.0000 
@<TRIPOS>BOND
@<TRIPOS>SUBSTRUCTURE
     1 SER1        1 GROUP   
     2 ALA2       28 GROUP   
     3 PHE5       46 GROUP   
     4 GLY6       80 GROUP   
     5 CUB7      104 GROUP   
@<TRIPOS>SET

