#    Name: 6huo_1_08H
#    Modification time : Fri May 22 19:32:09 2020

@<TRIPOS>MOLECULE
6huo_1_08H
   22    25     1     0     0
SMALL
NO_CHARGES


@<TRIPOS>ATOM
      1 CAS       153.4240  162.3310  160.3270 C.ar      1 08H501      0.0000 
      2 CAJ       153.3250  160.9730  160.0250 C.ar      1 08H501      0.0000 
      3 CAP       153.6530  160.5250  158.7650 C.ar      1 08H501      0.0000 
      4 CLAB      153.5060  158.8280  158.4080 Cl        1 08H501      0.0000 
      5 CAH       154.0840  161.3830  157.7820 C.ar      1 08H501      0.0000 
      6 CAI       154.1860  162.7330  158.0620 C.ar      1 08H501      0.0000 
      7 CAU       153.8570  163.2150  159.3240 C.ar      1 08H501      0.0000 
      8 NAV       153.9370  164.6230  159.5700 N.pl3     1 08H501      0.0000 
      9 CAR       154.8630  165.5570  159.1590 C.2       1 08H501      0.0000 
     10 CAA       156.0600  165.2510  158.3380 C.3       1 08H501      0.0000 
     11 NAM       154.5120  166.7380  159.6010 N.2       1 08H501      0.0000 
     12 NAN       153.3270  166.5940  160.3240 N.2       1 08H501      0.0000 
     13 CAT       153.0100  165.3250  160.2900 C.2       1 08H501      0.0000 
     14 CAK       151.8620  164.6360  160.9180 C.3       1 08H501      0.0000 
     15 NAL       152.3740  163.8000  162.0110 N.2       1 08H501      0.0000 
     16 CAO       153.0810  162.7760  161.7080 C.2       1 08H501      0.0000 
     17 CAQ       153.5820  161.9450  162.8380 C.ar      1 08H501      0.0000 
     18 CAF       154.8910  161.4800  162.8500 C.ar      1 08H501      0.0000 
     19 CAD       155.3480  160.6980  163.8970 C.ar      1 08H501      0.0000 
     20 CAC       154.5080  160.3730  164.9390 C.ar      1 08H501      0.0000 
     21 CAE       153.2080  160.8310  164.9390 C.ar      1 08H501      0.0000 
     22 CAG       152.7440  161.6140  163.8960 C.ar      1 08H501      0.0000 
@<TRIPOS>BOND
     1    1    2 ar   
     2    1    7 ar   
     3    1   16 1    
     4    2    3 ar   
     5    3    4 1    
     6    3    5 ar   
     7    5    6 ar   
     8    6    7 ar   
     9    7    8 1    
    10    8    9 1    
    11    8   13 1    
    12    9   10 1    
    13    9   11 2    
    14   11   12 1    
    15   12   13 2    
    16   13   14 1    
    17   14   15 1    
    18   15   16 2    
    19   16   17 1    
    20   17   18 ar   
    21   17   22 ar   
    22   18   19 ar   
    23   19   20 ar   
    24   20   21 ar   
    25   21   22 ar   
@<TRIPOS>SUBSTRUCTURE
     1 08H501      1 GROUP   
@<TRIPOS>SET

