#    Name: 6du7_7_FAD_CAVITY_N1_4
#    Modification time : Fri May 22 19:24:59 2020

@<TRIPOS>MOLECULE
6du7_7_FAD_CAVITY_N1_4
   69     0     7     0     0
SMALL
NO_CHARGES


@<TRIPOS>ATOM
      1 OG         35.7900  -84.6200    6.5100 O.3       1 SER1        0.0000 
      2 OG         44.5600  -89.4000    4.5300 O.3       1 SER1        0.0000 
      3 OG         45.1900  -90.1300    5.6800 O.3       1 SER1        0.0000 
      4 OG         44.2000  -89.5100    6.6200 O.3       1 SER1        0.0000 
      5 OG         44.8300  -90.2400    7.7700 O.3       1 SER1        0.0000 
      6 OG         45.4900  -88.2500    4.7500 O.3       1 SER1        0.0000 
      7 OG         45.1300  -88.3600    6.8400 O.3       1 SER1        0.0000 
      8 O          36.5900  -90.6800    4.1800 O.2       2 ALA2        0.0000 
      9 O          35.6000  -90.0600    5.1200 O.2       2 ALA2        0.0000 
     10 N          37.2200  -91.4100    5.3300 N.am      2 ALA2        0.0000 
     11 O          36.2300  -90.7900    6.2700 O.2       2 ALA2        0.0000 
     12 O          35.5500  -88.2800    6.2800 O.2       2 ALA2        0.0000 
     13 O          39.1400  -90.8800    4.6100 O.2       2 ALA2        0.0000 
     14 N          39.7200  -89.8400    6.9200 N.am      2 ALA2        0.0000 
     15 N          41.9700  -91.9200    8.2700 N.am      2 ALA2        0.0000 
     16 N          41.6400  -89.3100    6.1900 N.am      2 ALA2        0.0000 
     17 N          40.6600  -88.6800    7.1300 N.am      2 ALA2        0.0000 
     18 N          42.2800  -90.0400    7.3400 N.am      2 ALA2        0.0000 
     19 O          40.9600  -86.8000    6.2000 O.2       2 ALA2        0.0000 
     20 N          37.9900  -84.9300    9.0200 N.am      2 ALA2        0.0000 
     21 N          42.5800  -88.1500    6.4100 N.am      2 ALA2        0.0000 
     22 N          43.8400  -89.6100    8.7100 N.am      2 ALA2        0.0000 
     23 N          40.2700  -84.3000    6.2100 N.am      2 ALA2        0.0000 
     24 O          42.8800  -86.2700    5.4800 O.2       2 ALA2        0.0000 
     25 N          44.5000  -87.6300    5.6900 N.am      2 ALA2        0.0000 
     26 O          43.5100  -87.0000    6.6300 O.2       2 ALA2        0.0000 
     27 OD1        44.8600  -87.5200    3.6000 O.co2     3 ASP3        0.0000 
     28 OD1        43.8700  -86.9000    4.5400 O.co2     3 ASP3        0.0000 
     29 NZ         39.7700  -91.6100    5.7600 N.4       4 LYS4        0.0000 
     30 NZ         37.4700  -87.7500    5.5600 N.4       4 LYS4        0.0000 
     31 NZ         40.0800  -89.7300    4.8300 N.4       4 LYS4        0.0000 
     32 NZ         39.0900  -89.1100    5.7700 N.4       4 LYS4        0.0000 
     33 NZ         38.1000  -88.4800    6.7100 N.4       4 LYS4        0.0000 
     34 NZ         41.7000  -91.0800    5.0400 N.4       4 LYS4        0.0000 
     35 NZ         42.3300  -91.8100    6.1800 N.4       4 LYS4        0.0000 
     36 NZ         37.4200  -85.9800    6.7200 N.4       4 LYS4        0.0000 
     37 NZ         42.0000  -89.2000    4.1100 N.4       4 LYS4        0.0000 
     38 NZ         41.0100  -88.5800    5.0500 N.4       4 LYS4        0.0000 
     39 NZ         40.0200  -87.9500    5.9900 N.4       4 LYS4        0.0000 
     40 NZ         39.0400  -87.3300    6.9300 N.4       4 LYS4        0.0000 
     41 NZ         42.6300  -89.9300    5.2500 N.4       4 LYS4        0.0000 
     42 NZ         37.7200  -84.0900    5.7900 N.4       4 LYS4        0.0000 
     43 NZ         39.3400  -85.4500    6.0000 N.4       4 LYS4        0.0000 
     44 NZ         41.9500  -87.4300    5.2600 N.4       4 LYS4        0.0000 
     45 CZ         36.7800  -85.2500    5.5700 C.ar      5 PHE5        0.0000 
     46 CA         34.6100  -89.4400    6.0600 C.3       6 GLY6        0.0000 
     47 CA         35.9000  -88.1800    4.1900 C.3       6 GLY6        0.0000 
     48 CA         37.5200  -89.5300    4.4000 C.3       6 GLY6        0.0000 
     49 CA         36.5300  -88.9100    5.3400 C.3       6 GLY6        0.0000 
     50 CA         38.1500  -90.2600    5.5500 C.3       6 GLY6        0.0000 
     51 CA         37.1700  -89.6400    6.4900 C.3       6 GLY6        0.0000 
     52 CA         36.1800  -89.0100    7.4300 C.3       6 GLY6        0.0000 
     53 CA         37.8000  -90.3700    7.6400 C.3       6 GLY6        0.0000 
     54 CA         36.4800  -87.1300    6.5000 C.3       6 GLY6        0.0000 
     55 CA         37.1100  -87.8600    7.6500 C.3       6 GLY6        0.0000 
     56 CA         38.7300  -89.2100    7.8600 C.3       6 GLY6        0.0000 
     57 CA         41.3400  -91.1900    7.1200 C.3       6 GLY6        0.0000 
     58 CA         40.3500  -90.5700    8.0600 C.3       6 GLY6        0.0000 
     59 CA         36.4300  -85.3500    7.6600 C.3       6 GLY6        0.0000 
     60 CA         38.0500  -86.7100    7.8700 C.3       6 GLY6        0.0000 
     61 CA         44.2500  -91.2800    5.4600 C.3       6 GLY6        0.0000 
     62 CA         43.9000  -91.3900    7.5500 C.3       6 GLY6        0.0000 
     63 CA         38.3500  -84.8200    6.9400 C.3       6 GLY6        0.0000 
     64 CA         37.3600  -84.2000    7.8800 C.3       6 GLY6        0.0000 
     65 CA         42.9400  -88.0500    4.3200 C.3       6 GLY6        0.0000 
     66 CA         39.9700  -86.1800    7.1400 C.3       6 GLY6        0.0000 
     67 CA         38.9800  -85.5500    8.0800 C.3       6 GLY6        0.0000 
     68 DU         43.2600  -90.6600    6.4000 H         7 CUB7        0.0000 
     69 DU         43.5700  -88.7800    5.4700 H         7 CUB7        0.0000 
@<TRIPOS>BOND
@<TRIPOS>SUBSTRUCTURE
     1 SER1        1 GROUP   
     2 ALA2        8 GROUP   
     3 ASP3       27 GROUP   
     4 LYS4       29 GROUP   
     5 PHE5       45 GROUP   
     6 GLY6       46 GROUP   
     7 CUB7       68 GROUP   
@<TRIPOS>SET

