#    Name: 6du7_6_FAD
#    Modification time : Fri May 22 19:24:43 2020

@<TRIPOS>MOLECULE
6du7_6_FAD
   53    58     1     0     1
SMALL
NO_CHARGES


@<TRIPOS>ATOM
      1 PA        -45.6150   31.4680   43.8430 P.3       1 FAD501      0.0000 
      2 O1A       -45.1380   30.0410   43.7120 O.co2     1 FAD501      0.0000 
      3 O2A       -46.6140   31.9680   42.8330 O.co2     1 FAD501      0.0000 
      4 O5B       -46.2230   31.6070   45.3280 O.3       1 FAD501      0.0000 
      5 C5B       -46.9410   32.7480   45.7940 C.3       1 FAD501      0.0000 
      6 C4B       -48.0460   32.2810   46.7400 C.3       1 FAD501      0.0000 
      7 O4B       -48.3110   33.2920   47.7150 O.3       1 FAD501      0.0000 
      8 C3B       -49.3710   31.9850   46.0410 C.3       1 FAD501      0.0000 
      9 O3B       -49.7890   30.6500   46.3420 O.3       1 FAD501      0.0000 
     10 C2B       -50.3540   33.0160   46.5740 C.3       1 FAD501      0.0000 
     11 O2B       -51.6630   32.4780   46.7890 O.3       1 FAD501      0.0000 
     12 C1B       -49.7230   33.4550   47.8850 C.3       1 FAD501      0.0000 
     13 N9A       -50.0020   34.8550   48.2970 N.pl3     1 FAD501      0.0000 
     14 C8A       -49.9400   35.9740   47.5440 C.2       1 FAD501      0.0000 
     15 N7A       -50.2400   37.0730   48.2840 N.2       1 FAD501      0.0000 
     16 C5A       -50.4910   36.6620   49.5400 C.ar      1 FAD501      0.0000 
     17 C6A       -50.8680   37.2970   50.8300 C.ar      1 FAD501      0.0000 
     18 N6A       -51.0390   38.6360   50.9180 N.pl3     1 FAD501      0.0000 
     19 N1A       -51.0330   36.4910   51.9110 N.ar      1 FAD501      0.0000 
     20 C2A       -50.8600   35.1510   51.8420 C.ar      1 FAD501      0.0000 
     21 N3A       -50.5230   34.5150   50.7000 N.ar      1 FAD501      0.0000 
     22 C4A       -50.3260   35.2000   49.5420 C.ar      1 FAD501      0.0000 
     23 N1        -40.9520   27.9600   36.3080 N.2       1 FAD501      0.0000 
     24 C2        -40.0010   27.0320   36.0310 C.2       1 FAD501      0.0000 
     25 O2        -38.9030   27.1420   36.6130 O.2       1 FAD501      0.0000 
     26 N3        -40.1970   26.0140   35.1670 N.am      1 FAD501      0.0000 
     27 C4        -41.3600   25.8530   34.5150 C.2       1 FAD501      0.0000 
     28 O4        -41.5020   24.8990   33.7190 O.2       1 FAD501      0.0000 
     29 C4X       -42.4570   26.8300   34.7640 C.2       1 FAD501      0.0000 
     30 N5        -43.6590   26.7420   34.1570 N.2       1 FAD501      0.0000 
     31 C5X       -44.6430   27.6450   34.4010 C.ar      1 FAD501      0.0000 
     32 C6        -45.8580   27.4950   33.7370 C.ar      1 FAD501      0.0000 
     33 C7        -46.9010   28.3940   33.9470 C.ar      1 FAD501      0.0000 
     34 C7M       -48.2060   28.2080   33.2170 C.3       1 FAD501      0.0000 
     35 C8        -46.7130   29.5240   34.9020 C.ar      1 FAD501      0.0000 
     36 C8M       -47.8120   30.5210   35.1680 C.3       1 FAD501      0.0000 
     37 C9        -45.4990   29.6780   35.5690 C.ar      1 FAD501      0.0000 
     38 C9A       -44.4370   28.7820   35.3630 C.ar      1 FAD501      0.0000 
     39 N10       -43.1720   28.8940   36.0200 N.pl3     1 FAD501      0.0000 
     40 C10       -42.1760   27.9290   35.7270 C.2       1 FAD501      0.0000 
     41 C1'       -42.8380   29.9700   36.9740 C.3       1 FAD501      0.0000 
     42 C2'       -42.9330   29.5060   38.4220 C.3       1 FAD501      0.0000 
     43 O2'       -44.2270   28.9420   38.6680 O.3       1 FAD501      0.0000 
     44 C3'       -42.6750   30.6710   39.3770 C.3       1 FAD501      0.0000 
     45 O3'       -41.4140   31.2870   39.0660 O.3       1 FAD501      0.0000 
     46 C4'       -42.6720   30.2250   40.8370 C.3       1 FAD501      0.0000 
     47 O4'       -43.9370   29.6500   41.1890 O.3       1 FAD501      0.0000 
     48 C5'       -42.3800   31.4090   41.7470 C.3       1 FAD501      0.0000 
     49 O5'       -42.5250   31.0300   43.1070 O.3       1 FAD501      0.0000 
     50 P         -42.8630   32.1580   44.1980 P.3       1 FAD501      0.0000 
     51 O1P       -42.7790   31.5180   45.5630 O.co2     1 FAD501      0.0000 
     52 O2P       -42.0260   33.3680   43.8750 O.co2     1 FAD501      0.0000 
     53 O3P       -44.3960   32.5280   43.8590 O.3       1 FAD501      0.0000 
@<TRIPOS>BOND
     1    1    2 ar   
     2    1    3 ar   
     3    1    4 1    
     4    1   53 1    
     5    4    5 1    
     6    5    6 1    
     7    6    7 1    
     8    6    8 1    
     9    7   12 1    
    10    8    9 1    
    11    8   10 1    
    12   10   11 1    
    13   10   12 1    
    14   12   13 1    
    15   13   14 1    
    16   13   22 1    
    17   14   15 2    
    18   15   16 1    
    19   16   17 ar   
    20   16   22 ar   
    21   17   18 1    
    22   17   19 ar   
    23   19   20 ar   
    24   20   21 ar   
    25   21   22 ar   
    26   23   24 1    
    27   23   40 2    
    28   24   25 2    
    29   24   26 am   
    30   26   27 am   
    31   27   28 2    
    32   27   29 1    
    33   29   30 2    
    34   29   40 1    
    35   30   31 1    
    36   31   32 ar   
    37   31   38 ar   
    38   32   33 ar   
    39   33   34 1    
    40   33   35 ar   
    41   35   36 1    
    42   35   37 ar   
    43   37   38 ar   
    44   38   39 1    
    45   39   40 1    
    46   39   41 1    
    47   41   42 1    
    48   42   43 1    
    49   42   44 1    
    50   44   45 1    
    51   44   46 1    
    52   46   47 1    
    53   46   48 1    
    54   48   49 1    
    55   49   50 1    
    56   50   51 ar   
    57   50   52 ar   
    58   50   53 1    
@<TRIPOS>SUBSTRUCTURE
     1 FAD501      1 GROUP   
@<TRIPOS>SET
ATOM$ORANGE STATIC     ATOMS   COLORGROUP SYSTEM 
54 5 5 6 6 8 8 10 10 12 12 14 14 16 16 17 17 20 \
20 22 22 24 24 27 27 29 29 31 31 32 32 33 33 34 34 35 \
35 36 36 37 37 38 38 40 40 41 41 42 42 44 44 46 46 48 \
48 

