#    Name: 6du7_6_FAD_CAVITY_N1_ALL
#    Modification time : Fri May 22 19:24:45 2020

@<TRIPOS>MOLECULE
6du7_6_FAD_CAVITY_N1_ALL
   70     0     6     0     0
SMALL
NO_CHARGES


@<TRIPOS>ATOM
      1 OG        -44.5000   27.9800   34.0600 O.3       1 SER1        0.0000 
      2 OG        -44.5500   29.7600   35.2200 O.3       1 SER1        0.0000 
      3 OG        -41.9400   27.7800   34.4900 O.3       1 SER1        0.0000 
      4 OG        -42.9300   28.4000   35.4300 O.3       1 SER1        0.0000 
      5 OG        -43.9200   29.0300   36.3700 O.3       1 SER1        0.0000 
      6 OG        -43.6400   28.1900   39.6100 O.3       1 SER1        0.0000 
      7 OG        -41.0100   28.9300   34.7100 O.3       1 SER1        0.0000 
      8 OG        -41.9900   29.5600   35.6500 O.3       1 SER1        0.0000 
      9 OG        -42.9800   30.1800   36.5900 O.3       1 SER1        0.0000 
     10 OG        -42.3500   29.4500   37.7400 O.3       1 SER1        0.0000 
     11 OG        -43.3400   30.0700   38.6800 O.3       1 SER1        0.0000 
     12 OG        -42.7100   29.3400   39.8200 O.3       1 SER1        0.0000 
     13 OG        -43.7000   29.9700   40.7600 O.3       1 SER1        0.0000 
     14 OG        -45.6700   31.2200   42.6500 O.3       1 SER1        0.0000 
     15 OG        -46.6600   31.8400   43.5900 O.3       1 SER1        0.0000 
     16 OG        -43.0600   29.2400   41.9100 O.3       1 SER1        0.0000 
     17 OG        -44.0500   29.8600   42.8500 O.3       1 SER1        0.0000 
     18 OG        -42.1300   30.3900   42.1300 O.3       1 SER1        0.0000 
     19 OG        -43.1200   31.0100   43.0700 O.3       1 SER1        0.0000 
     20 O         -43.8600   27.2500   35.2100 O.2       2 ALA2        0.0000 
     21 O         -44.8500   27.8700   36.1500 O.2       2 ALA2        0.0000 
     22 N         -42.2400   25.9000   35.4200 N.am      2 ALA2        0.0000 
     23 N         -40.3200   26.4300   34.7000 N.am      2 ALA2        0.0000 
     24 N         -41.3100   27.0500   35.6400 N.am      2 ALA2        0.0000 
     25 N         -42.3000   27.6700   36.5800 N.am      2 ALA2        0.0000 
     26 N         -43.2900   28.3000   37.5200 N.am      2 ALA2        0.0000 
     27 N         -40.6800   26.3200   36.7900 N.am      2 ALA2        0.0000 
     28 O         -44.6300   28.8200   40.5500 O.2       2 ALA2        0.0000 
     29 O         -41.3600   28.8300   36.8000 O.2       2 ALA2        0.0000 
     30 O         -45.0400   30.4900   43.7900 O.2       2 ALA2        0.0000 
     31 N         -41.4200   30.6000   37.9500 N.am      2 ALA2        0.0000 
     32 O         -44.1100   31.6400   44.0100 O.2       2 ALA2        0.0000 
     33 O         -42.4900   30.2800   44.2200 O.2       2 ALA2        0.0000 
     34 O         -43.4700   30.9100   45.1600 O.2       2 ALA2        0.0000 
     35 O         -42.1800   32.1700   43.2900 O.2       2 ALA2        0.0000 
     36 N         -44.1600   33.4100   45.1700 N.am      2 ALA2        0.0000 
     37 O         -41.5500   31.4400   44.4400 O.2       2 ALA2        0.0000 
     38 O         -42.5400   32.0600   45.3800 O.2       2 ALA2        0.0000 
     39 O         -41.2500   33.3200   43.5100 O.2       2 ALA2        0.0000 
     40 OD1       -41.8900   26.0000   33.3300 O.co2     3 ASP3        0.0000 
     41 OD1       -42.8800   26.6300   34.2700 O.co2     3 ASP3        0.0000 
     42 NZ        -43.9700   30.8000   37.5300 N.4       4 LYS4        0.0000 
     43 NZ        -42.4000   31.2300   38.8900 N.4       4 LYS4        0.0000 
     44 NZ        -41.7700   30.5000   40.0400 N.4       4 LYS4        0.0000 
     45 NZ        -42.7600   31.1200   40.9800 N.4       4 LYS4        0.0000 
     46 NZ        -43.7500   31.7400   41.9200 N.4       4 LYS4        0.0000 
     47 NZ        -42.8100   32.9000   42.1400 N.4       4 LYS4        0.0000 
     48 CZ        -45.1300   28.7100   32.9200 C.ar      5 PHE5        0.0000 
     49 CZ        -43.5100   27.3600   33.1200 C.ar      5 PHE5        0.0000 
     50 CZ        -40.9500   27.1600   33.5500 C.ar      5 PHE5        0.0000 
     51 CA        -46.0600   27.5600   32.7000 C.3       6 GLY6        0.0000 
     52 CA        -45.4300   26.8300   33.8500 C.3       6 GLY6        0.0000 
     53 CA        -46.4200   27.4500   34.7900 C.3       6 GLY6        0.0000 
     54 CA        -46.1200   29.3300   33.8600 C.3       6 GLY6        0.0000 
     55 CA        -47.1000   29.9600   34.8000 C.3       6 GLY6        0.0000 
     56 CA        -45.8400   28.5000   37.0900 C.3       6 GLY6        0.0000 
     57 CA        -45.5400   30.3800   36.1600 C.3       6 GLY6        0.0000 
     58 CA        -44.9100   29.6500   37.3100 C.3       6 GLY6        0.0000 
     59 CA        -44.2700   28.9200   38.4600 C.3       6 GLY6        0.0000 
     60 CA        -40.3700   28.2000   35.8600 C.3       6 GLY6        0.0000 
     61 CA        -44.3300   30.7000   39.6200 C.3       6 GLY6        0.0000 
     62 CA        -46.0300   31.1100   44.7300 C.3       6 GLY6        0.0000 
     63 CA        -44.7400   32.3700   42.8600 C.3       6 GLY6        0.0000 
     64 CA        -45.7300   32.9900   43.8000 C.3       6 GLY6        0.0000 
     65 CA        -45.0900   32.2600   44.9500 C.3       6 GLY6        0.0000 
     66 CA        -43.8000   33.5200   43.0800 C.3       6 GLY6        0.0000 
     67 CA        -41.1900   31.5400   42.3500 C.3       6 GLY6        0.0000 
     68 CA        -43.1700   32.7900   44.2300 C.3       6 GLY6        0.0000 
     69 CA        -40.6200   32.5900   44.6600 C.3       6 GLY6        0.0000 
     70 CA        -41.6100   33.2100   45.6000 C.3       6 GLY6        0.0000 
@<TRIPOS>BOND
@<TRIPOS>SUBSTRUCTURE
     1 SER1        1 GROUP   
     2 ALA2       20 GROUP   
     3 ASP3       40 GROUP   
     4 LYS4       42 GROUP   
     5 PHE5       48 GROUP   
     6 GLY6       51 GROUP   
@<TRIPOS>SET

