#    Name: 6du7_1_FAD
#    Modification time : Fri May 22 19:24:02 2020

@<TRIPOS>MOLECULE
6du7_1_FAD
   53    58     1     0     1
SMALL
NO_CHARGES


@<TRIPOS>ATOM
      1 PA        -15.3660   -0.5640   12.1420 P.3       1 FAD501      0.0000 
      2 O1A       -16.3080    0.6160   12.1380 O.co2     1 FAD501      0.0000 
      3 O2A       -15.8880   -1.9280   12.5150 O.co2     1 FAD501      0.0000 
      4 O5B       -14.7740   -0.6450   10.6590 O.3       1 FAD501      0.0000 
      5 C5B       -13.8510   -1.6460   10.2550 C.3       1 FAD501      0.0000 
      6 C4B       -14.0230   -1.8270    8.7550 C.3       1 FAD501      0.0000 
      7 O4B       -12.8280   -2.3480    8.1800 O.3       1 FAD501      0.0000 
      8 C3B       -15.1490   -2.7880    8.3930 C.3       1 FAD501      0.0000 
      9 O3B       -16.0620   -2.1280    7.5160 O.3       1 FAD501      0.0000 
     10 C2B       -14.4680   -3.9510    7.7010 C.3       1 FAD501      0.0000 
     11 O2B       -15.2600   -4.4750    6.6320 O.3       1 FAD501      0.0000 
     12 C1B       -13.1810   -3.3200    7.1960 C.3       1 FAD501      0.0000 
     13 N9A       -12.0370   -4.2440    7.0040 N.pl3     1 FAD501      0.0000 
     14 C8A       -11.5680   -5.1650    7.8680 C.2       1 FAD501      0.0000 
     15 N7A       -10.4880   -5.8060    7.3500 N.2       1 FAD501      0.0000 
     16 C5A       -10.2520   -5.2830    6.1350 C.ar      1 FAD501      0.0000 
     17 C6A        -9.2680   -5.4970    5.0440 C.ar      1 FAD501      0.0000 
     18 N6A        -8.2910   -6.4300    5.1600 N.pl3     1 FAD501      0.0000 
     19 N1A        -9.3860   -4.7250    3.9320 N.ar      1 FAD501      0.0000 
     20 C2A       -10.3530   -3.7840    3.7980 C.ar      1 FAD501      0.0000 
     21 N3A       -11.2760   -3.5460    4.7520 N.ar      1 FAD501      0.0000 
     22 C4A       -11.2740   -4.2470    5.9160 C.ar      1 FAD501      0.0000 
     23 N1        -20.2650    2.3470   19.7830 N.2       1 FAD501      0.0000 
     24 C2        -20.7880    3.4830   20.3190 C.2       1 FAD501      0.0000 
     25 O2        -20.0270    4.4540   20.5080 O.2       1 FAD501      0.0000 
     26 N3        -22.0920    3.6010   20.6470 N.am      1 FAD501      0.0000 
     27 C4        -22.9600    2.5920   20.4650 C.2       1 FAD501      0.0000 
     28 O4        -24.1600    2.7370   20.7790 O.2       1 FAD501      0.0000 
     29 C4X       -22.4660    1.3090   19.8840 C.2       1 FAD501      0.0000 
     30 N5        -23.2770    0.2470   19.6680 N.2       1 FAD501      0.0000 
     31 C5X       -22.8130   -0.9080   19.1360 C.ar      1 FAD501      0.0000 
     32 C6        -23.7090   -1.9610   18.9430 C.ar      1 FAD501      0.0000 
     33 C7        -23.2760   -3.1700   18.4010 C.ar      1 FAD501      0.0000 
     34 C7M       -24.2420   -4.3050   18.1930 C.3       1 FAD501      0.0000 
     35 C8        -21.8450   -3.3330   18.0250 C.ar      1 FAD501      0.0000 
     36 C8M       -21.3540   -4.6300   17.4340 C.3       1 FAD501      0.0000 
     37 C9        -20.9440   -2.2830   18.2180 C.ar      1 FAD501      0.0000 
     38 C9A       -21.3620   -1.0560   18.7630 C.ar      1 FAD501      0.0000 
     39 N10       -20.4860    0.0560   18.9790 N.pl3     1 FAD501      0.0000 
     40 C10       -21.0210    1.2430   19.5410 C.2       1 FAD501      0.0000 
     41 C1'       -19.0430    0.0260   18.6770 C.3       1 FAD501      0.0000 
     42 C2'       -18.6930    0.7340   17.3810 C.3       1 FAD501      0.0000 
     43 O2'       -19.5320    0.2530   16.3290 O.3       1 FAD501      0.0000 
     44 C3'       -17.2290    0.4820   17.0310 C.3       1 FAD501      0.0000 
     45 O3'       -16.3930    0.7910   18.1550 O.3       1 FAD501      0.0000 
     46 C4'       -16.7620    1.3160   15.8490 C.3       1 FAD501      0.0000 
     47 O4'       -17.5550    1.0450   14.6830 O.3       1 FAD501      0.0000 
     48 C5'       -15.2960    1.0110   15.5750 C.3       1 FAD501      0.0000 
     49 O5'       -14.8810    1.6680   14.3880 O.3       1 FAD501      0.0000 
     50 P         -13.5810    1.1270   13.6280 P.3       1 FAD501      0.0000 
     51 O1P       -13.2830    2.0930   12.5100 O.co2     1 FAD501      0.0000 
     52 O2P       -12.5330    0.8390   14.6740 O.co2     1 FAD501      0.0000 
     53 O3P       -14.0370   -0.2980   13.0230 O.3       1 FAD501      0.0000 
@<TRIPOS>BOND
     1    1    2 ar   
     2    1    3 ar   
     3    1    4 1    
     4    1   53 1    
     5    4    5 1    
     6    5    6 1    
     7    6    7 1    
     8    6    8 1    
     9    7   12 1    
    10    8    9 1    
    11    8   10 1    
    12   10   11 1    
    13   10   12 1    
    14   12   13 1    
    15   13   14 1    
    16   13   22 1    
    17   14   15 2    
    18   15   16 1    
    19   16   17 ar   
    20   16   22 ar   
    21   17   18 1    
    22   17   19 ar   
    23   19   20 ar   
    24   20   21 ar   
    25   21   22 ar   
    26   23   24 1    
    27   23   40 2    
    28   24   25 2    
    29   24   26 am   
    30   26   27 am   
    31   27   28 2    
    32   27   29 1    
    33   29   30 2    
    34   29   40 1    
    35   30   31 1    
    36   31   32 ar   
    37   31   38 ar   
    38   32   33 ar   
    39   33   34 1    
    40   33   35 ar   
    41   35   36 1    
    42   35   37 ar   
    43   37   38 ar   
    44   38   39 1    
    45   39   40 1    
    46   39   41 1    
    47   41   42 1    
    48   42   43 1    
    49   42   44 1    
    50   44   45 1    
    51   44   46 1    
    52   46   47 1    
    53   46   48 1    
    54   48   49 1    
    55   49   50 1    
    56   50   51 ar   
    57   50   52 ar   
    58   50   53 1    
@<TRIPOS>SUBSTRUCTURE
     1 FAD501      1 GROUP   
@<TRIPOS>SET
ATOM$ORANGE STATIC     ATOMS   COLORGROUP SYSTEM 
54 5 5 6 6 8 8 10 10 12 12 14 14 16 16 17 17 20 \
20 22 22 24 24 27 27 29 29 31 31 32 32 33 33 34 34 35 \
35 36 36 37 37 38 38 40 40 41 41 42 42 44 44 46 46 48 \
48 

