#    Name: 6du7_3_FAD
#    Modification time : Fri May 22 19:24:16 2020

@<TRIPOS>MOLECULE
6du7_3_FAD
   53    58     1     0     1
SMALL
NO_CHARGES


@<TRIPOS>ATOM
      1 PA          7.1480    1.8300   58.4350 P.3       1 FAD501      0.0000 
      2 O1A         7.7820    0.4660   58.5620 O.co2     1 FAD501      0.0000 
      3 O2A         5.8470    2.0950   59.1590 O.co2     1 FAD501      0.0000 
      4 O5B         8.2530    2.8940   58.9210 O.3       1 FAD501      0.0000 
      5 C5B         7.9700    4.2680   59.1560 C.3       1 FAD501      0.0000 
      6 C4B         8.7750    4.7320   60.3640 C.3       1 FAD501      0.0000 
      7 O4B         9.1540    6.0970   60.1840 O.3       1 FAD501      0.0000 
      8 C3B         7.9990    4.6540   61.6770 C.3       1 FAD501      0.0000 
      9 O3B         8.7690    3.9450   62.6560 O.3       1 FAD501      0.0000 
     10 C2B         7.7680    6.1020   62.0820 C.3       1 FAD501      0.0000 
     11 O2B         7.7990    6.2860   63.5010 O.3       1 FAD501      0.0000 
     12 C1B         8.9120    6.8250   61.3880 C.3       1 FAD501      0.0000 
     13 N9A         8.6660    8.2570   61.0710 N.pl3     1 FAD501      0.0000 
     14 C8A         7.5700    8.8200   60.5250 C.2       1 FAD501      0.0000 
     15 N7A         7.7350   10.1620   60.3790 N.2       1 FAD501      0.0000 
     16 C5A         8.9610   10.4720   60.8330 C.ar      1 FAD501      0.0000 
     17 C6A         9.7840   11.6990   60.9720 C.ar      1 FAD501      0.0000 
     18 N6A         9.3070   12.9030   60.5840 N.pl3     1 FAD501      0.0000 
     19 N1A        11.0270   11.5700   61.5010 N.ar      1 FAD501      0.0000 
     20 C2A        11.5230   10.3740   61.8910 C.ar      1 FAD501      0.0000 
     21 N3A        10.8240    9.2270   61.7920 N.ar      1 FAD501      0.0000 
     22 C4A         9.5690    9.2110   61.2820 C.ar      1 FAD501      0.0000 
     23 N1          3.0100   -6.1340   55.3750 N.2       1 FAD501      0.0000 
     24 C2          3.3450   -7.3670   54.9060 C.2       1 FAD501      0.0000 
     25 O2          4.1070   -7.4410   53.9160 O.2       1 FAD501      0.0000 
     26 N3          2.8880   -8.5080   55.4680 N.am      1 FAD501      0.0000 
     27 C4          2.0720   -8.4940   56.5310 C.2       1 FAD501      0.0000 
     28 O4          1.6650   -9.5650   57.0290 O.2       1 FAD501      0.0000 
     29 C4X         1.6570   -7.1850   57.1020 C.2       1 FAD501      0.0000 
     30 N5          0.8350   -7.0930   58.1720 N.2       1 FAD501      0.0000 
     31 C5X         0.4640   -5.8940   58.6850 C.ar      1 FAD501      0.0000 
     32 C6         -0.3860   -5.8790   59.7910 C.ar      1 FAD501      0.0000 
     33 C7         -0.8000   -4.6720   60.3540 C.ar      1 FAD501      0.0000 
     34 C7M        -1.7170   -4.6690   61.5490 C.3       1 FAD501      0.0000 
     35 C8         -0.3150   -3.3890   59.7750 C.ar      1 FAD501      0.0000 
     36 C8M        -0.7410   -2.0690   60.3640 C.3       1 FAD501      0.0000 
     37 C9          0.5350   -3.4000   58.6660 C.ar      1 FAD501      0.0000 
     38 C9A         0.9590   -4.6070   58.0810 C.ar      1 FAD501      0.0000 
     39 N10         1.8360   -4.6820   56.9510 N.pl3     1 FAD501      0.0000 
     40 C10         2.1860   -5.9630   56.4430 C.2       1 FAD501      0.0000 
     41 C1'         2.3600   -3.4950   56.2480 C.3       1 FAD501      0.0000 
     42 C2'         3.8010   -3.1710   56.5810 C.3       1 FAD501      0.0000 
     43 O2'         3.9330   -3.0130   57.9950 O.3       1 FAD501      0.0000 
     44 C3'         4.2000   -1.8890   55.8620 C.3       1 FAD501      0.0000 
     45 O3'         3.9690   -2.0400   54.4550 O.3       1 FAD501      0.0000 
     46 C4'         5.6610   -1.5300   56.1040 C.3       1 FAD501      0.0000 
     47 O4'         5.8530   -1.2820   57.5010 O.3       1 FAD501      0.0000 
     48 C5'         6.0740   -0.2940   55.3160 C.3       1 FAD501      0.0000 
     49 O5'         7.4140    0.0570   55.6450 O.3       1 FAD501      0.0000 
     50 P           7.8630    1.5980   55.6960 P.3       1 FAD501      0.0000 
     51 O1P         9.3200    1.6490   56.0890 O.co2     1 FAD501      0.0000 
     52 O2P         7.4040    2.2340   54.4140 O.co2     1 FAD501      0.0000 
     53 O3P         6.9560    2.2140   56.8800 O.3       1 FAD501      0.0000 
@<TRIPOS>BOND
     1    1    2 ar   
     2    1    3 ar   
     3    1    4 1    
     4    1   53 1    
     5    4    5 1    
     6    5    6 1    
     7    6    7 1    
     8    6    8 1    
     9    7   12 1    
    10    8    9 1    
    11    8   10 1    
    12   10   11 1    
    13   10   12 1    
    14   12   13 1    
    15   13   14 1    
    16   13   22 1    
    17   14   15 2    
    18   15   16 1    
    19   16   17 ar   
    20   16   22 ar   
    21   17   18 1    
    22   17   19 ar   
    23   19   20 ar   
    24   20   21 ar   
    25   21   22 ar   
    26   23   24 1    
    27   23   40 2    
    28   24   25 2    
    29   24   26 am   
    30   26   27 am   
    31   27   28 2    
    32   27   29 1    
    33   29   30 2    
    34   29   40 1    
    35   30   31 1    
    36   31   32 ar   
    37   31   38 ar   
    38   32   33 ar   
    39   33   34 1    
    40   33   35 ar   
    41   35   36 1    
    42   35   37 ar   
    43   37   38 ar   
    44   38   39 1    
    45   39   40 1    
    46   39   41 1    
    47   41   42 1    
    48   42   43 1    
    49   42   44 1    
    50   44   45 1    
    51   44   46 1    
    52   46   47 1    
    53   46   48 1    
    54   48   49 1    
    55   49   50 1    
    56   50   51 ar   
    57   50   52 ar   
    58   50   53 1    
@<TRIPOS>SUBSTRUCTURE
     1 FAD501      1 GROUP   
@<TRIPOS>SET
ATOM$ORANGE STATIC     ATOMS   COLORGROUP SYSTEM 
54 5 5 6 6 8 8 10 10 12 12 14 14 16 16 17 17 20 \
20 22 22 24 24 27 27 29 29 31 31 32 32 33 33 34 34 35 \
35 36 36 37 37 38 38 40 40 41 41 42 42 44 44 46 46 48 \
48 

