#    Name: 6du7_8_FAD
#    Modification time : Fri May 22 19:25:11 2020

@<TRIPOS>MOLECULE
6du7_8_FAD
   53    58     1     0     1
SMALL
NO_CHARGES


@<TRIPOS>ATOM
      1 PA         91.5330 -115.2050   24.9820 P.3       1 FAD501      0.0000 
      2 O1A        90.8960 -113.8590   24.7300 O.co2     1 FAD501      0.0000 
      3 O2A        91.8680 -116.0700   23.7910 O.co2     1 FAD501      0.0000 
      4 O5B        92.8630 -114.9410   25.8510 O.3       1 FAD501      0.0000 
      5 C5B        93.9000 -115.9060   26.0020 C.3       1 FAD501      0.0000 
      6 C4B        95.2550 -115.2200   25.8710 C.3       1 FAD501      0.0000 
      7 O4B        96.1950 -115.8960   26.7040 O.3       1 FAD501      0.0000 
      8 C3B        95.8300 -115.2490   24.4580 C.3       1 FAD501      0.0000 
      9 O3B        96.2680 -113.9380   24.0890 O.3       1 FAD501      0.0000 
     10 C2B        97.0050 -116.2030   24.5150 C.3       1 FAD501      0.0000 
     11 O2B        98.0850 -115.7860   23.6770 O.3       1 FAD501      0.0000 
     12 C1B        97.4010 -116.1540   25.9800 C.3       1 FAD501      0.0000 
     13 N9A        98.0420 -117.3810   26.5210 N.pl3     1 FAD501      0.0000 
     14 C8A        97.6980 -118.6690   26.3070 C.2       1 FAD501      0.0000 
     15 N7A        98.5170 -119.5050   26.9950 N.2       1 FAD501      0.0000 
     16 C5A        99.3990 -118.7460   27.6700 C.ar      1 FAD501      0.0000 
     17 C6A       100.5390 -118.9780   28.5900 C.ar      1 FAD501      0.0000 
     18 N6A       100.9040 -120.2360   28.9330 N.pl3     1 FAD501      0.0000 
     19 N1A       101.1970 -117.8910   29.0710 N.ar      1 FAD501      0.0000 
     20 C2A       100.8450 -116.6270   28.7410 C.ar      1 FAD501      0.0000 
     21 N3A        99.8200 -116.3530   27.9110 N.ar      1 FAD501      0.0000 
     22 C4A        99.0770 -117.3460   27.3560 C.ar      1 FAD501      0.0000 
     23 N1         82.8460 -114.0400   21.0990 N.2       1 FAD501      0.0000 
     24 C2         81.8110 -113.1570   21.1320 C.2       1 FAD501      0.0000 
     25 O2         81.2780 -112.9060   22.2360 O.2       1 FAD501      0.0000 
     26 N3         81.3430 -112.5430   20.0250 N.am      1 FAD501      0.0000 
     27 C4         81.8700 -112.7700   18.8120 C.2       1 FAD501      0.0000 
     28 O4         81.4130 -112.1870   17.8050 O.2       1 FAD501      0.0000 
     29 C4X        83.0030 -113.7280   18.6940 C.2       1 FAD501      0.0000 
     30 N5         83.5870 -114.0070   17.5100 N.2       1 FAD501      0.0000 
     31 C5X        84.6200 -114.8770   17.4120 C.ar      1 FAD501      0.0000 
     32 C6         85.1640 -115.1090   16.1520 C.ar      1 FAD501      0.0000 
     33 C7         86.2240 -115.9960   15.9840 C.ar      1 FAD501      0.0000 
     34 C7M        86.7950 -116.2250   14.6090 C.3       1 FAD501      0.0000 
     35 C8         86.7850 -116.6940   17.1750 C.ar      1 FAD501      0.0000 
     36 C8M        87.9370 -117.6580   17.0330 C.3       1 FAD501      0.0000 
     37 C9         86.2390 -116.4640   18.4410 C.ar      1 FAD501      0.0000 
     38 C9A        85.1670 -115.5730   18.6250 C.ar      1 FAD501      0.0000 
     39 N10        84.5640 -115.2920   19.8950 N.pl3     1 FAD501      0.0000 
     40 C10        83.4800 -114.3730   19.9450 C.2       1 FAD501      0.0000 
     41 C1'        84.9940 -115.9180   21.1540 C.3       1 FAD501      0.0000 
     42 C2'        85.8460 -114.9710   21.9890 C.3       1 FAD501      0.0000 
     43 O2'        86.8650 -114.3680   21.1800 O.3       1 FAD501      0.0000 
     44 C3'        86.4720 -115.7280   23.1570 C.3       1 FAD501      0.0000 
     45 O3'        85.4520 -116.4520   23.8620 O.3       1 FAD501      0.0000 
     46 C4'        87.1790 -114.7770   24.1170 C.3       1 FAD501      0.0000 
     47 O4'        88.2780 -114.1440   23.4500 O.3       1 FAD501      0.0000 
     48 C5'        87.6780 -115.5260   25.3430 C.3       1 FAD501      0.0000 
     49 O5'        88.5200 -114.6950   26.1270 O.3       1 FAD501      0.0000 
     50 P          89.6250 -115.3810   27.0650 P.3       1 FAD501      0.0000 
     51 O1P        90.3520 -114.2930   27.8200 O.co2     1 FAD501      0.0000 
     52 O2P        88.9490 -116.5030   27.8110 O.co2     1 FAD501      0.0000 
     53 O3P        90.6230 -116.0590   25.9990 O.3       1 FAD501      0.0000 
@<TRIPOS>BOND
     1    1    2 ar   
     2    1    3 ar   
     3    1    4 1    
     4    1   53 1    
     5    4    5 1    
     6    5    6 1    
     7    6    7 1    
     8    6    8 1    
     9    7   12 1    
    10    8    9 1    
    11    8   10 1    
    12   10   11 1    
    13   10   12 1    
    14   12   13 1    
    15   13   14 1    
    16   13   22 1    
    17   14   15 2    
    18   15   16 1    
    19   16   17 ar   
    20   16   22 ar   
    21   17   18 1    
    22   17   19 ar   
    23   19   20 ar   
    24   20   21 ar   
    25   21   22 ar   
    26   23   24 1    
    27   23   40 2    
    28   24   25 2    
    29   24   26 am   
    30   26   27 am   
    31   27   28 2    
    32   27   29 1    
    33   29   30 2    
    34   29   40 1    
    35   30   31 1    
    36   31   32 ar   
    37   31   38 ar   
    38   32   33 ar   
    39   33   34 1    
    40   33   35 ar   
    41   35   36 1    
    42   35   37 ar   
    43   37   38 ar   
    44   38   39 1    
    45   39   40 1    
    46   39   41 1    
    47   41   42 1    
    48   42   43 1    
    49   42   44 1    
    50   44   45 1    
    51   44   46 1    
    52   46   47 1    
    53   46   48 1    
    54   48   49 1    
    55   49   50 1    
    56   50   51 ar   
    57   50   52 ar   
    58   50   53 1    
@<TRIPOS>SUBSTRUCTURE
     1 FAD501      1 GROUP   
@<TRIPOS>SET
ATOM$ORANGE STATIC     ATOMS   COLORGROUP SYSTEM 
54 5 5 6 6 8 8 10 10 12 12 14 14 16 16 17 17 20 \
20 22 22 24 24 27 27 29 29 31 31 32 32 33 33 34 34 35 \
35 36 36 37 37 38 38 40 40 41 41 42 42 44 44 46 46 48 \
48 

