#    Name: 6du7_5_FAD
#    Modification time : Fri May 22 19:24:29 2020

@<TRIPOS>MOLECULE
6du7_5_FAD
   53    58     1     0     1
SMALL
NO_CHARGES


@<TRIPOS>ATOM
      1 PA         54.9740  -77.5400   57.6340 P.3       1 FAD501      0.0000 
      2 O1A        54.4790  -76.1150   57.6520 O.co2     1 FAD501      0.0000 
      3 O2A        56.4340  -77.8050   57.3670 O.co2     1 FAD501      0.0000 
      4 O5B        54.6220  -78.1760   59.0700 O.3       1 FAD501      0.0000 
      5 C5B        55.0250  -79.4830   59.4800 C.3       1 FAD501      0.0000 
      6 C4B        55.1780  -79.4890   61.0000 C.3       1 FAD501      0.0000 
      7 O4B        54.9650  -80.8000   61.5340 O.3       1 FAD501      0.0000 
      8 C3B        56.5670  -79.0490   61.4490 C.3       1 FAD501      0.0000 
      9 O3B        56.4410  -77.9890   62.4040 O.3       1 FAD501      0.0000 
     10 C2B        57.2050  -80.2950   62.0400 C.3       1 FAD501      0.0000 
     11 O2B        58.0610  -80.0100   63.1490 O.3       1 FAD501      0.0000 
     12 C1B        56.0030  -81.1250   62.4640 C.3       1 FAD501      0.0000 
     13 N9A        56.1980  -82.6010   62.4830 N.pl3     1 FAD501      0.0000 
     14 C8A        56.8550  -83.3750   61.5920 C.2       1 FAD501      0.0000 
     15 N7A        56.7900  -84.6840   61.9490 N.2       1 FAD501      0.0000 
     16 C5A        56.0720  -84.7640   63.0820 C.ar      1 FAD501      0.0000 
     17 C6A        55.6160  -85.8390   64.0010 C.ar      1 FAD501      0.0000 
     18 N6A        55.9280  -87.1340   63.7650 N.pl3     1 FAD501      0.0000 
     19 N1A        54.8770  -85.4800   65.0810 N.ar      1 FAD501      0.0000 
     20 C2A        54.5550  -84.1920   65.3360 C.ar      1 FAD501      0.0000 
     21 N3A        54.9410  -83.1720   64.5420 N.ar      1 FAD501      0.0000 
     22 C4A        55.6820  -83.3880   63.4250 C.ar      1 FAD501      0.0000 
     23 N1         55.5890  -71.0680   50.5100 N.2       1 FAD501      0.0000 
     24 C2         54.9060  -69.9980   50.0010 C.2       1 FAD501      0.0000 
     25 O2         53.7030  -70.1330   49.6800 O.2       1 FAD501      0.0000 
     26 N3         55.4740  -68.7880   49.8260 N.am      1 FAD501      0.0000 
     27 C4         56.7550  -68.5560   50.1460 C.2       1 FAD501      0.0000 
     28 O4         57.2530  -67.4210   49.9790 O.2       1 FAD501      0.0000 
     29 C4X        57.5680  -69.6700   50.7050 C.2       1 FAD501      0.0000 
     30 N5         58.8630  -69.5010   51.0450 N.2       1 FAD501      0.0000 
     31 C5X        59.5970  -70.5180   51.5550 C.ar      1 FAD501      0.0000 
     32 C6         60.9260  -70.2670   51.8820 C.ar      1 FAD501      0.0000 
     33 C7         61.7310  -71.2740   52.4080 C.ar      1 FAD501      0.0000 
     34 C7M        63.1660  -70.9870   52.7580 C.3       1 FAD501      0.0000 
     35 C8         61.1580  -72.6280   52.6300 C.ar      1 FAD501      0.0000 
     36 C8M        62.0170  -73.7260   53.2000 C.3       1 FAD501      0.0000 
     37 C9         59.8250  -72.8870   52.3010 C.ar      1 FAD501      0.0000 
     38 C9A        58.9990  -71.8810   51.7670 C.ar      1 FAD501      0.0000 
     39 N10        57.6290  -72.0820   51.4130 N.pl3     1 FAD501      0.0000 
     40 C10        56.8960  -70.9850   50.8760 C.2       1 FAD501      0.0000 
     41 C1'        56.9500  -73.3810   51.5580 C.3       1 FAD501      0.0000 
     42 C2'        56.1490  -73.4900   52.8480 C.3       1 FAD501      0.0000 
     43 O2'        57.0020  -73.2580   53.9730 O.3       1 FAD501      0.0000 
     44 C3'        55.5170  -74.8750   52.9650 C.3       1 FAD501      0.0000 
     45 O3'        54.8690  -75.2240   51.7350 O.3       1 FAD501      0.0000 
     46 C4'        54.5030  -74.9650   54.1020 C.3       1 FAD501      0.0000 
     47 O4'        55.1440  -74.6980   55.3540 O.3       1 FAD501      0.0000 
     48 C5'        53.8790  -76.3530   54.1440 C.3       1 FAD501      0.0000 
     49 O5'        53.0720  -76.5100   55.3040 O.3       1 FAD501      0.0000 
     50 P          52.7590  -77.9910   55.8450 P.3       1 FAD501      0.0000 
     51 O1P        51.6410  -77.8700   56.8440 O.co2     1 FAD501      0.0000 
     52 O2P        52.6010  -78.9120   54.6610 O.co2     1 FAD501      0.0000 
     53 O3P        54.1140  -78.4330   56.6010 O.3       1 FAD501      0.0000 
@<TRIPOS>BOND
     1    1    2 ar   
     2    1    3 ar   
     3    1    4 1    
     4    1   53 1    
     5    4    5 1    
     6    5    6 1    
     7    6    7 1    
     8    6    8 1    
     9    7   12 1    
    10    8    9 1    
    11    8   10 1    
    12   10   11 1    
    13   10   12 1    
    14   12   13 1    
    15   13   14 1    
    16   13   22 1    
    17   14   15 2    
    18   15   16 1    
    19   16   17 ar   
    20   16   22 ar   
    21   17   18 1    
    22   17   19 ar   
    23   19   20 ar   
    24   20   21 ar   
    25   21   22 ar   
    26   23   24 1    
    27   23   40 2    
    28   24   25 2    
    29   24   26 am   
    30   26   27 am   
    31   27   28 2    
    32   27   29 1    
    33   29   30 2    
    34   29   40 1    
    35   30   31 1    
    36   31   32 ar   
    37   31   38 ar   
    38   32   33 ar   
    39   33   34 1    
    40   33   35 ar   
    41   35   36 1    
    42   35   37 ar   
    43   37   38 ar   
    44   38   39 1    
    45   39   40 1    
    46   39   41 1    
    47   41   42 1    
    48   42   43 1    
    49   42   44 1    
    50   44   45 1    
    51   44   46 1    
    52   46   47 1    
    53   46   48 1    
    54   48   49 1    
    55   49   50 1    
    56   50   51 ar   
    57   50   52 ar   
    58   50   53 1    
@<TRIPOS>SUBSTRUCTURE
     1 FAD501      1 GROUP   
@<TRIPOS>SET
ATOM$ORANGE STATIC     ATOMS   COLORGROUP SYSTEM 
54 5 5 6 6 8 8 10 10 12 12 14 14 16 16 17 17 20 \
20 22 22 24 24 27 27 29 29 31 31 32 32 33 33 34 34 35 \
35 36 36 37 37 38 38 40 40 41 41 42 42 44 44 46 46 48 \
48 

