#    Name: 6b8h_9_ANP
#    Modification time : Fri May 22 19:31:14 2020

@<TRIPOS>MOLECULE
6b8h_9_ANP
   31    33     1     0     1
SMALL
NO_CHARGES


@<TRIPOS>ATOM
      1 PG        366.0370  262.3110  252.7980 P.3       1 ANP501      0.0000 
      2 O1G       367.3920  262.7770  252.0990 O.co2     1 ANP501      0.0000 
      3 O2G       365.7130  263.2120  254.0780 O.co2     1 ANP501      0.0000 
      4 O3G       366.2440  260.7270  253.0960 O.co2     1 ANP501      0.0000 
      5 PB        363.0850  262.7350  252.4230 P.3       1 ANP501      0.0000 
      6 O1B       362.4950  261.2980  252.1720 O.co2     1 ANP501      0.0000 
      7 O2B       362.8330  263.3560  253.8610 O.co2     1 ANP501      0.0000 
      8 N3B       364.6890  262.6440  251.7540 N.3       1 ANP501      0.0000 
      9 PA        362.1900  265.0840  251.1360 P.3       1 ANP501      0.0000 
     10 O1A       363.6810  265.6360  251.1590 O.co2     1 ANP501      0.0000 
     11 O2A       361.0930  265.7700  252.0790 O.co2     1 ANP501      0.0000 
     12 O3A       362.1620  263.5150  251.4300 O.3       1 ANP501      0.0000 
     13 O5'       361.6360  264.9440  249.6480 O.3       1 ANP501      0.0000 
     14 C5'       362.5720  264.4740  248.6970 C.3       1 ANP501      0.0000 
     15 C4'       362.0810  265.0900  247.3920 C.3       1 ANP501      0.0000 
     16 O4'       360.8750  264.4390  246.9760 O.3       1 ANP501      0.0000 
     17 C3'       361.8510  266.6450  247.3680 C.3       1 ANP501      0.0000 
     18 O3'       362.8240  267.4150  246.6740 O.3       1 ANP501      0.0000 
     19 C2'       360.4690  266.8530  246.7910 C.3       1 ANP501      0.0000 
     20 O2'       360.5610  267.3610  245.4770 O.3       1 ANP501      0.0000 
     21 C1'       359.9220  265.4430  246.6060 C.3       1 ANP501      0.0000 
     22 N9        358.7520  265.3650  247.4850 N.pl3     1 ANP501      0.0000 
     23 C8        358.6190  264.6810  248.6510 C.2       1 ANP501      0.0000 
     24 N7        357.3770  264.8610  249.2060 N.2       1 ANP501      0.0000 
     25 C5        356.7180  265.6940  248.3730 C.ar      1 ANP501      0.0000 
     26 C6        355.4070  266.3470  248.2640 C.ar      1 ANP501      0.0000 
     27 N6        354.5300  266.0690  249.2600 N.pl3     1 ANP501      0.0000 
     28 N1        355.1270  267.1790  247.2050 N.ar      1 ANP501      0.0000 
     29 C2        356.0140  267.4300  246.2140 C.ar      1 ANP501      0.0000 
     30 N3        357.2500  266.9080  246.1970 N.ar      1 ANP501      0.0000 
     31 C4        357.6190  266.0280  247.2890 C.ar      1 ANP501      0.0000 
@<TRIPOS>BOND
     1    1    2 ar   
     2    1    3 ar   
     3    1    4 ar   
     4    1    8 1    
     5    5    6 ar   
     6    5    7 ar   
     7    5    8 1    
     8    5   12 1    
     9    9   10 ar   
    10    9   11 ar   
    11    9   12 1    
    12    9   13 1    
    13   13   14 1    
    14   14   15 1    
    15   15   16 1    
    16   15   17 1    
    17   16   21 1    
    18   17   18 1    
    19   17   19 1    
    20   19   20 1    
    21   19   21 1    
    22   21   22 1    
    23   22   23 1    
    24   22   31 1    
    25   23   24 2    
    26   24   25 1    
    27   25   26 ar   
    28   25   31 ar   
    29   26   27 1    
    30   26   28 ar   
    31   28   29 ar   
    32   29   30 ar   
    33   30   31 ar   
@<TRIPOS>SUBSTRUCTURE
     1 ANP501      1 GROUP   
@<TRIPOS>SET
ATOM$ORANGE STATIC     ATOMS   COLORGROUP SYSTEM 
20 14 14 15 15 17 17 19 19 21 21 23 23 25 25 26 26 29 \
29 31 31 

