#    Name: 6b8h_3_ANP
#    Modification time : Fri May 22 19:28:41 2020

@<TRIPOS>MOLECULE
6b8h_3_ANP
   31    33     1     0     1
SMALL
NO_CHARGES


@<TRIPOS>ATOM
      1 PG        108.1990  246.6830  262.5760 P.3       1 ANP501      0.0000 
      2 O1G       107.3520  246.5830  261.2260 O.co2     1 ANP501      0.0000 
      3 O2G       107.8290  248.0560  263.3470 O.co2     1 ANP501      0.0000 
      4 O3G       107.9600  245.3290  263.4100 O.co2     1 ANP501      0.0000 
      5 PB        110.2260  247.8970  260.9540 P.3       1 ANP501      0.0000 
      6 O1B       109.4740  247.5950  259.5910 O.co2     1 ANP501      0.0000 
      7 O2B       109.7330  249.2610  261.6070 O.co2     1 ANP501      0.0000 
      8 N3B       109.8750  246.6870  262.1120 N.3       1 ANP501      0.0000 
      9 PA        112.6930  248.7510  261.5990 P.3       1 ANP501      0.0000 
     10 O1A       112.4400  250.2840  261.2690 O.co2     1 ANP501      0.0000 
     11 O2A       112.5320  248.3380  263.1270 O.co2     1 ANP501      0.0000 
     12 O3A       111.7790  247.8250  260.6900 O.3       1 ANP501      0.0000 
     13 O5'       114.1250  248.3710  261.0710 O.3       1 ANP501      0.0000 
     14 C5'       114.3090  246.9920  261.0040 C.3       1 ANP501      0.0000 
     15 C4'       115.7360  246.7820  260.6230 C.3       1 ANP501      0.0000 
     16 O4'       115.9930  247.0640  259.2530 O.3       1 ANP501      0.0000 
     17 C3'       116.7570  247.5180  261.4670 C.3       1 ANP501      0.0000 
     18 O3'       117.2290  246.7870  262.5890 O.3       1 ANP501      0.0000 
     19 C2'       117.7820  248.0290  260.4830 C.3       1 ANP501      0.0000 
     20 O2'       118.8510  247.1000  260.4040 O.3       1 ANP501      0.0000 
     21 C1'       117.2050  247.8000  259.1170 C.3       1 ANP501      0.0000 
     22 N9        117.0040  249.1650  258.5890 N.pl3     1 ANP501      0.0000 
     23 C8        115.8560  249.8880  258.5370 C.2       1 ANP501      0.0000 
     24 N7        116.0700  251.1430  258.0020 N.2       1 ANP501      0.0000 
     25 C5        117.3880  251.2370  257.7100 C.ar      1 ANP501      0.0000 
     26 C6        118.3740  252.2010  257.1380 C.ar      1 ANP501      0.0000 
     27 N6        117.9860  253.4300  256.7250 N.pl3     1 ANP501      0.0000 
     28 N1        119.6730  251.8330  257.0340 N.ar      1 ANP501      0.0000 
     29 C2        120.1420  250.6320  257.4280 C.ar      1 ANP501      0.0000 
     30 N3        119.3690  249.6700  257.9570 N.ar      1 ANP501      0.0000 
     31 C4        117.9560  249.9550  258.1030 C.ar      1 ANP501      0.0000 
@<TRIPOS>BOND
     1    1    2 ar   
     2    1    3 ar   
     3    1    4 ar   
     4    1    8 1    
     5    5    6 ar   
     6    5    7 ar   
     7    5    8 1    
     8    5   12 1    
     9    9   10 ar   
    10    9   11 ar   
    11    9   12 1    
    12    9   13 1    
    13   13   14 1    
    14   14   15 1    
    15   15   16 1    
    16   15   17 1    
    17   16   21 1    
    18   17   18 1    
    19   17   19 1    
    20   19   20 1    
    21   19   21 1    
    22   21   22 1    
    23   22   23 1    
    24   22   31 1    
    25   23   24 2    
    26   24   25 1    
    27   25   26 ar   
    28   25   31 ar   
    29   26   27 1    
    30   26   28 ar   
    31   28   29 ar   
    32   29   30 ar   
    33   30   31 ar   
@<TRIPOS>SUBSTRUCTURE
     1 ANP501      1 GROUP   
@<TRIPOS>SET
ATOM$ORANGE STATIC     ATOMS   COLORGROUP SYSTEM 
20 14 14 15 15 17 17 19 19 21 21 23 23 25 25 26 26 29 \
29 31 31 

