#    Name: 6b8h_2_ANP
#    Modification time : Fri May 22 19:28:16 2020

@<TRIPOS>MOLECULE
6b8h_2_ANP
   31    33     1     0     1
SMALL
NO_CHARGES


@<TRIPOS>ATOM
      1 PG        112.8500  219.5960  265.9740 P.3       1 ANP601      0.0000 
      2 O1G       111.7000  219.6020  264.8670 O.co2     1 ANP601      0.0000 
      3 O2G       112.6930  220.7580  267.0530 O.co2     1 ANP601      0.0000 
      4 O3G       112.9260  218.1990  266.7240 O.co2     1 ANP601      0.0000 
      5 PB        115.1060  221.3370  265.3440 P.3       1 ANP601      0.0000 
      6 O1B       114.4430  222.4370  264.4350 O.co2     1 ANP601      0.0000 
      7 O2B       115.0420  221.6780  266.9010 O.co2     1 ANP601      0.0000 
      8 N3B       114.3000  219.8410  265.0750 N.3       1 ANP601      0.0000 
      9 PA        117.5500  220.1060  265.8180 P.3       1 ANP601      0.0000 
     10 O1A       118.6200  220.9370  266.6450 O.co2     1 ANP601      0.0000 
     11 O2A       116.6130  219.1950  266.7290 O.co2     1 ANP601      0.0000 
     12 O3A       116.6360  221.0700  264.9060 O.3       1 ANP601      0.0000 
     13 O5'       118.3720  219.2380  264.7860 O.3       1 ANP601      0.0000 
     14 C5'       117.9200  218.0310  264.2210 C.3       1 ANP601      0.0000 
     15 C4'       119.1950  217.2690  263.8570 C.3       1 ANP601      0.0000 
     16 O4'       120.1070  218.0330  263.0460 O.3       1 ANP601      0.0000 
     17 C3'       119.9130  216.8840  265.1360 C.3       1 ANP601      0.0000 
     18 O3'       120.1260  215.4790  265.0640 O.3       1 ANP601      0.0000 
     19 C2'       121.2680  217.5190  265.0820 C.3       1 ANP601      0.0000 
     20 O2'       122.3010  216.6120  265.3460 O.3       1 ANP601      0.0000 
     21 C1'       121.3690  218.1000  263.7000 C.3       1 ANP601      0.0000 
     22 N9        122.1050  219.3540  263.7750 N.pl3     1 ANP601      0.0000 
     23 C8        121.7970  220.5580  264.3050 C.2       1 ANP601      0.0000 
     24 N7        122.8410  221.4520  264.1860 N.2       1 ANP601      0.0000 
     25 C5        123.8350  220.7870  263.5800 C.ar      1 ANP601      0.0000 
     26 C6        125.2110  220.9920  263.1190 C.ar      1 ANP601      0.0000 
     27 N6        125.7870  222.1890  263.2920 N.pl3     1 ANP601      0.0000 
     28 N1        125.8750  219.9810  262.5250 N.ar      1 ANP601      0.0000 
     29 C2        125.3480  218.7570  262.3370 C.ar      1 ANP601      0.0000 
     30 N3        124.1090  218.4350  262.7130 N.ar      1 ANP601      0.0000 
     31 C4        123.3360  219.4560  263.3500 C.ar      1 ANP601      0.0000 
@<TRIPOS>BOND
     1    1    2 ar   
     2    1    3 ar   
     3    1    4 ar   
     4    1    8 1    
     5    5    6 ar   
     6    5    7 ar   
     7    5    8 1    
     8    5   12 1    
     9    9   10 ar   
    10    9   11 ar   
    11    9   12 1    
    12    9   13 1    
    13   13   14 1    
    14   14   15 1    
    15   15   16 1    
    16   15   17 1    
    17   16   21 1    
    18   17   18 1    
    19   17   19 1    
    20   19   20 1    
    21   19   21 1    
    22   21   22 1    
    23   22   23 1    
    24   22   31 1    
    25   23   24 2    
    26   24   25 1    
    27   25   26 ar   
    28   25   31 ar   
    29   26   27 1    
    30   26   28 ar   
    31   28   29 ar   
    32   29   30 ar   
    33   30   31 ar   
@<TRIPOS>SUBSTRUCTURE
     1 ANP601      1 GROUP   
@<TRIPOS>SET
ATOM$ORANGE STATIC     ATOMS   COLORGROUP SYSTEM 
20 14 14 15 15 17 17 19 19 21 21 23 23 25 25 26 26 29 \
29 31 31 

