#    Name: 6b8h_8_ANP
#    Modification time : Fri May 22 19:30:49 2020

@<TRIPOS>MOLECULE
6b8h_8_ANP
   31    33     1     0     1
SMALL
NO_CHARGES


@<TRIPOS>ATOM
      1 PG        355.7320  217.3060  262.5900 P.3       1 ANP501      0.0000 
      2 O1G       356.5800  217.4050  261.2400 O.co2     1 ANP501      0.0000 
      3 O2G       356.1000  215.9330  263.3610 O.co2     1 ANP501      0.0000 
      4 O3G       355.9700  218.6600  263.4230 O.co2     1 ANP501      0.0000 
      5 PB        353.7040  216.0920  260.9680 P.3       1 ANP501      0.0000 
      6 O1B       354.4580  216.3930  259.6050 O.co2     1 ANP501      0.0000 
      7 O2B       354.1970  214.7280  261.6210 O.co2     1 ANP501      0.0000 
      8 N3B       354.0550  217.3020  262.1250 N.3       1 ANP501      0.0000 
      9 PA        351.2370  215.2400  261.6120 P.3       1 ANP501      0.0000 
     10 O1A       351.4900  213.7070  261.2820 O.co2     1 ANP501      0.0000 
     11 O2A       351.3970  215.6530  263.1400 O.co2     1 ANP501      0.0000 
     12 O3A       352.1520  216.1650  260.7030 O.3       1 ANP501      0.0000 
     13 O5'       349.8060  215.6200  261.0820 O.3       1 ANP501      0.0000 
     14 C5'       349.6210  216.9990  261.0150 C.3       1 ANP501      0.0000 
     15 C4'       348.1940  217.2100  260.6320 C.3       1 ANP501      0.0000 
     16 O4'       347.9380  216.9270  259.2620 O.3       1 ANP501      0.0000 
     17 C3'       347.1740  216.4750  261.4760 C.3       1 ANP501      0.0000 
     18 O3'       346.7020  217.2060  262.5980 O.3       1 ANP501      0.0000 
     19 C2'       346.1480  215.9640  260.4920 C.3       1 ANP501      0.0000 
     20 O2'       345.0810  216.8930  260.4120 O.3       1 ANP501      0.0000 
     21 C1'       346.7270  216.1920  259.1260 C.3       1 ANP501      0.0000 
     22 N9        346.9270  214.8260  258.5990 N.pl3     1 ANP501      0.0000 
     23 C8        348.0750  214.1030  258.5480 C.2       1 ANP501      0.0000 
     24 N7        347.8600  212.8480  258.0130 N.2       1 ANP501      0.0000 
     25 C5        346.5440  212.7540  257.7210 C.ar      1 ANP501      0.0000 
     26 C6        345.5560  211.7910  257.1490 C.ar      1 ANP501      0.0000 
     27 N6        345.9450  210.5610  256.7360 N.pl3     1 ANP501      0.0000 
     28 N1        344.2570  212.1580  257.0440 N.ar      1 ANP501      0.0000 
     29 C2        343.7900  213.3600  257.4380 C.ar      1 ANP501      0.0000 
     30 N3        344.5620  214.3220  257.9670 N.ar      1 ANP501      0.0000 
     31 C4        345.9750  214.0370  258.1120 C.ar      1 ANP501      0.0000 
@<TRIPOS>BOND
     1    1    2 ar   
     2    1    3 ar   
     3    1    4 ar   
     4    1    8 1    
     5    5    6 ar   
     6    5    7 ar   
     7    5    8 1    
     8    5   12 1    
     9    9   10 ar   
    10    9   11 ar   
    11    9   12 1    
    12    9   13 1    
    13   13   14 1    
    14   14   15 1    
    15   15   16 1    
    16   15   17 1    
    17   16   21 1    
    18   17   18 1    
    19   17   19 1    
    20   19   20 1    
    21   19   21 1    
    22   21   22 1    
    23   22   23 1    
    24   22   31 1    
    25   23   24 2    
    26   24   25 1    
    27   25   26 ar   
    28   25   31 ar   
    29   26   27 1    
    30   26   28 ar   
    31   28   29 ar   
    32   29   30 ar   
    33   30   31 ar   
@<TRIPOS>SUBSTRUCTURE
     1 ANP501      1 GROUP   
@<TRIPOS>SET
ATOM$ORANGE STATIC     ATOMS   COLORGROUP SYSTEM 
20 14 14 15 15 17 17 19 19 21 21 23 23 25 25 26 26 29 \
29 31 31 

