#    Name: 6b8h_7_ANP
#    Modification time : Fri May 22 19:30:25 2020

@<TRIPOS>MOLECULE
6b8h_7_ANP
   31    33     1     0     1
SMALL
NO_CHARGES


@<TRIPOS>ATOM
      1 PG        351.0900  244.3980  265.9730 P.3       1 ANP601      0.0000 
      2 O1G       352.2410  244.3900  264.8670 O.co2     1 ANP601      0.0000 
      3 O2G       351.2460  243.2360  267.0530 O.co2     1 ANP601      0.0000 
      4 O3G       351.0150  245.7940  266.7220 O.co2     1 ANP601      0.0000 
      5 PB        348.8330  242.6560  265.3420 P.3       1 ANP601      0.0000 
      6 O1B       349.4970  241.5560  264.4340 O.co2     1 ANP601      0.0000 
      7 O2B       348.8960  242.3170  266.8990 O.co2     1 ANP601      0.0000 
      8 N3B       349.6400  244.1520  265.0730 N.3       1 ANP601      0.0000 
      9 PA        346.3900  243.8890  265.8150 P.3       1 ANP601      0.0000 
     10 O1A       345.3190  243.0580  266.6420 O.co2     1 ANP601      0.0000 
     11 O2A       347.3270  244.8000  266.7260 O.co2     1 ANP601      0.0000 
     12 O3A       347.3040  242.9250  264.9030 O.3       1 ANP601      0.0000 
     13 O5'       345.5690  244.7570  264.7820 O.3       1 ANP601      0.0000 
     14 C5'       346.0220  245.9640  264.2160 C.3       1 ANP601      0.0000 
     15 C4'       344.7480  246.7260  263.8510 C.3       1 ANP601      0.0000 
     16 O4'       343.8350  245.9620  263.0400 O.3       1 ANP601      0.0000 
     17 C3'       344.0290  247.1110  265.1290 C.3       1 ANP601      0.0000 
     18 O3'       343.8160  248.5160  265.0570 O.3       1 ANP601      0.0000 
     19 C2'       342.6740  246.4770  265.0750 C.3       1 ANP601      0.0000 
     20 O2'       341.6400  247.3840  265.3380 O.3       1 ANP601      0.0000 
     21 C1'       342.5730  245.8950  263.6930 C.3       1 ANP601      0.0000 
     22 N9        341.8360  244.6420  263.7680 N.pl3     1 ANP601      0.0000 
     23 C8        342.1440  243.4390  264.2990 C.2       1 ANP601      0.0000 
     24 N7        341.0990  242.5440  264.1800 N.2       1 ANP601      0.0000 
     25 C5        340.1060  243.2110  263.5730 C.ar      1 ANP601      0.0000 
     26 C6        338.7300  243.0050  263.1110 C.ar      1 ANP601      0.0000 
     27 N6        338.1530  241.8090  263.2840 N.pl3     1 ANP601      0.0000 
     28 N1        338.0670  244.0160  262.5170 N.ar      1 ANP601      0.0000 
     29 C2        338.5950  245.2400  262.3290 C.ar      1 ANP601      0.0000 
     30 N3        339.8340  245.5620  262.7040 N.ar      1 ANP601      0.0000 
     31 C4        340.6050  244.5400  263.3430 C.ar      1 ANP601      0.0000 
@<TRIPOS>BOND
     1    1    2 ar   
     2    1    3 ar   
     3    1    4 ar   
     4    1    8 1    
     5    5    6 ar   
     6    5    7 ar   
     7    5    8 1    
     8    5   12 1    
     9    9   10 ar   
    10    9   11 ar   
    11    9   12 1    
    12    9   13 1    
    13   13   14 1    
    14   14   15 1    
    15   15   16 1    
    16   15   17 1    
    17   16   21 1    
    18   17   18 1    
    19   17   19 1    
    20   19   20 1    
    21   19   21 1    
    22   21   22 1    
    23   22   23 1    
    24   22   31 1    
    25   23   24 2    
    26   24   25 1    
    27   25   26 ar   
    28   25   31 ar   
    29   26   27 1    
    30   26   28 ar   
    31   28   29 ar   
    32   29   30 ar   
    33   30   31 ar   
@<TRIPOS>SUBSTRUCTURE
     1 ANP601      1 GROUP   
@<TRIPOS>SET
ATOM$ORANGE STATIC     ATOMS   COLORGROUP SYSTEM 
20 14 14 15 15 17 17 19 19 21 21 23 23 25 25 26 26 29 \
29 31 31 

