#    Name: 6b8h_10_ANP
#    Modification time : Fri May 22 19:31:38 2020

@<TRIPOS>MOLECULE
6b8h_10_ANP
   31    33     1     0     1
SMALL
NO_CHARGES


@<TRIPOS>ATOM
      1 PG        371.6960  208.6860  244.0170 P.3       1 ANP601      0.0000 
      2 O1G       373.2350  208.8200  243.5730 O.co2     1 ANP601      0.0000 
      3 O2G       371.4770  207.3990  244.9400 O.co2     1 ANP601      0.0000 
      4 O3G       371.2030  210.0310  244.7530 O.co2     1 ANP601      0.0000 
      5 PB        371.8000  208.4170  241.2110 P.3       1 ANP601      0.0000 
      6 O1B       372.2010  209.9020  240.8620 O.co2     1 ANP601      0.0000 
      7 O2B       373.1450  207.6180  241.4840 O.co2     1 ANP601      0.0000 
      8 N3B       370.7740  208.4130  242.5930 N.3       1 ANP601      0.0000 
      9 PA        370.6320  206.0860  240.2960 P.3       1 ANP601      0.0000 
     10 O1A       371.8650  205.3760  239.5880 O.co2     1 ANP601      0.0000 
     11 O2A       370.4910  205.7390  241.8400 O.co2     1 ANP601      0.0000 
     12 O3A       370.8640  207.6770  240.1320 O.3       1 ANP601      0.0000 
     13 O5'       369.2680  205.7550  239.5340 O.3       1 ANP601      0.0000 
     14 C5'       368.0600  206.2020  240.1540 C.3       1 ANP601      0.0000 
     15 C4'       367.0450  205.0620  240.1280 C.3       1 ANP601      0.0000 
     16 O4'       366.5480  204.9210  238.8050 O.3       1 ANP601      0.0000 
     17 C3'       367.6800  203.7440  240.5130 C.3       1 ANP601      0.0000 
     18 O3'       366.8570  203.2540  241.5600 O.3       1 ANP601      0.0000 
     19 C2'       367.5930  202.8430  239.2930 C.3       1 ANP601      0.0000 
     20 O2'       367.0120  201.5730  239.5640 O.3       1 ANP601      0.0000 
     21 C1'       366.7980  203.6340  238.2650 C.3       1 ANP601      0.0000 
     22 N9        367.4030  203.8300  236.9360 N.pl3     1 ANP601      0.0000 
     23 C8        368.5140  204.5310  236.6040 C.2       1 ANP601      0.0000 
     24 N7        368.7570  204.4960  235.2420 N.2       1 ANP601      0.0000 
     25 C5        367.7580  203.7720  234.6910 C.ar      1 ANP601      0.0000 
     26 C6        367.2970  203.3000  233.3610 C.ar      1 ANP601      0.0000 
     27 N6        368.0070  203.6230  232.2560 N.pl3     1 ANP601      0.0000 
     28 N1        366.1720  202.5490  233.2560 N.ar      1 ANP601      0.0000 
     29 C2        365.4430  202.2090  234.3330 C.ar      1 ANP601      0.0000 
     30 N3        365.7490  202.5790  235.5830 N.ar      1 ANP601      0.0000 
     31 C4        366.9150  203.3750  235.7950 C.ar      1 ANP601      0.0000 
@<TRIPOS>BOND
     1    1    2 ar   
     2    1    3 ar   
     3    1    4 ar   
     4    1    8 1    
     5    5    6 ar   
     6    5    7 ar   
     7    5    8 1    
     8    5   12 1    
     9    9   10 ar   
    10    9   11 ar   
    11    9   12 1    
    12    9   13 1    
    13   13   14 1    
    14   14   15 1    
    15   15   16 1    
    16   15   17 1    
    17   16   21 1    
    18   17   18 1    
    19   17   19 1    
    20   19   20 1    
    21   19   21 1    
    22   21   22 1    
    23   22   23 1    
    24   22   31 1    
    25   23   24 2    
    26   24   25 1    
    27   25   26 ar   
    28   25   31 ar   
    29   26   27 1    
    30   26   28 ar   
    31   28   29 ar   
    32   29   30 ar   
    33   30   31 ar   
@<TRIPOS>SUBSTRUCTURE
     1 ANP601      1 GROUP   
@<TRIPOS>SET
ATOM$ORANGE STATIC     ATOMS   COLORGROUP SYSTEM 
20 14 14 15 15 17 17 19 19 21 21 23 23 25 25 26 26 29 \
29 31 31 

