#    Name: 6b8h_1_ANP
#    Modification time : Fri May 22 19:27:48 2020

@<TRIPOS>MOLECULE
6b8h_1_ANP
   31    33     1     0     1
SMALL
NO_CHARGES


@<TRIPOS>ATOM
      1 PG         82.4560  208.2970  232.6010 P.3       1 ANP601      0.0000 
      2 O1G        81.3140  209.0350  231.7680 O.co2     1 ANP601      0.0000 
      3 O2G        81.8340  207.0580  233.3890 O.co2     1 ANP601      0.0000 
      4 O3G        83.1650  209.3120  233.6070 O.co2     1 ANP601      0.0000 
      5 PB         84.6300  206.4220  232.0050 P.3       1 ANP601      0.0000 
      6 O1B        85.9740  206.9240  232.6810 O.co2     1 ANP601      0.0000 
      7 O2B        83.7820  205.5450  233.0170 O.co2     1 ANP601      0.0000 
      8 N3B        83.6650  207.7540  231.4830 N.3       1 ANP601      0.0000 
      9 PA         83.6410  204.9420  229.9750 P.3       1 ANP601      0.0000 
     10 O1A        83.4910  203.3910  230.2750 O.co2     1 ANP601      0.0000 
     11 O2A        82.3260  205.7440  230.3610 O.co2     1 ANP601      0.0000 
     12 O3A        84.9180  205.5540  230.7060 O.3       1 ANP601      0.0000 
     13 O5'        84.0380  205.1200  228.4440 O.3       1 ANP601      0.0000 
     14 C5'        84.5450  206.3420  227.9350 C.3       1 ANP601      0.0000 
     15 C4'        84.2550  206.2590  226.4500 C.3       1 ANP601      0.0000 
     16 O4'        85.4030  205.7980  225.7300 O.3       1 ANP601      0.0000 
     17 C3'        83.1500  205.2380  226.2540 C.3       1 ANP601      0.0000 
     18 O3'        82.0500  205.8990  225.6520 O.3       1 ANP601      0.0000 
     19 C2'        83.7250  204.1370  225.3790 C.3       1 ANP601      0.0000 
     20 O2'        82.9610  203.9660  224.1980 O.3       1 ANP601      0.0000 
     21 C1'        85.1520  204.5610  225.0550 C.3       1 ANP601      0.0000 
     22 N9         86.1620  203.5310  225.4310 N.pl3     1 ANP601      0.0000 
     23 C8         86.5490  203.1550  226.6780 C.2       1 ANP601      0.0000 
     24 N7         87.5160  202.1750  226.6680 N.2       1 ANP601      0.0000 
     25 C5         87.7710  201.9040  225.3740 C.ar      1 ANP601      0.0000 
     26 C6         88.6390  201.0180  224.5520 C.ar      1 ANP601      0.0000 
     27 N6         89.4970  200.1580  225.1530 N.pl3     1 ANP601      0.0000 
     28 N1         88.5690  201.0790  223.1950 N.ar      1 ANP601      0.0000 
     29 C2         87.7370  201.9110  222.5310 C.ar      1 ANP601      0.0000 
     30 N3         86.9050  202.7610  223.1630 N.ar      1 ANP601      0.0000 
     31 C4         86.8960  202.7840  224.6100 C.ar      1 ANP601      0.0000 
@<TRIPOS>BOND
     1    1    2 ar   
     2    1    3 ar   
     3    1    4 ar   
     4    1    8 1    
     5    5    6 ar   
     6    5    7 ar   
     7    5    8 1    
     8    5   12 1    
     9    9   10 ar   
    10    9   11 ar   
    11    9   12 1    
    12    9   13 1    
    13   13   14 1    
    14   14   15 1    
    15   15   16 1    
    16   15   17 1    
    17   16   21 1    
    18   17   18 1    
    19   17   19 1    
    20   19   20 1    
    21   19   21 1    
    22   21   22 1    
    23   22   23 1    
    24   22   31 1    
    25   23   24 2    
    26   24   25 1    
    27   25   26 ar   
    28   25   31 ar   
    29   26   27 1    
    30   26   28 ar   
    31   28   29 ar   
    32   29   30 ar   
    33   30   31 ar   
@<TRIPOS>SUBSTRUCTURE
     1 ANP601      1 GROUP   
@<TRIPOS>SET
ATOM$ORANGE STATIC     ATOMS   COLORGROUP SYSTEM 
20 14 14 15 15 17 17 19 19 21 21 23 23 25 25 26 26 29 \
29 31 31 

