#    Name: 6b8h_5_ANP
#    Modification time : Fri May 22 19:29:32 2020

@<TRIPOS>MOLECULE
6b8h_5_ANP
   31    33     1     0     1
SMALL
NO_CHARGES


@<TRIPOS>ATOM
      1 PG         92.2410  255.2870  243.9900 P.3       1 ANP601      0.0000 
      2 O1G        90.7030  255.1540  243.5450 O.co2     1 ANP601      0.0000 
      3 O2G        92.4590  256.5750  244.9120 O.co2     1 ANP601      0.0000 
      4 O3G        92.7340  253.9440  244.7270 O.co2     1 ANP601      0.0000 
      5 PB         92.1380  255.5550  241.1840 P.3       1 ANP601      0.0000 
      6 O1B        91.7380  254.0700  240.8350 O.co2     1 ANP601      0.0000 
      7 O2B        90.7930  256.3540  241.4560 O.co2     1 ANP601      0.0000 
      8 N3B        93.1640  255.5610  242.5670 N.3       1 ANP601      0.0000 
      9 PA         93.3060  257.8860  240.2680 P.3       1 ANP601      0.0000 
     10 O1A        92.0730  258.5950  239.5590 O.co2     1 ANP601      0.0000 
     11 O2A        93.4460  258.2340  241.8120 O.co2     1 ANP601      0.0000 
     12 O3A        93.0750  256.2960  240.1050 O.3       1 ANP601      0.0000 
     13 O5'        94.6710  258.2180  239.5070 O.3       1 ANP601      0.0000 
     14 C5'        95.8780  257.7720  240.1270 C.3       1 ANP601      0.0000 
     15 C4'        96.8930  258.9120  240.1010 C.3       1 ANP601      0.0000 
     16 O4'        97.3910  259.0530  238.7780 O.3       1 ANP601      0.0000 
     17 C3'        96.2560  260.2300  240.4860 C.3       1 ANP601      0.0000 
     18 O3'        97.0790  260.7200  241.5330 O.3       1 ANP601      0.0000 
     19 C2'        96.3440  261.1310  239.2660 C.3       1 ANP601      0.0000 
     20 O2'        96.9250  262.4010  239.5360 O.3       1 ANP601      0.0000 
     21 C1'        97.1400  260.3390  238.2380 C.3       1 ANP601      0.0000 
     22 N9         96.5360  260.1420  236.9090 N.pl3     1 ANP601      0.0000 
     23 C8         95.4250  259.4410  236.5770 C.2       1 ANP601      0.0000 
     24 N7         95.1830  259.4750  235.2150 N.2       1 ANP601      0.0000 
     25 C5         96.1830  260.1990  234.6640 C.ar      1 ANP601      0.0000 
     26 C6         96.6450  260.6710  233.3340 C.ar      1 ANP601      0.0000 
     27 N6         95.9350  260.3460  232.2290 N.pl3     1 ANP601      0.0000 
     28 N1         97.7680  261.4220  233.2290 N.ar      1 ANP601      0.0000 
     29 C2         98.4970  261.7620  234.3060 C.ar      1 ANP601      0.0000 
     30 N3         98.1910  261.3940  235.5560 N.ar      1 ANP601      0.0000 
     31 C4         97.0250  260.5970  235.7680 C.ar      1 ANP601      0.0000 
@<TRIPOS>BOND
     1    1    2 ar   
     2    1    3 ar   
     3    1    4 ar   
     4    1    8 1    
     5    5    6 ar   
     6    5    7 ar   
     7    5    8 1    
     8    5   12 1    
     9    9   10 ar   
    10    9   11 ar   
    11    9   12 1    
    12    9   13 1    
    13   13   14 1    
    14   14   15 1    
    15   15   16 1    
    16   15   17 1    
    17   16   21 1    
    18   17   18 1    
    19   17   19 1    
    20   19   20 1    
    21   19   21 1    
    22   21   22 1    
    23   22   23 1    
    24   22   31 1    
    25   23   24 2    
    26   24   25 1    
    27   25   26 ar   
    28   25   31 ar   
    29   26   27 1    
    30   26   28 ar   
    31   28   29 ar   
    32   29   30 ar   
    33   30   31 ar   
@<TRIPOS>SUBSTRUCTURE
     1 ANP601      1 GROUP   
@<TRIPOS>SET
ATOM$ORANGE STATIC     ATOMS   COLORGROUP SYSTEM 
20 14 14 15 15 17 17 19 19 21 21 23 23 25 25 26 26 29 \
29 31 31 

