#    Name: 6b8h_4_ANP
#    Modification time : Fri May 22 19:29:06 2020

@<TRIPOS>MOLECULE
6b8h_4_ANP
   31    33     1     0     1
SMALL
NO_CHARGES


@<TRIPOS>ATOM
      1 PG         97.9180  201.6690  252.7990 P.3       1 ANP501      0.0000 
      2 O1G        96.5640  201.2030  252.1000 O.co2     1 ANP501      0.0000 
      3 O2G        98.2420  200.7700  254.0790 O.co2     1 ANP501      0.0000 
      4 O3G        97.7110  203.2530  253.0960 O.co2     1 ANP501      0.0000 
      5 PB        100.8710  201.2470  252.4260 P.3       1 ANP501      0.0000 
      6 O1B       101.4600  202.6840  252.1750 O.co2     1 ANP501      0.0000 
      7 O2B       101.1230  200.6260  253.8650 O.co2     1 ANP501      0.0000 
      8 N3B        99.2660  201.3360  251.7560 N.3       1 ANP501      0.0000 
      9 PA        101.7680  198.8980  251.1400 P.3       1 ANP501      0.0000 
     10 O1A       100.2770  198.3440  251.1640 O.co2     1 ANP501      0.0000 
     11 O2A       102.8640  198.2130  252.0840 O.co2     1 ANP501      0.0000 
     12 O3A       101.7940  200.4670  251.4330 O.3       1 ANP501      0.0000 
     13 O5'       102.3230  199.0370  249.6520 O.3       1 ANP501      0.0000 
     14 C5'       101.3860  199.5060  248.7010 C.3       1 ANP501      0.0000 
     15 C4'       101.8780  198.8900  247.3960 C.3       1 ANP501      0.0000 
     16 O4'       103.0850  199.5410  246.9800 O.3       1 ANP501      0.0000 
     17 C3'       102.1090  197.3350  247.3730 C.3       1 ANP501      0.0000 
     18 O3'       101.1370  196.5640  246.6790 O.3       1 ANP501      0.0000 
     19 C2'       103.4920  197.1270  246.7970 C.3       1 ANP501      0.0000 
     20 O2'       103.4000  196.6180  245.4830 O.3       1 ANP501      0.0000 
     21 C1'       104.0390  198.5380  246.6120 C.3       1 ANP501      0.0000 
     22 N9        105.2080  198.6160  247.4910 N.pl3     1 ANP501      0.0000 
     23 C8        105.3400  199.3010  248.6570 C.2       1 ANP501      0.0000 
     24 N7        106.5820  199.1220  249.2130 N.2       1 ANP501      0.0000 
     25 C5        107.2410  198.2880  248.3810 C.ar      1 ANP501      0.0000 
     26 C6        108.5530  197.6350  248.2740 C.ar      1 ANP501      0.0000 
     27 N6        109.4290  197.9150  249.2690 N.pl3     1 ANP501      0.0000 
     28 N1        108.8330  196.8040  247.2140 N.ar      1 ANP501      0.0000 
     29 C2        107.9480  196.5510  246.2240 C.ar      1 ANP501      0.0000 
     30 N3        106.7110  197.0740  246.2050 N.ar      1 ANP501      0.0000 
     31 C4        106.3410  197.9540  247.2970 C.ar      1 ANP501      0.0000 
@<TRIPOS>BOND
     1    1    2 ar   
     2    1    3 ar   
     3    1    4 ar   
     4    1    8 1    
     5    5    6 ar   
     6    5    7 ar   
     7    5    8 1    
     8    5   12 1    
     9    9   10 ar   
    10    9   11 ar   
    11    9   12 1    
    12    9   13 1    
    13   13   14 1    
    14   14   15 1    
    15   15   16 1    
    16   15   17 1    
    17   16   21 1    
    18   17   18 1    
    19   17   19 1    
    20   19   20 1    
    21   19   21 1    
    22   21   22 1    
    23   22   23 1    
    24   22   31 1    
    25   23   24 2    
    26   24   25 1    
    27   25   26 ar   
    28   25   31 ar   
    29   26   27 1    
    30   26   28 ar   
    31   28   29 ar   
    32   29   30 ar   
    33   30   31 ar   
@<TRIPOS>SUBSTRUCTURE
     1 ANP501      1 GROUP   
@<TRIPOS>SET
ATOM$ORANGE STATIC     ATOMS   COLORGROUP SYSTEM 
20 14 14 15 15 17 17 19 19 21 21 23 23 25 25 26 26 29 \
29 31 31 

