#    Name: 6b8h_6_ANP
#    Modification time : Fri May 22 19:29:58 2020

@<TRIPOS>MOLECULE
6b8h_6_ANP
   31    33     1     0     1
SMALL
NO_CHARGES


@<TRIPOS>ATOM
      1 PG        381.5080  255.6680  232.6120 P.3       1 ANP601      0.0000 
      2 O1G       382.6500  254.9290  231.7800 O.co2     1 ANP601      0.0000 
      3 O2G       382.1300  256.9060  233.4000 O.co2     1 ANP601      0.0000 
      4 O3G       380.7980  254.6530  233.6180 O.co2     1 ANP601      0.0000 
      5 PB        379.3360  257.5440  232.0140 P.3       1 ANP601      0.0000 
      6 O1B       377.9910  257.0420  232.6890 O.co2     1 ANP601      0.0000 
      7 O2B       380.1830  258.4200  233.0260 O.co2     1 ANP601      0.0000 
      8 N3B       380.3000  256.2110  231.4930 N.3       1 ANP601      0.0000 
      9 PA        380.3260  259.0210  229.9840 P.3       1 ANP601      0.0000 
     10 O1A       380.4760  260.5720  230.2830 O.co2     1 ANP601      0.0000 
     11 O2A       381.6400  258.2190  230.3710 O.co2     1 ANP601      0.0000 
     12 O3A       379.0490  258.4100  230.7140 O.3       1 ANP601      0.0000 
     13 O5'       379.9300  258.8430  228.4530 O.3       1 ANP601      0.0000 
     14 C5'       379.4220  257.6210  227.9440 C.3       1 ANP601      0.0000 
     15 C4'       379.7130  257.7030  226.4590 C.3       1 ANP601      0.0000 
     16 O4'       378.5660  258.1640  225.7370 O.3       1 ANP601      0.0000 
     17 C3'       380.8190  258.7230  226.2630 C.3       1 ANP601      0.0000 
     18 O3'       381.9200  258.0620  225.6620 O.3       1 ANP601      0.0000 
     19 C2'       380.2460  259.8250  225.3870 C.3       1 ANP601      0.0000 
     20 O2'       381.0100  259.9950  224.2070 O.3       1 ANP601      0.0000 
     21 C1'       378.8180  259.4010  225.0620 C.3       1 ANP601      0.0000 
     22 N9        377.8080  260.4310  225.4380 N.pl3     1 ANP601      0.0000 
     23 C8        377.4210  260.8090  226.6840 C.2       1 ANP601      0.0000 
     24 N7        376.4540  261.7890  226.6740 N.2       1 ANP601      0.0000 
     25 C5        376.2000  262.0590  225.3790 C.ar      1 ANP601      0.0000 
     26 C6        375.3330  262.9450  224.5560 C.ar      1 ANP601      0.0000 
     27 N6        374.4750  263.8050  225.1560 N.pl3     1 ANP601      0.0000 
     28 N1        375.4030  262.8830  223.1990 N.ar      1 ANP601      0.0000 
     29 C2        376.2360  262.0510  222.5360 C.ar      1 ANP601      0.0000 
     30 N3        377.0670  261.2000  223.1690 N.ar      1 ANP601      0.0000 
     31 C4        377.0750  261.1790  224.6160 C.ar      1 ANP601      0.0000 
@<TRIPOS>BOND
     1    1    2 ar   
     2    1    3 ar   
     3    1    4 ar   
     4    1    8 1    
     5    5    6 ar   
     6    5    7 ar   
     7    5    8 1    
     8    5   12 1    
     9    9   10 ar   
    10    9   11 ar   
    11    9   12 1    
    12    9   13 1    
    13   13   14 1    
    14   14   15 1    
    15   15   16 1    
    16   15   17 1    
    17   16   21 1    
    18   17   18 1    
    19   17   19 1    
    20   19   20 1    
    21   19   21 1    
    22   21   22 1    
    23   22   23 1    
    24   22   31 1    
    25   23   24 2    
    26   24   25 1    
    27   25   26 ar   
    28   25   31 ar   
    29   26   27 1    
    30   26   28 ar   
    31   28   29 ar   
    32   29   30 ar   
    33   30   31 ar   
@<TRIPOS>SUBSTRUCTURE
     1 ANP601      1 GROUP   
@<TRIPOS>SET
ATOM$ORANGE STATIC     ATOMS   COLORGROUP SYSTEM 
20 14 14 15 15 17 17 19 19 21 21 23 23 25 25 26 26 29 \
29 31 31 

