#    Name: 6hl2_2_FMN
#    Modification time : Fri May 22 19:27:07 2020

@<TRIPOS>MOLECULE
6hl2_2_FMN
   31    33     1     0     1
SMALL
NO_CHARGES


@<TRIPOS>ATOM
      1 N1         -9.4420  -11.9790  -14.9960 N.2       1 FMN502      0.0000 
      2 C2         -9.3610  -11.1130  -16.0310 C.2       1 FMN502      0.0000 
      3 O2        -10.0010  -11.3050  -17.0650 O.2       1 FMN502      0.0000 
      4 N3         -8.6350   -9.9230  -15.8830 N.am      1 FMN502      0.0000 
      5 C4         -7.9960   -9.4990  -14.7280 C.2       1 FMN502      0.0000 
      6 O4         -7.4370   -8.4010  -14.6870 O.2       1 FMN502      0.0000 
      7 C4A        -8.1140  -10.4220  -13.6170 C.2       1 FMN502      0.0000 
      8 N5         -7.5940  -10.0750  -12.4660 N.2       1 FMN502      0.0000 
      9 C5A        -7.7900  -10.9180  -11.3820 C.ar      1 FMN502      0.0000 
     10 C6         -7.2680  -10.5420  -10.1410 C.ar      1 FMN502      0.0000 
     11 C7         -7.3930  -11.3720   -9.0330 C.ar      1 FMN502      0.0000 
     12 C7M        -6.7880  -10.9370   -7.7220 C.3       1 FMN502      0.0000 
     13 C8         -8.0680  -12.6150   -9.1650 C.ar      1 FMN502      0.0000 
     14 C8M        -8.1610  -13.5910   -8.0210 C.3       1 FMN502      0.0000 
     15 C9         -8.6130  -12.9730  -10.3910 C.ar      1 FMN502      0.0000 
     16 C9A        -8.4850  -12.1380  -11.5000 C.ar      1 FMN502      0.0000 
     17 N10        -9.0290  -12.4770  -12.7670 N.pl3     1 FMN502      0.0000 
     18 C10        -8.8620  -11.6410  -13.8440 C.2       1 FMN502      0.0000 
     19 C1'        -9.8790  -13.6720  -12.8880 C.3       1 FMN502      0.0000 
     20 C2'       -11.3680  -13.3340  -12.8220 C.3       1 FMN502      0.0000 
     21 O2'       -11.8240  -13.3420  -11.4690 O.3       1 FMN502      0.0000 
     22 C3'       -12.2030  -14.2990  -13.6680 C.3       1 FMN502      0.0000 
     23 O3'       -11.7880  -15.6350  -13.3810 O.3       1 FMN502      0.0000 
     24 C4'       -12.1710  -14.0810  -15.1840 C.3       1 FMN502      0.0000 
     25 O4'       -12.3720  -12.7020  -15.5150 O.3       1 FMN502      0.0000 
     26 C5'       -13.2140  -14.9250  -15.8830 C.3       1 FMN502      0.0000 
     27 O5'       -13.0170  -14.8700  -17.3100 O.3       1 FMN502      0.0000 
     28 P         -12.4050  -16.0700  -18.1390 P.3       1 FMN502      0.0000 
     29 O1P       -10.9580  -16.2290  -17.8400 O.co2     1 FMN502      0.0000 
     30 O2P       -13.2220  -17.3060  -17.8340 O.co2     1 FMN502      0.0000 
     31 O3P       -12.6870  -15.6770  -19.5950 O.co2     1 FMN502      0.0000 
@<TRIPOS>BOND
     1    1    2 1    
     2    1   18 2    
     3    2    3 2    
     4    2    4 am   
     5    4    5 am   
     6    5    6 2    
     7    5    7 1    
     8    7    8 2    
     9    7   18 1    
    10    8    9 1    
    11    9   10 ar   
    12    9   16 ar   
    13   10   11 ar   
    14   11   12 1    
    15   11   13 ar   
    16   13   14 1    
    17   13   15 ar   
    18   15   16 ar   
    19   16   17 1    
    20   17   18 1    
    21   17   19 1    
    22   19   20 1    
    23   20   21 1    
    24   20   22 1    
    25   22   23 1    
    26   22   24 1    
    27   24   25 1    
    28   24   26 1    
    29   26   27 1    
    30   27   28 1    
    31   28   29 ar   
    32   28   30 ar   
    33   28   31 ar   
@<TRIPOS>SUBSTRUCTURE
     1 FMN502      1 GROUP   
@<TRIPOS>SET
ATOM$ORANGE STATIC     ATOMS   COLORGROUP SYSTEM 
34 2 2 5 5 7 7 9 9 10 10 11 11 12 12 13 13 14 \
14 15 15 16 16 18 18 19 19 20 20 22 22 24 24 26 26 

