#    Name: 6hl2_2_FMN_CAVITY_N1_4
#    Modification time : Fri May 22 19:27:09 2020

@<TRIPOS>MOLECULE
6hl2_2_FMN_CAVITY_N1_4
   73     0     7     0     0
SMALL
NO_CHARGES


@<TRIPOS>ATOM
      1 OG         -6.1400  -13.1900   -9.6000 O.3       1 SER1        0.0000 
      2 OG         -4.9700  -13.4900  -10.4900 O.3       1 SER1        0.0000 
      3 OG         -6.1700  -11.7800  -10.1200 O.3       1 SER1        0.0000 
      4 OG         -6.2100  -10.3800  -10.6500 O.3       1 SER1        0.0000 
      5 OG         -5.2000  -12.7500   -8.5100 O.3       1 SER1        0.0000 
      6 OG         -4.0300  -13.0600   -9.4000 O.3       1 SER1        0.0000 
      7 N         -12.9800  -14.0800  -15.7500 N.am      2 ALA2        0.0000 
      8 O         -12.0400  -13.6400  -14.6600 O.2       2 ALA2        0.0000 
      9 O         -12.2700  -12.9100  -12.6900 O.2       2 ALA2        0.0000 
     10 N         -11.1000  -13.2100  -13.5800 N.am      2 ALA2        0.0000 
     11 N          -9.9300  -13.5200  -14.4700 N.am      2 ALA2        0.0000 
     12 O          -9.9700  -12.1100  -15.0000 O.2       2 ALA2        0.0000 
     13 O          -8.8300  -11.0200  -16.4200 O.2       2 ALA2        0.0000 
     14 O         -11.2900  -13.8800  -11.0700 O.2       2 ALA2        0.0000 
     15 O         -11.3300  -12.4700  -11.6000 O.2       2 ALA2        0.0000 
     16 N         -10.1600  -12.7800  -12.4900 N.am      2 ALA2        0.0000 
     17 N          -8.9900  -13.0800  -13.3800 N.am      2 ALA2        0.0000 
     18 N          -9.0300  -11.6800  -13.9100 N.am      2 ALA2        0.0000 
     19 N          -7.8600  -11.9900  -14.8000 N.am      2 ALA2        0.0000 
     20 O          -9.0600  -10.2800  -14.4400 O.2       2 ALA2        0.0000 
     21 N          -7.9000  -10.5800  -15.3300 N.am      2 ALA2        0.0000 
     22 N          -6.7300  -10.8900  -16.2200 N.am      2 ALA2        0.0000 
     23 O          -7.9300   -9.1800  -15.8600 O.2       2 ALA2        0.0000 
     24 N          -9.2200  -12.3400  -11.4100 N.am      2 ALA2        0.0000 
     25 N          -8.0500  -12.6500  -12.3000 N.am      2 ALA2        0.0000 
     26 N          -8.0900  -11.2500  -12.8300 N.am      2 ALA2        0.0000 
     27 N          -6.9200  -11.5500  -13.7100 N.am      2 ALA2        0.0000 
     28 N          -8.1200   -9.8400  -13.3500 N.am      2 ALA2        0.0000 
     29 N          -6.9600  -10.1500  -14.2400 N.am      2 ALA2        0.0000 
     30 O          -8.3200  -10.5100  -10.8500 O.2       2 ALA2        0.0000 
     31 O          -8.4400  -13.9800   -7.2900 O.2       2 ALA2        0.0000 
     32 O          -8.5500   -9.7700   -8.8700 O.2       2 ALA2        0.0000 
     33 O          -7.3800  -10.0800   -9.7600 O.2       2 ALA2        0.0000 
     34 O          -6.3300  -13.8500   -7.0900 O.2       2 ALA2        0.0000 
     35 O          -7.5300  -12.1400   -6.7300 O.2       2 ALA2        0.0000 
     36 O          -6.3700  -12.4500   -7.6200 O.2       2 ALA2        0.0000 
     37 OD1       -11.2200  -16.6800  -10.0200 O.co2     3 ASP3        0.0000 
     38 NZ        -13.1700  -14.7400  -13.2500 N.4       4 LYS4        0.0000 
     39 CZ         -6.4000  -11.0500   -8.1500 C.ar      5 PHE5        0.0000 
     40 CZ         -6.4400   -9.6400   -8.6800 C.ar      5 PHE5        0.0000 
     41 CZ         -5.4600  -10.6100   -7.0600 C.ar      5 PHE5        0.0000 
     42 CA        -13.2100  -13.3400  -13.7800 C.3       6 GLY6        0.0000 
     43 CA        -10.8700  -13.9500  -15.5500 C.3       6 GLY6        0.0000 
     44 CA        -11.0300  -16.0200  -12.5200 C.3       6 GLY6        0.0000 
     45 CA        -12.2300  -14.3100  -12.1600 C.3       6 GLY6        0.0000 
     46 CA         -8.8000  -12.4200  -15.8900 C.3       6 GLY6        0.0000 
     47 CA        -10.0500  -16.9900  -10.9100 C.3       6 GLY6        0.0000 
     48 CA        -10.0900  -15.5800  -11.4400 C.3       6 GLY6        0.0000 
     49 CA        -10.3200  -14.8500   -9.4600 C.3       6 GLY6        0.0000 
     50 CA        -10.3500  -13.4400   -9.9900 C.3       6 GLY6        0.0000 
     51 CA         -8.1700  -16.1200   -8.7400 C.3       6 GLY6        0.0000 
     52 CA         -9.3800  -14.4100   -8.3700 C.3       6 GLY6        0.0000 
     53 CA         -9.4100  -13.0100   -8.9000 C.3       6 GLY6        0.0000 
     54 CA         -8.2800  -11.9100  -10.3200 C.3       6 GLY6        0.0000 
     55 CA         -7.1500  -10.8100  -11.7400 C.3       6 GLY6        0.0000 
     56 CA         -7.2700  -14.2900   -8.1800 C.3       6 GLY6        0.0000 
     57 CA         -8.4700  -12.5800   -7.8200 C.3       6 GLY6        0.0000 
     58 CA         -8.5100  -11.1700   -8.3500 C.3       6 GLY6        0.0000 
     59 CA         -7.5700  -10.7400   -7.2600 C.3       6 GLY6        0.0000 
     60 CA         -7.6100   -9.3400   -7.7900 C.3       6 GLY6        0.0000 
     61 CA         -4.2600  -12.3200   -7.4200 C.3       6 GLY6        0.0000 
     62 DU        -12.0000  -15.0500  -14.1400 H         7 CUB7        0.0000 
     63 DU        -11.0600  -14.6100  -13.0500 H         7 CUB7        0.0000 
     64 DU        -11.2600  -15.2800  -10.5500 H         7 CUB7        0.0000 
     65 DU        -10.1200  -14.1800  -11.9600 H         7 CUB7        0.0000 
     66 DU         -9.1100  -16.5500   -9.8200 H         7 CUB7        0.0000 
     67 DU         -9.1500  -15.1500  -10.3500 H         7 CUB7        0.0000 
     68 DU         -9.1800  -13.7500  -10.8800 H         7 CUB7        0.0000 
     69 DU         -8.2100  -14.7200   -9.2600 H         7 CUB7        0.0000 
     70 DU         -8.2500  -13.3100   -9.7900 H         7 CUB7        0.0000 
     71 DU         -7.1100  -12.2200  -11.2100 H         7 CUB7        0.0000 
     72 DU         -7.3100  -12.8800   -8.7100 H         7 CUB7        0.0000 
     73 DU         -7.3400  -11.4800   -9.2400 H         7 CUB7        0.0000 
@<TRIPOS>BOND
@<TRIPOS>SUBSTRUCTURE
     1 SER1        1 GROUP   
     2 ALA2        7 GROUP   
     3 ASP3       37 GROUP   
     4 LYS4       38 GROUP   
     5 PHE5       39 GROUP   
     6 GLY6       42 GROUP   
     7 CUB7       62 GROUP   
@<TRIPOS>SET

