#    Name: 5ure_2_FMN
#    Modification time : Fri May 22 19:16:24 2020

@<TRIPOS>MOLECULE
5ure_2_FMN
   31    33     1     0     1
SMALL
NO_CHARGES


@<TRIPOS>ATOM
      1 N1         44.9750   26.0010   40.2210 N.2       1 FMN701      0.0000 
      2 C2         45.8550   25.7220   41.2120 C.2       1 FMN701      0.0000 
      3 O2         45.4750   25.3700   42.3310 O.2       1 FMN701      0.0000 
      4 N3         47.1910   25.8500   40.9100 N.am      1 FMN701      0.0000 
      5 C4         47.7480   26.2390   39.6900 C.2       1 FMN701      0.0000 
      6 O4         48.9740   26.2750   39.6720 O.2       1 FMN701      0.0000 
      7 C4A        46.8390   26.5320   38.6400 C.2       1 FMN701      0.0000 
      8 N5         47.3800   26.9210   37.3930 N.2       1 FMN701      0.0000 
      9 C5A        46.4240   27.1880   36.4060 C.ar      1 FMN701      0.0000 
     10 C6         46.9580   27.5780   35.1250 C.ar      1 FMN701      0.0000 
     11 C7         46.1140   27.8760   34.0270 C.ar      1 FMN701      0.0000 
     12 C7M        46.8380   28.2760   32.7140 C.3       1 FMN701      0.0000 
     13 C8         44.6220   27.7970   34.1710 C.ar      1 FMN701      0.0000 
     14 C8M        43.6970   28.0640   33.1850 C.3       1 FMN701      0.0000 
     15 C9         44.0930   27.4210   35.4090 C.ar      1 FMN701      0.0000 
     16 C9A        44.9580   27.1050   36.5550 C.ar      1 FMN701      0.0000 
     17 N10        44.4800   26.6910   37.8970 N.pl3     1 FMN701      0.0000 
     18 C10        45.4560   26.3930   38.9760 C.2       1 FMN701      0.0000 
     19 C1'        43.0540   26.5700   38.1630 C.3       1 FMN701      0.0000 
     20 C2'        42.4150   27.8520   38.7260 C.3       1 FMN701      0.0000 
     21 O2'        43.1010   28.2060   39.9890 O.3       1 FMN701      0.0000 
     22 C3'        40.9200   27.6620   38.9720 C.3       1 FMN701      0.0000 
     23 O3'        40.3040   27.3220   37.7020 O.3       1 FMN701      0.0000 
     24 C4'        40.3810   29.0200   39.5530 C.3       1 FMN701      0.0000 
     25 O4'        38.9590   28.7140   39.7590 O.3       1 FMN701      0.0000 
     26 C5'        40.4640   30.1730   38.5600 C.3       1 FMN701      0.0000 
     27 O5'        40.0280   31.4400   39.1380 O.3       1 FMN701      0.0000 
     28 P          39.9650   32.8290   38.4250 P.3       1 FMN701      0.0000 
     29 O1P        38.8860   32.8680   37.4110 O.co2     1 FMN701      0.0000 
     30 O2P        41.4460   33.0940   37.9860 O.co2     1 FMN701      0.0000 
     31 O3P        39.4780   33.6310   39.7130 O.co2     1 FMN701      0.0000 
@<TRIPOS>BOND
     1    1    2 1    
     2    1   18 2    
     3    2    3 2    
     4    2    4 am   
     5    4    5 am   
     6    5    6 2    
     7    5    7 1    
     8    7    8 2    
     9    7   18 1    
    10    8    9 1    
    11    9   10 ar   
    12    9   16 ar   
    13   10   11 ar   
    14   11   12 1    
    15   11   13 ar   
    16   13   14 1    
    17   13   15 ar   
    18   15   16 ar   
    19   16   17 1    
    20   17   18 1    
    21   17   19 1    
    22   19   20 1    
    23   20   21 1    
    24   20   22 1    
    25   22   23 1    
    26   22   24 1    
    27   24   25 1    
    28   24   26 1    
    29   26   27 1    
    30   27   28 1    
    31   28   29 ar   
    32   28   30 ar   
    33   28   31 ar   
@<TRIPOS>SUBSTRUCTURE
     1 FMN701      1 GROUP   
@<TRIPOS>SET
ATOM$ORANGE STATIC     ATOMS   COLORGROUP SYSTEM 
34 2 2 5 5 7 7 9 9 10 10 11 11 12 12 13 13 14 \
14 15 15 16 16 18 18 19 19 20 20 22 22 24 24 26 26 

