#    Name: 5ure_2_FMN_CAVITY_N1_4
#    Modification time : Fri May 22 19:16:26 2020

@<TRIPOS>MOLECULE
5ure_2_FMN_CAVITY_N1_4
   85     0     6     0     0
SMALL
NO_CHARGES


@<TRIPOS>ATOM
      1 OG         41.8900   24.7000   34.8100 O.3       1 SER1        0.0000 
      2 OG         37.8400   28.7000   38.6700 O.3       1 SER1        0.0000 
      3 OG         38.0300   29.1300   37.2500 O.3       1 SER1        0.0000 
      4 OG         38.2200   29.5700   35.8200 O.3       1 SER1        0.0000 
      5 OG         39.3700   28.6200   35.6800 O.3       1 SER1        0.0000 
      6 OG         42.8300   25.7700   35.2600 O.3       1 SER1        0.0000 
      7 OG         38.7800   29.7700   39.1200 O.3       1 SER1        0.0000 
      8 OG         38.9700   30.2100   37.7000 O.3       1 SER1        0.0000 
      9 OG         40.1200   29.2600   37.5600 O.3       1 SER1        0.0000 
     10 OG         43.5800   26.4100   37.1400 O.3       1 SER1        0.0000 
     11 OG         40.3100   29.7000   36.1400 O.3       1 SER1        0.0000 
     12 OG         41.4600   28.7500   36.0000 O.3       1 SER1        0.0000 
     13 OG         43.7700   26.8500   35.7200 O.3       1 SER1        0.0000 
     14 OG         41.6500   29.1800   34.5700 O.3       1 SER1        0.0000 
     15 OG         43.9600   27.2900   34.2900 O.3       1 SER1        0.0000 
     16 OG         39.9100   31.2900   38.1500 O.3       1 SER1        0.0000 
     17 OG         41.0700   30.3400   38.0100 O.3       1 SER1        0.0000 
     18 OG         41.2500   30.7700   36.5900 O.3       1 SER1        0.0000 
     19 OG         42.4100   29.8200   36.4500 O.3       1 SER1        0.0000 
     20 OG         45.8600   26.9700   36.0300 O.3       1 SER1        0.0000 
     21 OG         46.0500   27.4100   34.6100 O.3       1 SER1        0.0000 
     22 O          41.7000   24.2600   36.2300 O.2       2 ALA2        0.0000 
     23 N          41.1100   25.4100   39.6700 N.am      2 ALA2        0.0000 
     24 N          40.9000   27.4400   40.2700 N.am      2 ALA2        0.0000 
     25 O          43.2100   25.5400   39.9800 O.2       2 ALA2        0.0000 
     26 O          45.1200   25.2300   41.7200 O.2       2 ALA2        0.0000 
     27 N          41.8400   28.5100   40.7200 N.am      2 ALA2        0.0000 
     28 O          45.3000   25.6600   40.3000 O.2       2 ALA2        0.0000 
     29 N          42.0300   28.9500   39.3000 N.am      2 ALA2        0.0000 
     30 N          43.1800   28.0000   39.1600 N.am      2 ALA2        0.0000 
     31 N          44.3400   27.0500   39.0200 N.am      2 ALA2        0.0000 
     32 N          42.2200   29.3900   37.8700 N.am      2 ALA2        0.0000 
     33 N          43.3700   28.4400   37.7300 N.am      2 ALA2        0.0000 
     34 N          44.5200   27.4900   37.5900 N.am      2 ALA2        0.0000 
     35 N          47.4000   25.7900   40.6100 N.am      2 ALA2        0.0000 
     36 N          46.4300   27.1800   39.3300 N.am      2 ALA2        0.0000 
     37 N          47.7700   26.6600   37.7700 N.am      2 ALA2        0.0000 
     38 O          46.8100   28.0500   36.4900 O.2       2 ALA2        0.0000 
     39 O          46.9900   28.4900   35.0600 O.2       2 ALA2        0.0000 
     40 NZ         39.0000   27.7500   38.5300 N.4       3 LYS4        0.0000 
     41 NZ         40.1500   26.8000   38.3900 N.4       3 LYS4        0.0000 
     42 NZ         41.3000   25.8500   38.2500 N.4       3 LYS4        0.0000 
     43 NZ         39.1800   28.1800   37.1100 N.4       3 LYS4        0.0000 
     44 NZ         40.3400   27.2300   36.9700 N.4       3 LYS4        0.0000 
     45 NZ         41.4900   26.2800   36.8300 N.4       3 LYS4        0.0000 
     46 CZ         42.6400   25.3400   36.6900 C.ar      4 PHE5        0.0000 
     47 CZ         46.4600   24.7100   40.1600 C.ar      4 PHE5        0.0000 
     48 CZ         45.4900   26.1000   38.8800 C.ar      4 PHE5        0.0000 
     49 CZ         46.6400   25.1500   38.7400 C.ar      4 PHE5        0.0000 
     50 CZ         45.6800   26.5400   37.4500 C.ar      4 PHE5        0.0000 
     51 CZ         43.5600   28.8700   36.3100 C.ar      4 PHE5        0.0000 
     52 CZ         44.7100   27.9200   36.1700 C.ar      4 PHE5        0.0000 
     53 CZ         42.5900   30.2600   35.0300 C.ar      4 PHE5        0.0000 
     54 CZ         43.7500   29.3100   34.8900 C.ar      4 PHE5        0.0000 
     55 CZ         44.9000   28.3600   34.7500 C.ar      4 PHE5        0.0000 
     56 CZ         47.5800   26.2300   39.1900 C.ar      4 PHE5        0.0000 
     57 CZ         43.3500   30.9000   36.9100 C.ar      4 PHE5        0.0000 
     58 CZ         45.6500   29.0000   36.6300 C.ar      4 PHE5        0.0000 
     59 CA         38.8100   27.3100   39.9500 C.3       5 GLY6        0.0000 
     60 CA         42.4500   24.9000   38.1100 C.3       5 GLY6        0.0000 
     61 CA         38.6000   29.3400   40.5500 C.3       5 GLY6        0.0000 
     62 CA         39.7500   28.3900   40.4100 C.3       5 GLY6        0.0000 
     63 CA         42.0600   26.4900   40.1200 C.3       5 GLY6        0.0000 
     64 CA         44.3600   24.5900   39.8400 C.3       5 GLY6        0.0000 
     65 CA         43.4000   25.9700   38.5600 C.3       5 GLY6        0.0000 
     66 CA         40.6900   29.4600   40.8600 C.3       5 GLY6        0.0000 
     67 CA         43.0000   27.5600   40.5800 C.3       5 GLY6        0.0000 
     68 CA         44.1500   26.6100   40.4400 C.3       5 GLY6        0.0000 
     69 CA         39.7300   30.8500   39.5800 C.3       5 GLY6        0.0000 
     70 CA         40.8800   29.9000   39.4400 C.3       5 GLY6        0.0000 
     71 CA         45.0900   27.6900   40.8900 C.3       5 GLY6        0.0000 
     72 CA         46.2400   26.7400   40.7500 C.3       5 GLY6        0.0000 
     73 CA         40.8500   32.3600   38.6100 C.3       5 GLY6        0.0000 
     74 CA         42.0100   31.4100   38.4700 C.3       5 GLY6        0.0000 
     75 CA         46.6200   27.6100   37.9100 C.3       5 GLY6        0.0000 
     76 CA         42.1900   31.8500   37.0500 C.3       5 GLY6        0.0000 
     77 DU         40.5200   27.6700   35.5400 H         6 CUB7        0.0000 
     78 DU         41.6800   26.7200   35.4000 H         6 CUB7        0.0000 
     79 DU         39.9400   28.8200   38.9800 H         6 CUB7        0.0000 
     80 DU         41.0900   27.8700   38.8400 H         6 CUB7        0.0000 
     81 DU         42.2400   26.9200   38.7000 H         6 CUB7        0.0000 
     82 DU         41.2800   28.3100   37.4200 H         6 CUB7        0.0000 
     83 DU         42.4300   27.3600   37.2800 H         6 CUB7        0.0000 
     84 DU         42.6200   27.8000   35.8600 H         6 CUB7        0.0000 
     85 DU         42.8000   28.2300   34.4300 H         6 CUB7        0.0000 
@<TRIPOS>BOND
@<TRIPOS>SUBSTRUCTURE
     1 SER1        1 GROUP   
     2 ALA2       22 GROUP   
     3 LYS4       40 GROUP   
     4 PHE5       46 GROUP   
     5 GLY6       59 GROUP   
     6 CUB7       77 GROUP   
@<TRIPOS>SET

