#    Name: 5ure_1_NAP_CAVITY_N1_4
#    Modification time : Fri May 22 19:16:15 2020

@<TRIPOS>MOLECULE
5ure_1_NAP_CAVITY_N1_4
   37     0     7     0     0
SMALL
NO_CHARGES


@<TRIPOS>ATOM
      1 OG          9.7700   17.2400   29.8800 O.3       1 SER1        0.0000 
      2 OG          9.9600   17.6800   28.4500 O.3       1 SER1        0.0000 
      3 OG         11.1100   16.7300   28.3100 O.3       1 SER1        0.0000 
      4 OG         10.1400   18.1100   27.0300 O.3       1 SER1        0.0000 
      5 OG         11.3000   17.1600   26.8900 O.3       1 SER1        0.0000 
      6 OG         10.5200   18.9900   24.1900 O.3       1 SER1        0.0000 
      7 OG         10.7100   18.3100   30.3300 O.3       1 SER1        0.0000 
      8 OG         12.0500   17.8000   28.7700 O.3       1 SER1        0.0000 
      9 OG         12.2400   18.2400   27.3500 O.3       1 SER1        0.0000 
     10 OG         12.4200   18.6800   25.9200 O.3       1 SER1        0.0000 
     11 OG         12.9900   18.8800   29.2200 O.3       1 SER1        0.0000 
     12 OG         13.1800   19.3100   27.8000 O.3       1 SER1        0.0000 
     13 O          10.3400   17.4400   33.1800 O.2       2 ALA2        0.0000 
     14 N          14.3300   18.3600   27.6600 N.am      2 ALA2        0.0000 
     15 OD1        13.5800   17.7300   25.7800 O.co2     3 ASP3        0.0000 
     16 OD1        13.3700   19.7500   26.3800 O.co2     3 ASP3        0.0000 
     17 NZ          7.4900   16.6700   30.9900 N.4       4 LYS4        0.0000 
     18 NZ          8.4300   17.7500   31.4400 N.4       4 LYS4        0.0000 
     19 NZ          9.1800   18.3900   33.3200 N.4       4 LYS4        0.0000 
     20 NZ          8.2200   19.7800   32.0300 N.4       4 LYS4        0.0000 
     21 NZ          9.3700   18.8300   31.8900 N.4       4 LYS4        0.0000 
     22 CZ          7.8600   17.5500   28.1400 C.ar      5 PHE5        0.0000 
     23 CZ          9.2000   17.0400   26.5800 C.ar      5 PHE5        0.0000 
     24 CZ          8.6200   18.1900   30.0200 C.ar      5 PHE5        0.0000 
     25 CZ         10.3300   18.5500   25.6100 C.ar      5 PHE5        0.0000 
     26 CZ          9.5600   19.2600   30.4700 C.ar      5 PHE5        0.0000 
     27 CA          6.7300   16.0400   29.1100 C.3       6 GLY6        0.0000 
     28 CA          8.6400   15.7300   30.8500 C.3       6 GLY6        0.0000 
     29 CA          9.5800   16.8000   31.3000 C.3       6 GLY6        0.0000 
     30 CA         10.7300   15.8500   31.1600 C.3       6 GLY6        0.0000 
     31 CA         10.5200   17.8800   31.7500 C.3       6 GLY6        0.0000 
     32 DU          7.6800   17.1100   29.5600 H         7 CUB7        0.0000 
     33 DU          8.8300   16.1600   29.4200 H         7 CUB7        0.0000 
     34 DU          9.0100   16.6000   28.0000 H         7 CUB7        0.0000 
     35 DU         10.3500   16.0900   26.4400 H         7 CUB7        0.0000 
     36 DU         10.9200   16.2900   29.7400 H         7 CUB7        0.0000 
     37 DU         11.8600   17.3600   30.1900 H         7 CUB7        0.0000 
@<TRIPOS>BOND
@<TRIPOS>SUBSTRUCTURE
     1 SER1        1 GROUP   
     2 ALA2       13 GROUP   
     3 ASP3       15 GROUP   
     4 LYS4       17 GROUP   
     5 PHE5       22 GROUP   
     6 GLY6       27 GROUP   
     7 CUB7       32 GROUP   
@<TRIPOS>SET

