#    Name: 5ure_1_NAP
#    Modification time : Fri May 22 19:16:13 2020

@<TRIPOS>MOLECULE
5ure_1_NAP
   48    52     1     0     1
SMALL
NO_CHARGES


@<TRIPOS>ATOM
      1 PA         11.0130   13.6380   22.4060 P.3       1 NAP703      0.0000 
      2 O1A        11.2060   14.4540   21.1870 O.co2     1 NAP703      0.0000 
      3 O2A        12.1670   13.3980   23.3000 O.co2     1 NAP703      0.0000 
      4 O5B         9.7950   14.2560   23.2580 O.3       1 NAP703      0.0000 
      5 C5B         8.5430   14.4710   22.6030 C.3       1 NAP703      0.0000 
      6 C4B         7.9520   15.8190   23.0210 C.3       1 NAP703      0.0000 
      7 O4B         7.7310   15.8310   24.4420 O.3       1 NAP703      0.0000 
      8 C3B         8.9370   16.9440   22.7310 C.3       1 NAP703      0.0000 
      9 O3B         8.2210   18.0670   22.1950 O.3       1 NAP703      0.0000 
     10 C2B         9.4890   17.2660   24.1090 C.3       1 NAP703      0.0000 
     11 O2B         9.9100   18.6390   24.1480 O.3       1 NAP703      0.0000 
     12 C1B         8.1960   17.1120   24.8890 C.3       1 NAP703      0.0000 
     13 N9A         8.3730   17.1220   26.3580 N.pl3     1 NAP703      0.0000 
     14 C8A         9.5200   17.0470   27.0260 C.2       1 NAP703      0.0000 
     15 N7A         9.2330   16.9980   28.3240 N.2       1 NAP703      0.0000 
     16 C5A         7.9090   17.0490   28.4590 C.ar      1 NAP703      0.0000 
     17 C6A         7.1330   17.0740   29.5420 C.ar      1 NAP703      0.0000 
     18 N6A         7.7470   17.2470   30.7080 N.pl3     1 NAP703      0.0000 
     19 N1A         5.7960   17.1170   29.4530 N.ar      1 NAP703      0.0000 
     20 C2A         5.2030   17.1260   28.1860 C.ar      1 NAP703      0.0000 
     21 N3A         6.0480   17.1150   27.0690 N.ar      1 NAP703      0.0000 
     22 C4A         7.3770   17.0910   27.2410 C.ar      1 NAP703      0.0000 
     23 O3         10.4220   12.2100   21.9660 O.3       1 NAP703      0.0000 
     24 PN         10.6190   10.6720   22.3950 P.3       1 NAP703      0.0000 
     25 O1N        11.8610   10.1590   21.7770 O.co2     1 NAP703      0.0000 
     26 O2N         9.3470    9.9570   22.1540 O.co2     1 NAP703      0.0000 
     27 O5D        10.8760   10.7790   23.9810 O.3       1 NAP703      0.0000 
     28 C5D        10.0070   11.5550   24.8080 C.3       1 NAP703      0.0000 
     29 C4D        10.2770   11.2460   26.2830 C.3       1 NAP703      0.0000 
     30 O4D        10.0180    9.8470   26.5030 O.3       1 NAP703      0.0000 
     31 C3D        11.7520   11.4500   26.6000 C.3       1 NAP703      0.0000 
     32 O3D        11.9170   11.8090   27.9800 O.3       1 NAP703      0.0000 
     33 C2D        12.3080   10.0580   26.3700 C.3       1 NAP703      0.0000 
     34 O2D        13.5450    9.8980   27.0810 O.3       1 NAP703      0.0000 
     35 C1D        11.2100    9.2920   27.0830 C.3       1 NAP703      0.0000 
     36 N1N        11.3020    7.8260   26.9050 N.pl3     1 NAP703      0.0000 
     37 C2N        11.1810    7.2570   25.6300 C.ar      1 NAP703      0.0000 
     38 C3N        11.3600    5.8910   25.4550 C.ar      1 NAP703      0.0000 
     39 C7N        11.2060    5.3280   24.1920 C.2       1 NAP703      0.0000 
     40 O7N        10.5050    5.8810   23.3440 O.2       1 NAP703      0.0000 
     41 N7N        11.7070    4.1060   24.0490 N.am      1 NAP703      0.0000 
     42 C4N        11.6730    5.0880   26.5460 C.ar      1 NAP703      0.0000 
     43 C5N        11.7730    5.6390   27.8200 C.ar      1 NAP703      0.0000 
     44 C6N        11.5880    7.0040   28.0040 C.ar      1 NAP703      0.0000 
     45 P2B        11.4530   19.0460   24.3780 P.3       1 NAP703      0.0000 
     46 O1X        12.2160   17.8220   24.0380 O.co2     1 NAP703      0.0000 
     47 O2X        11.5190   19.4290   25.8060 O.co2     1 NAP703      0.0000 
     48 O3X        11.6480   20.1690   23.4340 O.co2     1 NAP703      0.0000 
@<TRIPOS>BOND
     1    1    2 ar   
     2    1    3 ar   
     3    1    4 1    
     4    1   23 1    
     5    4    5 1    
     6    5    6 1    
     7    6    7 1    
     8    6    8 1    
     9    7   12 1    
    10    8    9 1    
    11    8   10 1    
    12   10   11 1    
    13   10   12 1    
    14   11   45 1    
    15   12   13 1    
    16   13   14 1    
    17   13   22 1    
    18   14   15 2    
    19   15   16 1    
    20   16   17 ar   
    21   16   22 ar   
    22   17   18 1    
    23   17   19 ar   
    24   19   20 ar   
    25   20   21 ar   
    26   21   22 ar   
    27   23   24 1    
    28   24   25 ar   
    29   24   26 ar   
    30   24   27 1    
    31   27   28 1    
    32   28   29 1    
    33   29   30 1    
    34   29   31 1    
    35   30   35 1    
    36   31   32 1    
    37   31   33 1    
    38   33   34 1    
    39   33   35 1    
    40   35   36 1    
    41   36   37 ar   
    42   36   44 ar   
    43   37   38 ar   
    44   38   39 1    
    45   38   42 ar   
    46   39   40 2    
    47   39   41 am   
    48   42   43 ar   
    49   43   44 ar   
    50   45   46 ar   
    51   45   47 ar   
    52   45   48 ar   
@<TRIPOS>SUBSTRUCTURE
     1 NAP703      1 GROUP   
@<TRIPOS>SET
ATOM$ORANGE STATIC     ATOMS   COLORGROUP SYSTEM 
42 5 5 6 6 8 8 10 10 12 12 14 14 16 16 17 17 20 \
20 22 22 28 28 29 29 31 31 33 33 35 35 37 37 38 38 39 \
39 42 42 43 43 44 44 

