#    Name: 5ure_1_NAP_CAVITY_N1_12
#    Modification time : Fri May 22 19:16:15 2020

@<TRIPOS>MOLECULE
5ure_1_NAP_CAVITY_N1_12
   94     0     7     0     0
SMALL
NO_CHARGES


@<TRIPOS>ATOM
      1 OG          9.7700   17.2400   29.8800 O.3       1 SER1        0.0000 
      2 OG          9.9600   17.6800   28.4500 O.3       1 SER1        0.0000 
      3 OG         11.1100   16.7300   28.3100 O.3       1 SER1        0.0000 
      4 OG         10.1400   18.1100   27.0300 O.3       1 SER1        0.0000 
      5 OG         11.3000   17.1600   26.8900 O.3       1 SER1        0.0000 
      6 OG         10.5200   18.9900   24.1900 O.3       1 SER1        0.0000 
      7 OG         10.7100   18.3100   30.3300 O.3       1 SER1        0.0000 
      8 OG         12.0500   17.8000   28.7700 O.3       1 SER1        0.0000 
      9 OG         12.2400   18.2400   27.3500 O.3       1 SER1        0.0000 
     10 OG         12.4200   18.6800   25.9200 O.3       1 SER1        0.0000 
     11 OG         11.6500   19.3900   30.7900 O.3       1 SER1        0.0000 
     12 OG         12.9900   18.8800   29.2200 O.3       1 SER1        0.0000 
     13 OG         13.1800   19.3100   27.8000 O.3       1 SER1        0.0000 
     14 O           9.0000   17.9500   34.7400 O.2       2 ALA2        0.0000 
     15 O          10.3400   17.4400   33.1800 O.2       2 ALA2        0.0000 
     16 N          11.4900   16.4900   33.0400 N.am      2 ALA2        0.0000 
     17 N          11.6800   16.9300   31.6100 N.am      2 ALA2        0.0000 
     18 O           9.9400   19.0300   35.1900 O.2       2 ALA2        0.0000 
     19 O          11.0900   18.0800   35.0500 O.2       2 ALA2        0.0000 
     20 O          11.2800   18.5200   33.6300 O.2       2 ALA2        0.0000 
     21 N          12.4300   17.5700   33.4900 N.am      2 ALA2        0.0000 
     22 N          14.3300   18.3600   27.6600 N.am      2 ALA2        0.0000 
     23 N           8.5700   22.0000   35.9300 N.am      2 ALA2        0.0000 
     24 O          12.0300   19.1500   35.5100 O.2       2 ALA2        0.0000 
     25 O          13.1900   18.2100   35.3700 O.2       2 ALA2        0.0000 
     26 N           7.6100   23.3900   34.6500 N.am      2 ALA2        0.0000 
     27 N           8.7600   22.4400   34.5100 N.am      2 ALA2        0.0000 
     28 N           9.9100   21.4900   34.3700 N.am      2 ALA2        0.0000 
     29 N           8.9500   22.8800   33.0800 N.am      2 ALA2        0.0000 
     30 N          10.1000   21.9300   32.9400 N.am      2 ALA2        0.0000 
     31 N           9.5200   23.0800   36.3800 N.am      2 ALA2        0.0000 
     32 N          10.6700   22.1300   36.2400 N.am      2 ALA2        0.0000 
     33 O          12.9700   20.2300   35.9600 O.2       2 ALA2        0.0000 
     34 N          12.0100   21.6200   34.6800 N.am      2 ALA2        0.0000 
     35 OD1        13.5800   17.7300   25.7800 O.co2     3 ASP3        0.0000 
     36 OD1        13.3700   19.7500   26.3800 O.co2     3 ASP3        0.0000 
     37 OD1        13.3700   18.6400   33.9400 O.co2     3 ASP3        0.0000 
     38 OD1        14.5200   17.6900   33.8000 O.co2     3 ASP3        0.0000 
     39 OD1        13.5600   19.0800   32.5200 O.co2     3 ASP3        0.0000 
     40 OD1        13.7500   19.5200   31.1000 O.co2     3 ASP3        0.0000 
     41 OD1        14.9000   18.5700   30.9600 O.co2     3 ASP3        0.0000 
     42 OD1        13.9300   19.9500   29.6800 O.co2     3 ASP3        0.0000 
     43 NZ          7.4900   16.6700   30.9900 N.4       4 LYS4        0.0000 
     44 NZ          8.4300   17.7500   31.4400 N.4       4 LYS4        0.0000 
     45 NZ          9.1800   18.3900   33.3200 N.4       4 LYS4        0.0000 
     46 NZ          8.2200   19.7800   32.0300 N.4       4 LYS4        0.0000 
     47 NZ          9.3700   18.8300   31.8900 N.4       4 LYS4        0.0000 
     48 NZ          7.6300   20.9300   35.4700 N.4       4 LYS4        0.0000 
     49 NZ          8.7900   19.9800   35.3300 N.4       4 LYS4        0.0000 
     50 NZ          7.8200   21.3600   34.0500 N.4       4 LYS4        0.0000 
     51 NZ          8.9700   20.4100   33.9100 N.4       4 LYS4        0.0000 
     52 NZ          6.2700   23.9000   36.2100 N.4       4 LYS4        0.0000 
     53 NZ          7.4200   22.9500   36.0700 N.4       4 LYS4        0.0000 
     54 NZ          6.4600   24.3400   34.7900 N.4       4 LYS4        0.0000 
     55 NZ         12.4100   20.0300   32.6600 N.4       4 LYS4        0.0000 
     56 NZ          8.3600   24.0300   36.5200 N.4       4 LYS4        0.0000 
     57 NZ         13.3500   21.1000   33.1200 N.4       4 LYS4        0.0000 
     58 CZ          7.8600   17.5500   28.1400 C.ar      5 PHE5        0.0000 
     59 CZ          9.2000   17.0400   26.5800 C.ar      5 PHE5        0.0000 
     60 CZ          8.6200   18.1900   30.0200 C.ar      5 PHE5        0.0000 
     61 CZ         10.3300   18.5500   25.6100 C.ar      5 PHE5        0.0000 
     62 CZ          9.5600   19.2600   30.4700 C.ar      5 PHE5        0.0000 
     63 CZ         10.4800   21.6900   37.6600 C.ar      5 PHE5        0.0000 
     64 CZ         11.8200   21.1800   36.1000 C.ar      5 PHE5        0.0000 
     65 CZ         13.1600   20.6700   34.5400 C.ar      5 PHE5        0.0000 
     66 CA          6.7300   16.0400   29.1100 C.3       6 GLY6        0.0000 
     67 CA          8.6400   15.7300   30.8500 C.3       6 GLY6        0.0000 
     68 CA          9.5800   16.8000   31.3000 C.3       6 GLY6        0.0000 
     69 CA         10.7300   15.8500   31.1600 C.3       6 GLY6        0.0000 
     70 CA         10.5200   17.8800   31.7500 C.3       6 GLY6        0.0000 
     71 CA          7.8000   23.8300   33.2200 C.3       6 GLY6        0.0000 
     72 CA         11.2500   20.9800   32.8000 C.3       6 GLY6        0.0000 
     73 DU          7.6800   17.1100   29.5600 H         7 CUB7        0.0000 
     74 DU          8.8300   16.1600   29.4200 H         7 CUB7        0.0000 
     75 DU          9.0100   16.6000   28.0000 H         7 CUB7        0.0000 
     76 DU         10.3500   16.0900   26.4400 H         7 CUB7        0.0000 
     77 DU         10.9200   16.2900   29.7400 H         7 CUB7        0.0000 
     78 DU         11.8600   17.3600   30.1900 H         7 CUB7        0.0000 
     79 DU          5.3300   22.8300   35.7500 H         7 CUB7        0.0000 
     80 DU          6.4800   21.8800   35.6100 H         7 CUB7        0.0000 
     81 DU          5.5100   23.2600   34.3300 H         7 CUB7        0.0000 
     82 DU          6.6700   22.3100   34.1900 H         7 CUB7        0.0000 
     83 DU         10.1300   19.4700   33.7700 H         7 CUB7        0.0000 
     84 DU          6.8500   22.7500   32.7700 H         7 CUB7        0.0000 
     85 DU          8.0100   21.8000   32.6300 H         7 CUB7        0.0000 
     86 DU          9.1600   20.8500   32.4900 H         7 CUB7        0.0000 
     87 DU         10.3100   19.9000   32.3500 H         7 CUB7        0.0000 
     88 DU         11.4600   18.9500   32.2100 H         7 CUB7        0.0000 
     89 DU         12.6200   18.0000   32.0700 H         7 CUB7        0.0000 
     90 DU         12.8000   18.4400   30.6500 H         7 CUB7        0.0000 
     91 DU          9.7300   21.0500   35.7900 H         7 CUB7        0.0000 
     92 DU         10.8800   20.1000   35.6500 H         7 CUB7        0.0000 
     93 DU         11.0700   20.5400   34.2300 H         7 CUB7        0.0000 
     94 DU         12.2200   19.5900   34.0800 H         7 CUB7        0.0000 
@<TRIPOS>BOND
@<TRIPOS>SUBSTRUCTURE
     1 SER1        1 GROUP   
     2 ALA2       14 GROUP   
     3 ASP3       35 GROUP   
     4 LYS4       43 GROUP   
     5 PHE5       58 GROUP   
     6 GLY6       66 GROUP   
     7 CUB7       73 GROUP   
@<TRIPOS>SET

