#    Name: 6pf7_5_MTX
#    Modification time : Fri May 22 19:29:20 2020

@<TRIPOS>MOLECULE
6pf7_5_MTX
   33    35     1     0     0
SMALL
NO_CHARGES


@<TRIPOS>ATOM
      1 N1         98.4490  -58.7140   80.2110 N.ar      1 MTX604      0.0000 
      2 C2         98.8450  -58.0950   81.3560 C.ar      1 MTX604      0.0000 
      3 NA2        98.9100  -58.8230   82.5060 N.pl3     1 MTX604      0.0000 
      4 N3         99.1720  -56.7590   81.3480 N.ar      1 MTX604      0.0000 
      5 C4         99.1220  -56.0030   80.2380 C.ar      1 MTX604      0.0000 
      6 NA4        99.4450  -54.6660   80.2090 N.pl3     1 MTX604      0.0000 
      7 C4A        98.7080  -56.6220   79.0110 C.ar      1 MTX604      0.0000 
      8 N5         98.6490  -55.8710   77.8650 N.ar      1 MTX604      0.0000 
      9 C6         98.2660  -56.4960   76.7540 C.ar      1 MTX604      0.0000 
     10 C7         97.9270  -57.8860   76.7960 C.ar      1 MTX604      0.0000 
     11 N8         97.9740  -58.6430   77.8940 N.ar      1 MTX604      0.0000 
     12 C8A        98.3790  -57.9940   79.0470 C.ar      1 MTX604      0.0000 
     13 C9         98.2210  -55.5960   75.5570 C.3       1 MTX604      0.0000 
     14 N10        97.2040  -54.5270   75.7580 N.pl3     1 MTX604      0.0000 
     15 CM         97.5190  -53.1070   75.9420 C.3       1 MTX604      0.0000 
     16 C11        93.1400  -55.7220   75.9570 C.ar      1 MTX604      0.0000 
     17 C12        94.0240  -56.4980   75.1810 C.ar      1 MTX604      0.0000 
     18 C13        95.3500  -56.0820   75.1280 C.ar      1 MTX604      0.0000 
     19 C14        95.8510  -54.9450   75.7990 C.ar      1 MTX604      0.0000 
     20 C15        94.9330  -54.2000   76.5760 C.ar      1 MTX604      0.0000 
     21 C16        93.6190  -54.5980   76.6380 C.ar      1 MTX604      0.0000 
     22 C          91.7080  -56.0160   76.1430 C.2       1 MTX604      0.0000 
     23 O          90.9870  -56.5240   75.2760 O.2       1 MTX604      0.0000 
     24 N          91.2630  -55.6810   77.3920 N.am      1 MTX604      0.0000 
     25 CA         89.8790  -55.9090   77.7770 C.3       1 MTX604      0.0000 
     26 CT         89.4640  -54.8390   78.7630 C.2       1 MTX604      0.0000 
     27 O1         90.3480  -54.1170   79.2450 O.co2     1 MTX604      0.0000 
     28 O2         88.2440  -54.7430   79.0420 O.co2     1 MTX604      0.0000 
     29 CB         89.7270  -57.2890   78.4220 C.3       1 MTX604      0.0000 
     30 CG         88.5170  -58.0060   77.8440 C.3       1 MTX604      0.0000 
     31 CD         88.1660  -59.2530   78.6330 C.2       1 MTX604      0.0000 
     32 OE1        87.3460  -59.1750   79.5820 O.co2     1 MTX604      0.0000 
     33 OE2        88.7240  -60.3140   78.3010 O.co2     1 MTX604      0.0000 
@<TRIPOS>BOND
     1    1    2 ar   
     2    1   12 ar   
     3    2    3 1    
     4    2    4 ar   
     5    4    5 ar   
     6    5    6 1    
     7    5    7 ar   
     8    7    8 ar   
     9    7   12 ar   
    10    8    9 ar   
    11    9   10 ar   
    12    9   13 1    
    13   10   11 ar   
    14   11   12 ar   
    15   13   14 1    
    16   14   15 1    
    17   14   19 1    
    18   16   17 ar   
    19   16   21 ar   
    20   16   22 1    
    21   17   18 ar   
    22   18   19 ar   
    23   19   20 ar   
    24   20   21 ar   
    25   22   23 2    
    26   22   24 am   
    27   24   25 1    
    28   25   26 1    
    29   25   29 1    
    30   26   27 ar   
    31   26   28 ar   
    32   29   30 1    
    33   30   31 1    
    34   31   32 ar   
    35   31   33 ar   
@<TRIPOS>SUBSTRUCTURE
     1 MTX604      1 GROUP   
@<TRIPOS>SET

