#    Name: 6pf7_2_MTX
#    Modification time : Fri May 22 19:28:54 2020

@<TRIPOS>MOLECULE
6pf7_2_MTX
   33    35     1     0     0
SMALL
NO_CHARGES


@<TRIPOS>ATOM
      1 N1         -5.4850  -42.1040   15.0480 N.ar      1 MTX604      0.0000 
      2 C2         -4.7420  -42.8340   15.9200 C.ar      1 MTX604      0.0000 
      3 NA2        -3.3940  -42.6450   15.9470 N.pl3     1 MTX604      0.0000 
      4 N3         -5.3460  -43.7440   16.7550 N.ar      1 MTX604      0.0000 
      5 C4         -6.6720  -43.9620   16.7590 C.ar      1 MTX604      0.0000 
      6 NA4        -7.2910  -44.8700   17.5880 N.pl3     1 MTX604      0.0000 
      7 C4A        -7.4900  -43.2060   15.8490 C.ar      1 MTX604      0.0000 
      8 N5         -8.8460  -43.4070   15.8290 N.ar      1 MTX604      0.0000 
      9 C6         -9.5500  -42.6720   14.9720 C.ar      1 MTX604      0.0000 
     10 C7         -8.8900  -41.7400   14.1120 C.ar      1 MTX604      0.0000 
     11 N8         -7.5750  -41.5220   14.1050 N.ar      1 MTX604      0.0000 
     12 C8A        -6.8430  -42.2800   15.0030 C.ar      1 MTX604      0.0000 
     13 C9        -11.0150  -42.9680   15.0230 C.3       1 MTX604      0.0000 
     14 N10       -11.2760  -44.3670   14.5960 N.pl3     1 MTX604      0.0000 
     15 CM        -11.6990  -45.4400   15.4980 C.3       1 MTX604      0.0000 
     16 C11       -10.6000  -45.3100   10.5190 C.ar      1 MTX604      0.0000 
     17 C12       -10.9750  -43.9910   10.8470 C.ar      1 MTX604      0.0000 
     18 C13       -11.1920  -43.7070   12.1910 C.ar      1 MTX604      0.0000 
     19 C14       -11.0590  -44.6570   13.2280 C.ar      1 MTX604      0.0000 
     20 C15       -10.6800  -45.9690   12.8570 C.ar      1 MTX604      0.0000 
     21 C16       -10.4610  -46.2650   11.5310 C.ar      1 MTX604      0.0000 
     22 C         -10.3260  -45.7780    9.1480 C.2       1 MTX604      0.0000 
     23 O         -10.9380  -45.3710    8.1540 O.2       1 MTX604      0.0000 
     24 N          -9.3240  -46.7080    9.0880 N.am      1 MTX604      0.0000 
     25 CA         -8.9010  -47.2690    7.8130 C.3       1 MTX604      0.0000 
     26 CT         -8.3160  -48.6460    8.0530 C.2       1 MTX604      0.0000 
     27 O1         -7.9240  -48.9200    9.1980 O.co2     1 MTX604      0.0000 
     28 O2         -8.2630  -49.4460    7.0840 O.co2     1 MTX604      0.0000 
     29 CB         -7.8630  -46.3360    7.1750 C.3       1 MTX604      0.0000 
     30 CG         -7.5900  -46.7080    5.7240 C.3       1 MTX604      0.0000 
     31 CD         -6.3850  -45.9720    5.1670 C.2       1 MTX604      0.0000 
     32 OE1        -5.5860  -46.5700    4.4030 O.co2     1 MTX604      0.0000 
     33 OE2        -6.2400  -44.7820    5.5040 O.co2     1 MTX604      0.0000 
@<TRIPOS>BOND
     1    1    2 ar   
     2    1   12 ar   
     3    2    3 1    
     4    2    4 ar   
     5    4    5 ar   
     6    5    6 1    
     7    5    7 ar   
     8    7    8 ar   
     9    7   12 ar   
    10    8    9 ar   
    11    9   10 ar   
    12    9   13 1    
    13   10   11 ar   
    14   11   12 ar   
    15   13   14 1    
    16   14   15 1    
    17   14   19 1    
    18   16   17 ar   
    19   16   21 ar   
    20   16   22 1    
    21   17   18 ar   
    22   18   19 ar   
    23   19   20 ar   
    24   20   21 ar   
    25   22   23 2    
    26   22   24 am   
    27   24   25 1    
    28   25   26 1    
    29   25   29 1    
    30   26   27 ar   
    31   26   28 ar   
    32   29   30 1    
    33   30   31 1    
    34   31   32 ar   
    35   31   33 ar   
@<TRIPOS>SUBSTRUCTURE
     1 MTX604      1 GROUP   
@<TRIPOS>SET

