#    Name: 6pf7_6_NDP
#    Modification time : Fri May 22 19:29:35 2020

@<TRIPOS>MOLECULE
6pf7_6_NDP
   48    52     1     0     1
SMALL
NO_CHARGES


@<TRIPOS>ATOM
      1 PA         63.1630  -82.5700   93.7530 P.3       1 NDP601      0.0000 
      2 O1A        61.9950  -82.4010   92.8040 O.co2     1 NDP601      0.0000 
      3 O2A        64.1800  -81.5000   93.4840 O.co2     1 NDP601      0.0000 
      4 O5B        62.6790  -82.4210   95.2010 O.3       1 NDP601      0.0000 
      5 C5B        61.6690  -83.2560   95.6990 C.3       1 NDP601      0.0000 
      6 C4B        61.1450  -82.9630   97.0420 C.3       1 NDP601      0.0000 
      7 O4B        60.2730  -81.8550   97.0060 O.3       1 NDP601      0.0000 
      8 C3B        60.3270  -84.0560   97.5690 C.3       1 NDP601      0.0000 
      9 O3B        61.0950  -85.0580   98.1360 O.3       1 NDP601      0.0000 
     10 C2B        59.5310  -83.3750   98.5590 C.3       1 NDP601      0.0000 
     11 O2B        60.2780  -83.1140   99.7130 O.3       1 NDP601      0.0000 
     12 C1B        59.2160  -82.1100   97.9180 C.3       1 NDP601      0.0000 
     13 N9A        57.9650  -82.1970   97.2430 N.pl3     1 NDP601      0.0000 
     14 C8A        57.7770  -82.5300   95.9420 C.2       1 NDP601      0.0000 
     15 N7A        56.4600  -82.5070   95.6570 N.2       1 NDP601      0.0000 
     16 C5A        55.7790  -82.1470   96.7960 C.ar      1 NDP601      0.0000 
     17 C6A        54.4110  -81.9550   97.1160 C.ar      1 NDP601      0.0000 
     18 N6A        53.3790  -82.1570   96.0690 N.pl3     1 NDP601      0.0000 
     19 N1A        54.0470  -81.5870   98.3750 N.ar      1 NDP601      0.0000 
     20 C2A        55.0130  -81.4080   99.3170 C.ar      1 NDP601      0.0000 
     21 N3A        56.3150  -81.5760   99.0620 N.ar      1 NDP601      0.0000 
     22 C4A        56.7340  -81.9500   97.7980 C.ar      1 NDP601      0.0000 
     23 O3         63.8480  -84.0000   93.5650 O.3       1 NDP601      0.0000 
     24 PN         64.2500  -84.5750   92.1350 P.3       1 NDP601      0.0000 
     25 O1N        64.7990  -86.0050   92.2540 O.co2     1 NDP601      0.0000 
     26 O2N        63.0190  -84.6110   91.2540 O.co2     1 NDP601      0.0000 
     27 O5D        65.3850  -83.6180   91.4830 O.3       1 NDP601      0.0000 
     28 C5D        66.7260  -83.7420   91.8820 C.3       1 NDP601      0.0000 
     29 C4D        67.6940  -84.1710   90.8810 C.3       1 NDP601      0.0000 
     30 O4D        67.5390  -83.4020   89.6890 O.3       1 NDP601      0.0000 
     31 C3D        69.0700  -83.9430   91.3360 C.3       1 NDP601      0.0000 
     32 O3D        69.9180  -84.8710   90.7400 O.3       1 NDP601      0.0000 
     33 C2D        69.3700  -82.6390   90.8480 C.3       1 NDP601      0.0000 
     34 O2D        70.7490  -82.4790   90.7090 O.3       1 NDP601      0.0000 
     35 C1D        68.6780  -82.6200   89.5390 C.3       1 NDP601      0.0000 
     36 N1N        68.3380  -81.2860   89.1440 N.pl3     1 NDP601      0.0000 
     37 C2N        68.6430  -80.8900   87.8950 C.2       1 NDP601      0.0000 
     38 C3N        68.3280  -79.5980   87.4490 C.2       1 NDP601      0.0000 
     39 C7N        68.6950  -79.1930   86.0320 C.2       1 NDP601      0.0000 
     40 O7N        68.2730  -78.1170   85.5820 O.2       1 NDP601      0.0000 
     41 N7N        69.5200  -80.0280   85.2060 N.am      1 NDP601      0.0000 
     42 C4N        67.6810  -78.7000   88.3160 C.3       1 NDP601      0.0000 
     43 C5N        67.3760  -79.1470   89.6070 C.2       1 NDP601      0.0000 
     44 C6N        67.7060  -80.4390   90.0120 C.2       1 NDP601      0.0000 
     45 P2B        59.8420  -83.6990  101.0940 P.3       1 NDP601      0.0000 
     46 O1X        60.1080  -85.2160  101.1010 O.co2     1 NDP601      0.0000 
     47 O2X        60.6060  -83.0450  102.1670 O.co2     1 NDP601      0.0000 
     48 O3X        58.3880  -83.4390  101.3290 O.co2     1 NDP601      0.0000 
@<TRIPOS>BOND
     1    1    2 ar   
     2    1    3 ar   
     3    1    4 1    
     4    1   23 1    
     5    4    5 1    
     6    5    6 1    
     7    6    7 1    
     8    6    8 1    
     9    7   12 1    
    10    8    9 1    
    11    8   10 1    
    12   10   11 1    
    13   10   12 1    
    14   11   45 1    
    15   12   13 1    
    16   13   14 1    
    17   13   22 1    
    18   14   15 2    
    19   15   16 1    
    20   16   17 ar   
    21   16   22 ar   
    22   17   18 1    
    23   17   19 ar   
    24   19   20 ar   
    25   20   21 ar   
    26   21   22 ar   
    27   23   24 1    
    28   24   25 ar   
    29   24   26 ar   
    30   24   27 1    
    31   27   28 1    
    32   28   29 1    
    33   29   30 1    
    34   29   31 1    
    35   30   35 1    
    36   31   32 1    
    37   31   33 1    
    38   33   34 1    
    39   33   35 1    
    40   35   36 1    
    41   36   37 1    
    42   36   44 1    
    43   37   38 2    
    44   38   39 1    
    45   38   42 1    
    46   39   40 2    
    47   39   41 am   
    48   42   43 1    
    49   43   44 2    
    50   45   46 ar   
    51   45   47 ar   
    52   45   48 ar   
@<TRIPOS>SUBSTRUCTURE
     1 NDP601      1 GROUP   
@<TRIPOS>SET
ATOM$ORANGE STATIC     ATOMS   COLORGROUP SYSTEM 
42 5 5 6 6 8 8 10 10 12 12 14 14 16 16 17 17 20 \
20 22 22 28 28 29 29 31 31 33 33 35 35 37 37 38 38 39 \
39 42 42 43 43 44 44 

