#    Name: 6pf7_1_MTX
#    Modification time : Fri May 22 19:28:46 2020

@<TRIPOS>MOLECULE
6pf7_1_MTX
   33    35     1     0     0
SMALL
NO_CHARGES


@<TRIPOS>ATOM
      1 N1         47.2490  -65.0670   26.8780 N.ar      1 MTX604      0.0000 
      2 C2         45.9670  -65.3260   26.5170 C.ar      1 MTX604      0.0000 
      3 NA2        45.2360  -64.3420   25.9220 N.pl3     1 MTX604      0.0000 
      4 N3         45.4210  -66.5640   26.7520 N.ar      1 MTX604      0.0000 
      5 C4         46.0990  -67.5650   27.3330 C.ar      1 MTX604      0.0000 
      6 NA4        45.5530  -68.8060   27.5670 N.pl3     1 MTX604      0.0000 
      7 C4A        47.4600  -67.3270   27.7310 C.ar      1 MTX604      0.0000 
      8 N5         48.1810  -68.3270   28.3310 N.ar      1 MTX604      0.0000 
      9 C6         49.4390  -68.0460   28.6690 C.ar      1 MTX604      0.0000 
     10 C7         49.9760  -66.7440   28.4170 C.ar      1 MTX604      0.0000 
     11 N8         49.3000  -65.7510   27.8380 N.ar      1 MTX604      0.0000 
     12 C8A        47.9960  -66.0460   27.4790 C.ar      1 MTX604      0.0000 
     13 C9         50.1410  -69.1940   29.3250 C.3       1 MTX604      0.0000 
     14 N10        49.4760  -69.5320   30.6120 N.pl3     1 MTX604      0.0000 
     15 CM         48.6930  -70.7500   30.8280 C.3       1 MTX604      0.0000 
     16 C11        49.7280  -66.6980   33.7720 C.ar      1 MTX604      0.0000 
     17 C12        50.7810  -66.7580   32.8370 C.ar      1 MTX604      0.0000 
     18 C13        50.6770  -67.6950   31.8120 C.ar      1 MTX604      0.0000 
     19 C14        49.5890  -68.5840   31.6600 C.ar      1 MTX604      0.0000 
     20 C15        48.5490  -68.4900   32.6180 C.ar      1 MTX604      0.0000 
     21 C16        48.6400  -67.5670   33.6360 C.ar      1 MTX604      0.0000 
     22 C          49.6740  -65.7600   34.9120 C.2       1 MTX604      0.0000 
     23 O          50.6670  -65.3930   35.5500 O.2       1 MTX604      0.0000 
     24 N          48.4050  -65.3280   35.1900 N.am      1 MTX604      0.0000 
     25 CA         48.1400  -64.3860   36.2700 C.3       1 MTX604      0.0000 
     26 CT         46.7720  -64.6710   36.8460 C.2       1 MTX604      0.0000 
     27 O1         46.0140  -65.4210   36.2150 O.co2     1 MTX604      0.0000 
     28 O2         46.4710  -64.1190   37.9320 O.co2     1 MTX604      0.0000 
     29 CB         48.1410  -62.9420   35.7620 C.3       1 MTX604      0.0000 
     30 CG         49.2140  -62.1290   36.4690 C.3       1 MTX604      0.0000 
     31 CD         49.0560  -60.6440   36.2000 C.2       1 MTX604      0.0000 
     32 OE1        47.9070  -60.1370   36.2160 O.co2     1 MTX604      0.0000 
     33 OE2        50.0880  -59.9840   35.9770 O.co2     1 MTX604      0.0000 
@<TRIPOS>BOND
     1    1    2 ar   
     2    1   12 ar   
     3    2    3 1    
     4    2    4 ar   
     5    4    5 ar   
     6    5    6 1    
     7    5    7 ar   
     8    7    8 ar   
     9    7   12 ar   
    10    8    9 ar   
    11    9   10 ar   
    12    9   13 1    
    13   10   11 ar   
    14   11   12 ar   
    15   13   14 1    
    16   14   15 1    
    17   14   19 1    
    18   16   17 ar   
    19   16   21 ar   
    20   16   22 1    
    21   17   18 ar   
    22   18   19 ar   
    23   19   20 ar   
    24   20   21 ar   
    25   22   23 2    
    26   22   24 am   
    27   24   25 1    
    28   25   26 1    
    29   25   29 1    
    30   26   27 ar   
    31   26   28 ar   
    32   29   30 1    
    33   30   31 1    
    34   31   32 ar   
    35   31   33 ar   
@<TRIPOS>SUBSTRUCTURE
     1 MTX604      1 GROUP   
@<TRIPOS>SET

