#    Name: 6pf7_3_MTX
#    Modification time : Fri May 22 19:29:03 2020

@<TRIPOS>MOLECULE
6pf7_3_MTX
   33    35     1     0     0
SMALL
NO_CHARGES


@<TRIPOS>ATOM
      1 N1         70.8960  -75.3440   84.6470 N.ar      1 MTX604      0.0000 
      2 C2         69.8150  -74.6920   84.1390 C.ar      1 MTX604      0.0000 
      3 NA2        69.8610  -74.2360   82.8560 N.pl3     1 MTX604      0.0000 
      4 N3         68.6940  -74.4970   84.9100 N.ar      1 MTX604      0.0000 
      5 C4         68.5980  -74.9260   86.1790 C.ar      1 MTX604      0.0000 
      6 NA4        67.4850  -74.7430   86.9660 N.pl3     1 MTX604      0.0000 
      7 C4A        69.7170  -75.6180   86.7500 C.ar      1 MTX604      0.0000 
      8 N5         69.6380  -76.0640   88.0420 N.ar      1 MTX604      0.0000 
      9 C6         70.7000  -76.7040   88.5250 C.ar      1 MTX604      0.0000 
     10 C7         71.8580  -76.8900   87.7040 C.ar      1 MTX604      0.0000 
     11 N8         71.9630  -76.4680   86.4430 N.ar      1 MTX604      0.0000 
     12 C8A        70.8560  -75.8060   85.9390 C.ar      1 MTX604      0.0000 
     13 C9         70.5190  -77.1420   89.9460 C.3       1 MTX604      0.0000 
     14 N10        70.3470  -75.9550   90.8300 N.pl3     1 MTX604      0.0000 
     15 CM         69.0920  -75.6100   91.5030 C.3       1 MTX604      0.0000 
     16 C11        73.6650  -73.3510   91.3240 C.ar      1 MTX604      0.0000 
     17 C12        73.9160  -74.7100   91.0460 C.ar      1 MTX604      0.0000 
     18 C13        72.8110  -75.5420   90.8960 C.ar      1 MTX604      0.0000 
     19 C14        71.4710  -75.1080   90.9940 C.ar      1 MTX604      0.0000 
     20 C15        71.2620  -73.7330   91.2620 C.ar      1 MTX604      0.0000 
     21 C16        72.3440  -72.8960   91.4160 C.ar      1 MTX604      0.0000 
     22 C          74.7190  -72.3330   91.4980 C.2       1 MTX604      0.0000 
     23 O          75.8260  -72.5710   91.9930 O.2       1 MTX604      0.0000 
     24 N          74.3590  -71.0980   91.0360 N.am      1 MTX604      0.0000 
     25 CA         75.2920  -69.9830   91.1130 C.3       1 MTX604      0.0000 
     26 CT         74.5110  -68.6890   91.1160 C.2       1 MTX604      0.0000 
     27 O1         73.2850  -68.7450   90.9380 O.co2     1 MTX604      0.0000 
     28 O2         75.1490  -67.6220   91.2890 O.co2     1 MTX604      0.0000 
     29 CB         76.2200  -69.9910   89.8940 C.3       1 MTX604      0.0000 
     30 CG         77.6330  -69.5740   90.2720 C.3       1 MTX604      0.0000 
     31 CD         78.4730  -69.3070   89.0360 C.2       1 MTX604      0.0000 
     32 OE1        78.5280  -68.1420   88.5660 O.co2     1 MTX604      0.0000 
     33 OE2        79.0740  -70.2740   88.5320 O.co2     1 MTX604      0.0000 
@<TRIPOS>BOND
     1    1    2 ar   
     2    1   12 ar   
     3    2    3 1    
     4    2    4 ar   
     5    4    5 ar   
     6    5    6 1    
     7    5    7 ar   
     8    7    8 ar   
     9    7   12 ar   
    10    8    9 ar   
    11    9   10 ar   
    12    9   13 1    
    13   10   11 ar   
    14   11   12 ar   
    15   13   14 1    
    16   14   15 1    
    17   14   19 1    
    18   16   17 ar   
    19   16   21 ar   
    20   16   22 1    
    21   17   18 ar   
    22   18   19 ar   
    23   19   20 ar   
    24   20   21 ar   
    25   22   23 2    
    26   22   24 am   
    27   24   25 1    
    28   25   26 1    
    29   25   29 1    
    30   26   27 ar   
    31   26   28 ar   
    32   29   30 1    
    33   30   31 1    
    34   31   32 ar   
    35   31   33 ar   
@<TRIPOS>SUBSTRUCTURE
     1 MTX604      1 GROUP   
@<TRIPOS>SET

