#    Name: 6pf7_4_MTX
#    Modification time : Fri May 22 19:29:11 2020

@<TRIPOS>MOLECULE
6pf7_4_MTX
   33    35     1     0     0
SMALL
NO_CHARGES


@<TRIPOS>ATOM
      1 N1         51.1880  -37.7410   43.5990 N.ar      1 MTX604      0.0000 
      2 C2         51.3450  -37.9510   44.9340 C.ar      1 MTX604      0.0000 
      3 NA2        52.2960  -38.8300   45.3560 N.pl3     1 MTX604      0.0000 
      4 N3         50.5560  -37.2860   45.8410 N.ar      1 MTX604      0.0000 
      5 C4         49.6080  -36.4100   45.4780 C.ar      1 MTX604      0.0000 
      6 NA4        48.8130  -35.7370   46.3780 N.pl3     1 MTX604      0.0000 
      7 C4A        49.4120  -36.1620   44.0770 C.ar      1 MTX604      0.0000 
      8 N5         48.4510  -35.2720   43.6790 N.ar      1 MTX604      0.0000 
      9 C6         48.3120  -35.0760   42.3700 C.ar      1 MTX604      0.0000 
     10 C7         49.1460  -35.7820   41.4460 C.ar      1 MTX604      0.0000 
     11 N8         50.0910  -36.6540   41.8040 N.ar      1 MTX604      0.0000 
     12 C8A        50.2350  -36.8570   43.1660 C.ar      1 MTX604      0.0000 
     13 C9         47.2320  -34.0890   42.0580 C.3       1 MTX604      0.0000 
     14 N10        45.9170  -34.6050   42.5250 N.pl3     1 MTX604      0.0000 
     15 CM         45.1850  -34.0500   43.6680 C.3       1 MTX604      0.0000 
     16 C11        44.2100  -37.9630   40.5780 C.ar      1 MTX604      0.0000 
     17 C12        45.0240  -37.1020   39.8150 C.ar      1 MTX604      0.0000 
     18 C13        45.5760  -36.0060   40.4740 C.ar      1 MTX604      0.0000 
     19 C14        45.3600  -35.7120   41.8400 C.ar      1 MTX604      0.0000 
     20 C15        44.5440  -36.6070   42.5700 C.ar      1 MTX604      0.0000 
     21 C16        43.9950  -37.6960   41.9330 C.ar      1 MTX604      0.0000 
     22 C          43.5520  -39.1770   40.0640 C.2       1 MTX604      0.0000 
     23 O          43.1040  -39.2880   38.9170 O.2       1 MTX604      0.0000 
     24 N          43.4910  -40.1730   40.9980 N.am      1 MTX604      0.0000 
     25 CA         42.8930  -41.4620   40.6890 C.3       1 MTX604      0.0000 
     26 CT         42.2530  -42.0130   41.9430 C.2       1 MTX604      0.0000 
     27 O1         42.5030  -41.4520   43.0190 O.co2     1 MTX604      0.0000 
     28 O2         41.5110  -43.0190   41.8280 O.co2     1 MTX604      0.0000 
     29 CB         43.9730  -42.4430   40.2290 C.3       1 MTX604      0.0000 
     30 CG         43.5000  -43.2430   39.0260 C.3       1 MTX604      0.0000 
     31 CD         44.4350  -44.4040   38.7440 C.2       1 MTX604      0.0000 
     32 OE1        44.1990  -45.5270   39.2600 O.co2     1 MTX604      0.0000 
     33 OE2        45.4130  -44.1830   38.0040 O.co2     1 MTX604      0.0000 
@<TRIPOS>BOND
     1    1    2 ar   
     2    1   12 ar   
     3    2    3 1    
     4    2    4 ar   
     5    4    5 ar   
     6    5    6 1    
     7    5    7 ar   
     8    7    8 ar   
     9    7   12 ar   
    10    8    9 ar   
    11    9   10 ar   
    12    9   13 1    
    13   10   11 ar   
    14   11   12 ar   
    15   13   14 1    
    16   14   15 1    
    17   14   19 1    
    18   16   17 ar   
    19   16   21 ar   
    20   16   22 1    
    21   17   18 ar   
    22   18   19 ar   
    23   19   20 ar   
    24   20   21 ar   
    25   22   23 2    
    26   22   24 am   
    27   24   25 1    
    28   25   26 1    
    29   25   29 1    
    30   26   27 ar   
    31   26   28 ar   
    32   29   30 1    
    33   30   31 1    
    34   31   32 ar   
    35   31   33 ar   
@<TRIPOS>SUBSTRUCTURE
     1 MTX604      1 GROUP   
@<TRIPOS>SET

