#    Name: 6de6_1_ADP
#    Modification time : Fri May 22 19:26:17 2020

@<TRIPOS>MOLECULE
6de6_1_ADP
   27    29     1     0     1
SMALL
NO_CHARGES


@<TRIPOS>ATOM
      1 PB         19.5840   70.4280   71.0300 P.3       1 ADP701      0.0000 
      2 O1B        19.9620   71.5620   70.1270 O.co2     1 ADP701      0.0000 
      3 O2B        18.8400   70.8670   72.2710 O.co2     1 ADP701      0.0000 
      4 O3B        20.6840   69.4390   71.2480 O.co2     1 ADP701      0.0000 
      5 PA         17.0540   69.8720   69.6650 P.3       1 ADP701      0.0000 
      6 O1A        16.2580   68.6300   69.8970 O.co2     1 ADP701      0.0000 
      7 O2A        16.5470   71.1840   70.2320 O.co2     1 ADP701      0.0000 
      8 O3A        18.5570   69.5520   70.1490 O.3       1 ADP701      0.0000 
      9 O5'        17.2460   70.0600   68.0880 O.3       1 ADP701      0.0000 
     10 C5'        17.4430   68.9410   67.2260 C.3       1 ADP701      0.0000 
     11 C4'        17.1040   69.3580   65.8100 C.3       1 ADP701      0.0000 
     12 O4'        17.6330   68.4190   64.8670 O.3       1 ADP701      0.0000 
     13 C3'        15.6020   69.4670   65.5140 C.3       1 ADP701      0.0000 
     14 O3'        15.3760   70.7620   64.9480 O.3       1 ADP701      0.0000 
     15 C2'        15.2850   68.3690   64.5120 C.3       1 ADP701      0.0000 
     16 O2'        14.3290   68.7570   63.5410 O.3       1 ADP701      0.0000 
     17 C1'        16.6320   68.1750   63.8700 C.3       1 ADP701      0.0000 
     18 N9         16.9510   66.8470   63.3200 N.pl3     1 ADP701      0.0000 
     19 C8         16.8390   65.6250   63.8690 C.2       1 ADP701      0.0000 
     20 N7         17.3220   64.6810   63.0100 N.2       1 ADP701      0.0000 
     21 C5         17.7580   65.3340   61.9190 C.ar      1 ADP701      0.0000 
     22 C6         18.3750   64.9910   60.6330 C.ar      1 ADP701      0.0000 
     23 N6         18.6380   63.7100   60.3210 N.pl3     1 ADP701      0.0000 
     24 N1         18.6730   65.9940   59.7780 N.ar      1 ADP701      0.0000 
     25 C2         18.4170   67.2830   60.0510 C.ar      1 ADP701      0.0000 
     26 N3         17.8550   67.6660   61.2060 N.ar      1 ADP701      0.0000 
     27 C4         17.5110   66.7550   62.1370 C.ar      1 ADP701      0.0000 
@<TRIPOS>BOND
     1    1    2 ar   
     2    1    3 ar   
     3    1    4 ar   
     4    1    8 1    
     5    5    6 ar   
     6    5    7 ar   
     7    5    8 1    
     8    5    9 1    
     9    9   10 1    
    10   10   11 1    
    11   11   12 1    
    12   11   13 1    
    13   12   17 1    
    14   13   14 1    
    15   13   15 1    
    16   15   16 1    
    17   15   17 1    
    18   17   18 1    
    19   18   19 1    
    20   18   27 1    
    21   19   20 2    
    22   20   21 1    
    23   21   22 ar   
    24   21   27 ar   
    25   22   23 1    
    26   22   24 ar   
    27   24   25 ar   
    28   25   26 ar   
    29   26   27 ar   
@<TRIPOS>SUBSTRUCTURE
     1 ADP701      1 GROUP   
@<TRIPOS>SET
ATOM$ORANGE STATIC     ATOMS   COLORGROUP SYSTEM 
20 10 10 11 11 13 13 15 15 17 17 19 19 21 21 22 22 25 \
25 27 27 

