#    Name: 6rza_1_TA1
#    Modification time : Fri May 22 19:24:15 2020

@<TRIPOS>MOLECULE
6rza_1_TA1
   62    68     1     0     0
SMALL
NO_CHARGES


@<TRIPOS>ATOM
      1 O01       265.9000  186.0680  302.4760 O.3       1 TA1502      0.0000 
      2 C01       265.9670  185.8190  301.0630 C.3       1 TA1502      0.0000 
      3 C02       266.7600  184.4610  300.9880 C.3       1 TA1502      0.0000 
      4 O02       265.8970  183.4820  301.6390 O.3       1 TA1502      0.0000 
      5 C03       265.9150  183.2970  302.9720 C.2       1 TA1502      0.0000 
      6 O03       266.3760  184.0760  303.7750 O.2       1 TA1502      0.0000 
      7 C04       265.1890  182.0520  303.3620 C.ar      1 TA1502      0.0000 
      8 C05       265.2330  181.6100  304.6830 C.ar      1 TA1502      0.0000 
      9 C06       264.5470  180.4640  305.0700 C.ar      1 TA1502      0.0000 
     10 C07       263.8170  179.7390  304.1470 C.ar      1 TA1502      0.0000 
     11 C08       263.7700  180.1590  302.8310 C.ar      1 TA1502      0.0000 
     12 C09       264.4490  181.3060  302.4450 C.ar      1 TA1502      0.0000 
     13 C10       267.1300  183.8580  299.5720 C.3       1 TA1502      0.0000 
     14 C11       266.7980  182.3420  299.4930 C.3       1 TA1502      0.0000 
     15 O04       265.3600  182.1410  299.5610 O.3       1 TA1502      0.0000 
     16 C12       264.5410  182.7820  298.7050 C.2       1 TA1502      0.0000 
     17 O05       264.9110  183.4560  297.7780 O.2       1 TA1502      0.0000 
     18 C13       263.1180  182.5270  299.0930 C.3       1 TA1502      0.0000 
     19 C14       267.4050  181.2960  300.4350 C.3       1 TA1502      0.0000 
     20 O06       267.5160  180.3630  299.3490 O.3       1 TA1502      0.0000 
     21 C15       267.4360  181.4620  298.3890 C.3       1 TA1502      0.0000 
     22 C16       268.7650  181.8820  297.8130 C.3       1 TA1502      0.0000 
     23 C17       268.8850  183.3880  297.7110 C.3       1 TA1502      0.0000 
     24 O07       270.1660  183.7180  297.1740 O.3       1 TA1502      0.0000 
     25 C18       268.5720  184.1750  299.0360 C.3       1 TA1502      0.0000 
     26 C19       269.6570  183.8600  300.0940 C.3       1 TA1502      0.0000 
     27 C20       268.8160  185.6760  298.7370 C.2       1 TA1502      0.0000 
     28 O08       269.8710  186.2080  299.0490 O.2       1 TA1502      0.0000 
     29 C21       267.7440  186.5160  298.0330 C.3       1 TA1502      0.0000 
     30 O09       268.2120  187.8340  297.6820 O.3       1 TA1502      0.0000 
     31 C22       269.0990  187.9030  296.6800 C.2       1 TA1502      0.0000 
     32 O10       269.5710  186.9160  296.1420 O.2       1 TA1502      0.0000 
     33 C23       269.3980  189.3200  296.3960 C.3       1 TA1502      0.0000 
     34 C24       266.5140  186.7070  298.8570 C.2       1 TA1502      0.0000 
     35 C25       265.2910  186.5120  298.3330 C.2       1 TA1502      0.0000 
     36 C26       264.1350  186.3630  299.2960 C.3       1 TA1502      0.0000 
     37 O11       262.9760  185.7270  298.6420 O.3       1 TA1502      0.0000 
     38 C27       262.0860  186.5040  297.9980 C.2       1 TA1502      0.0000 
     39 O12       262.1070  187.7090  297.9750 O.2       1 TA1502      0.0000 
     40 C28       261.0360  185.6410  297.3150 C.3       1 TA1502      0.0000 
     41 O13       259.9980  186.4280  296.7830 O.3       1 TA1502      0.0000 
     42 C29       260.4640  184.6180  298.3130 C.3       1 TA1502      0.0000 
     43 N01       259.6420  185.2780  299.3320 N.am      1 TA1502      0.0000 
     44 C30       260.1810  185.9340  300.3790 C.2       1 TA1502      0.0000 
     45 O14       261.3680  185.8660  300.6410 O.2       1 TA1502      0.0000 
     46 C31       259.2830  186.7480  301.2690 C.ar      1 TA1502      0.0000 
     47 C32       257.9400  186.9430  300.9500 C.ar      1 TA1502      0.0000 
     48 C33       257.1140  187.6850  301.7810 C.ar      1 TA1502      0.0000 
     49 C34       257.6230  188.2360  302.9420 C.ar      1 TA1502      0.0000 
     50 C35       258.9580  188.0520  303.2720 C.ar      1 TA1502      0.0000 
     51 C36       259.7880  187.3070  302.4440 C.ar      1 TA1502      0.0000 
     52 C37       259.7720  183.4660  297.5970 C.ar      1 TA1502      0.0000 
     53 C38       260.4850  182.3660  297.1470 C.ar      1 TA1502      0.0000 
     54 C39       259.8470  181.3260  296.4840 C.ar      1 TA1502      0.0000 
     55 C40       258.5020  181.3950  296.2160 C.ar      1 TA1502      0.0000 
     56 C41       257.7890  182.4630  296.6870 C.ar      1 TA1502      0.0000 
     57 C42       258.4190  183.5120  297.3380 C.ar      1 TA1502      0.0000 
     58 C43       264.5130  185.5860  300.5770 C.3       1 TA1502      0.0000 
     59 C44       264.9640  186.4220  296.8500 C.3       1 TA1502      0.0000 
     60 C45       266.6730  187.0340  300.3460 C.3       1 TA1502      0.0000 
     61 C46       266.1040  188.4290  300.6980 C.3       1 TA1502      0.0000 
     62 C47       268.0910  187.2610  300.8810 C.3       1 TA1502      0.0000 
@<TRIPOS>BOND
     1    1    2 1    
     2    2    3 1    
     3    2   58 1    
     4    2   60 1    
     5    3    4 1    
     6    3   13 1    
     7    4    5 1    
     8    5    6 2    
     9    5    7 1    
    10    7    8 ar   
    11    7   12 ar   
    12    8    9 ar   
    13    9   10 ar   
    14   10   11 ar   
    15   11   12 ar   
    16   13   14 1    
    17   13   25 1    
    18   14   15 1    
    19   14   19 1    
    20   14   21 1    
    21   15   16 1    
    22   16   17 2    
    23   16   18 1    
    24   19   20 1    
    25   20   21 1    
    26   21   22 1    
    27   22   23 1    
    28   23   24 1    
    29   23   25 1    
    30   25   26 1    
    31   25   27 1    
    32   27   28 2    
    33   27   29 1    
    34   29   30 1    
    35   29   34 1    
    36   30   31 1    
    37   31   32 2    
    38   31   33 1    
    39   34   35 2    
    40   34   60 1    
    41   35   36 1    
    42   35   59 1    
    43   36   37 1    
    44   36   58 1    
    45   37   38 1    
    46   38   39 2    
    47   38   40 1    
    48   40   41 1    
    49   40   42 1    
    50   42   43 1    
    51   42   52 1    
    52   43   44 am   
    53   44   45 2    
    54   44   46 1    
    55   46   47 ar   
    56   46   51 ar   
    57   47   48 ar   
    58   48   49 ar   
    59   49   50 ar   
    60   50   51 ar   
    61   52   53 ar   
    62   52   57 ar   
    63   53   54 ar   
    64   54   55 ar   
    65   55   56 ar   
    66   56   57 ar   
    67   60   61 1    
    68   60   62 1    
@<TRIPOS>SUBSTRUCTURE
     1 TA1502      1 GROUP   
@<TRIPOS>SET

