#    Name: 6rza_2_TA1
#    Modification time : Fri May 22 19:24:20 2020

@<TRIPOS>MOLECULE
6rza_2_TA1
   62    68     1     0     0
SMALL
NO_CHARGES


@<TRIPOS>ATOM
      1 O01       224.5130  201.6190  311.9680 O.3       1 TA1502      0.0000 
      2 C01       224.4700  201.3590  310.5530 C.3       1 TA1502      0.0000 
      3 C02       224.5350  199.7850  310.4760 C.3       1 TA1502      0.0000 
      4 O02       223.3140  199.3260  311.1230 O.3       1 TA1502      0.0000 
      5 C03       223.2400  199.1540  312.4580 C.2       1 TA1502      0.0000 
      6 O03       224.0310  199.6060  313.2570 O.2       1 TA1502      0.0000 
      7 C04       222.0030  198.4100  312.8440 C.ar      1 TA1502      0.0000 
      8 C05       221.8230  198.0000  314.1630 C.ar      1 TA1502      0.0000 
      9 C06       220.6690  197.3260  314.5470 C.ar      1 TA1502      0.0000 
     10 C07       219.6830  197.0400  313.6250 C.ar      1 TA1502      0.0000 
     11 C08       219.8490  197.4350  312.3120 C.ar      1 TA1502      0.0000 
     12 C09       220.9970  198.1140  311.9260 C.ar      1 TA1502      0.0000 
     13 C10       224.5740  199.0820  309.0610 C.3       1 TA1502      0.0000 
     14 C11       223.5590  197.9080  308.9730 C.3       1 TA1502      0.0000 
     15 O04       222.1980  198.4100  309.0420 O.3       1 TA1502      0.0000 
     16 C12       221.7810  199.3680  308.1870 C.2       1 TA1502      0.0000 
     17 O05       222.4280  199.7880  307.2610 O.2       1 TA1502      0.0000 
     18 C13       220.4070  199.8250  308.5770 C.3       1 TA1502      0.0000 
     19 C14       223.5950  196.6990  309.9090 C.3       1 TA1502      0.0000 
     20 O06       223.2570  195.8260  308.8160 O.3       1 TA1502      0.0000 
     21 C15       223.7010  196.8390  307.8600 C.3       1 TA1502      0.0000 
     22 C16       225.0680  196.5790  307.2760 C.3       1 TA1502      0.0000 
     23 C17       225.8910  197.8490  307.1880 C.3       1 TA1502      0.0000 
     24 O07       227.1790  197.5320  306.6530 O.3       1 TA1502      0.0000 
     25 C18       225.9910  198.6830  308.5210 C.3       1 TA1502      0.0000 
     26 C19       226.8060  197.8820  309.5680 C.3       1 TA1502      0.0000 
     27 C20       226.9180  199.8850  308.2260 C.2       1 TA1502      0.0000 
     28 O08       228.0950  199.8480  308.5440 O.2       1 TA1502      0.0000 
     29 C21       226.3780  201.1360  307.5260 C.3       1 TA1502      0.0000 
     30 O09       227.4190  202.0700  307.1720 O.3       1 TA1502      0.0000 
     31 C22       228.2500  201.6980  306.1870 C.2       1 TA1502      0.0000 
     32 O10       228.1930  200.6140  305.6410 O.2       1 TA1502      0.0000 
     33 C23       229.2270  202.7820  305.9320 C.3       1 TA1502      0.0000 
     34 C24       225.3820  201.8880  308.3490 C.2       1 TA1502      0.0000 
     35 C25       224.2130  202.2970  307.8240 C.2       1 TA1502      0.0000 
     36 C26       223.1220  202.7110  308.7870 C.3       1 TA1502      0.0000 
     37 O11       221.7960  202.7040  308.1360 O.3       1 TA1502      0.0000 
     38 C27       221.3890  203.8060  307.4810 C.2       1 TA1502      0.0000 
     39 O12       221.9800  204.8560  307.4580 O.2       1 TA1502      0.0000 
     40 C28       220.0530  203.5480  306.8000 C.3       1 TA1502      0.0000 
     41 O13       219.5120  204.7370  306.2670 O.3       1 TA1502      0.0000 
     42 C29       219.0640  202.9170  307.7960 C.3       1 TA1502      0.0000 
     43 N01       218.6520  203.8940  308.8080 N.am      1 TA1502      0.0000 
     44 C30       219.4340  204.2250  309.8550 C.2       1 TA1502      0.0000 
     45 O14       220.4470  203.6030  310.1260 O.2       1 TA1502      0.0000 
     46 C31       219.0200  205.3780  310.7280 C.ar      1 TA1502      0.0000 
     47 C32       217.9260  206.1790  310.4080 C.ar      1 TA1502      0.0000 
     48 C33       217.5480  207.2270  311.2370 C.ar      1 TA1502      0.0000 
     49 C34       218.2600  207.4860  312.3940 C.ar      1 TA1502      0.0000 
     50 C35       219.3490  206.6960  312.7260 C.ar      1 TA1502      0.0000 
     51 C36       219.7270  205.6450  311.9010 C.ar      1 TA1502      0.0000 
     52 C37       217.9070  202.2370  307.0810 C.ar      1 TA1502      0.0000 
     53 C38       218.0130  200.9350  306.6190 C.ar      1 TA1502      0.0000 
     54 C39       216.9540  200.3290  305.9530 C.ar      1 TA1502      0.0000 
     55 C40       215.8040  201.0400  305.6860 C.ar      1 TA1502      0.0000 
     56 C41       215.6830  202.3160  306.1680 C.ar      1 TA1502      0.0000 
     57 C42       216.7370  202.9300  306.8290 C.ar      1 TA1502      0.0000 
     58 C43       223.0830  201.8480  310.0690 C.3       1 TA1502      0.0000 
     59 C44       223.8850  202.3740  306.3400 C.3       1 TA1502      0.0000 
     60 C45       225.6670  202.0980  309.8420 C.3       1 TA1502      0.0000 
     61 C46       225.7950  203.6070  310.1710 C.3       1 TA1502      0.0000 
     62 C47       227.0180  201.6130  310.3990 C.3       1 TA1502      0.0000 
@<TRIPOS>BOND
     1    1    2 1    
     2    2    3 1    
     3    2   58 1    
     4    2   60 1    
     5    3    4 1    
     6    3   13 1    
     7    4    5 1    
     8    5    6 2    
     9    5    7 1    
    10    7    8 ar   
    11    7   12 ar   
    12    8    9 ar   
    13    9   10 ar   
    14   10   11 ar   
    15   11   12 ar   
    16   13   14 1    
    17   13   25 1    
    18   14   15 1    
    19   14   19 1    
    20   14   21 1    
    21   15   16 1    
    22   16   17 2    
    23   16   18 1    
    24   19   20 1    
    25   20   21 1    
    26   21   22 1    
    27   22   23 1    
    28   23   24 1    
    29   23   25 1    
    30   25   26 1    
    31   25   27 1    
    32   27   28 2    
    33   27   29 1    
    34   29   30 1    
    35   29   34 1    
    36   30   31 1    
    37   31   32 2    
    38   31   33 1    
    39   34   35 2    
    40   34   60 1    
    41   35   36 1    
    42   35   59 1    
    43   36   37 1    
    44   36   58 1    
    45   37   38 1    
    46   38   39 2    
    47   38   40 1    
    48   40   41 1    
    49   40   42 1    
    50   42   43 1    
    51   42   52 1    
    52   43   44 am   
    53   44   45 2    
    54   44   46 1    
    55   46   47 ar   
    56   46   51 ar   
    57   47   48 ar   
    58   48   49 ar   
    59   49   50 ar   
    60   50   51 ar   
    61   52   53 ar   
    62   52   57 ar   
    63   53   54 ar   
    64   54   55 ar   
    65   55   56 ar   
    66   56   57 ar   
    67   60   61 1    
    68   60   62 1    
@<TRIPOS>SUBSTRUCTURE
     1 TA1502      1 GROUP   
@<TRIPOS>SET

