#    Name: 6rza_4_GDP
#    Modification time : Fri May 22 19:24:32 2020

@<TRIPOS>MOLECULE
6rza_4_GDP
   28    30     1     0     1
SMALL
NO_CHARGES


@<TRIPOS>ATOM
      1 PB        248.0680  171.0610  317.8140 P.3       1 GDP501      0.0000 
      2 O1B       247.4740  171.0750  316.4640 O.co2     1 GDP501      0.0000 
      3 O2B       247.2850  170.3080  318.8500 O.co2     1 GDP501      0.0000 
      4 O3B       248.5870  172.3790  318.3090 O.co2     1 GDP501      0.0000 
      5 O3A       249.3810  170.1510  317.5430 O.3       1 GDP501      0.0000 
      6 PA        250.4860  170.6600  316.4980 P.3       1 GDP501      0.0000 
      7 O1A       249.7970  170.9520  315.2270 O.co2     1 GDP501      0.0000 
      8 O2A       251.2260  171.7680  317.2310 O.co2     1 GDP501      0.0000 
      9 O5'       251.4420  169.4050  316.2380 O.3       1 GDP501      0.0000 
     10 C5'       252.7420  169.1570  316.6930 C.3       1 GDP501      0.0000 
     11 C4'       253.7950  169.2980  315.6290 C.3       1 GDP501      0.0000 
     12 O4'       253.6970  170.5040  314.9290 O.3       1 GDP501      0.0000 
     13 C3'       255.2120  169.2720  316.1940 C.3       1 GDP501      0.0000 
     14 O3'       255.9110  168.1090  315.7060 O.3       1 GDP501      0.0000 
     15 C2'       255.8970  170.5900  315.7950 C.3       1 GDP501      0.0000 
     16 O2'       257.2220  170.3310  315.2820 O.3       1 GDP501      0.0000 
     17 C1'       255.0100  171.0290  314.6770 C.3       1 GDP501      0.0000 
     18 N9        255.0250  172.4980  314.5830 N.pl3     1 GDP501      0.0000 
     19 C8        254.5680  173.3370  315.4990 C.2       1 GDP501      0.0000 
     20 N7        254.7010  174.6250  315.0860 N.2       1 GDP501      0.0000 
     21 C5        255.3220  174.6050  313.9060 C.2       1 GDP501      0.0000 
     22 C6        255.7910  175.5940  312.8980 C.2       1 GDP501      0.0000 
     23 O6        255.6370  176.8200  313.0770 O.2       1 GDP501      0.0000 
     24 N1        256.3950  175.1450  311.7850 N.am      1 GDP501      0.0000 
     25 C2        256.5520  173.8370  311.5650 C.2       1 GDP501      0.0000 
     26 N2        257.1720  173.4830  310.4300 N.pl3     1 GDP501      0.0000 
     27 N3        256.1380  172.8710  312.4300 N.2       1 GDP501      0.0000 
     28 C4        255.5290  173.1910  313.5860 C.2       1 GDP501      0.0000 
@<TRIPOS>BOND
     1    1    2 ar   
     2    1    3 ar   
     3    1    4 ar   
     4    1    5 1    
     5    5    6 1    
     6    6    7 ar   
     7    6    8 ar   
     8    6    9 1    
     9    9   10 1    
    10   10   11 1    
    11   11   12 1    
    12   11   13 1    
    13   12   17 1    
    14   13   14 1    
    15   13   15 1    
    16   15   16 1    
    17   15   17 1    
    18   17   18 1    
    19   18   19 1    
    20   18   28 1    
    21   19   20 2    
    22   20   21 1    
    23   21   22 1    
    24   21   28 2    
    25   22   23 2    
    26   22   24 am   
    27   24   25 1    
    28   25   26 1    
    29   25   27 2    
    30   27   28 1    
@<TRIPOS>SUBSTRUCTURE
     1 GDP501      1 GROUP   
@<TRIPOS>SET
ATOM$ORANGE STATIC     ATOMS   COLORGROUP SYSTEM 
20 10 10 11 11 13 13 15 15 17 17 19 19 21 21 22 22 25 \
25 28 28 

