#    Name: 6rza_6_GDP
#    Modification time : Fri May 22 19:24:37 2020

@<TRIPOS>MOLECULE
6rza_6_GDP
   28    30     1     0     1
SMALL
NO_CHARGES


@<TRIPOS>ATOM
      1 PB        201.7020  196.8920  327.2660 P.3       1 GDP501      0.0000 
      2 O1B       201.1860  197.1940  325.9200 O.co2     1 GDP501      0.0000 
      3 O2B       200.6550  196.6130  328.3000 O.co2     1 GDP501      0.0000 
      4 O3B       202.7820  197.8020  327.7680 O.co2     1 GDP501      0.0000 
      5 O3A       202.4290  195.4670  327.0020 O.3       1 GDP501      0.0000 
      6 PA        203.6430  195.3930  325.9500 P.3       1 GDP501      0.0000 
      7 O1A       203.1780  195.9870  324.6840 O.co2     1 GDP501      0.0000 
      8 O2A       204.8170  196.0210  326.6860 O.co2     1 GDP501      0.0000 
      9 O5'       203.8850  193.8360  325.6910 O.3       1 GDP501      0.0000 
     10 C5'       204.9010  192.9900  326.1360 C.3       1 GDP501      0.0000 
     11 C4'       205.9060  192.6220  325.0790 C.3       1 GDP501      0.0000 
     12 O4'       206.3940  193.7360  324.3860 O.3       1 GDP501      0.0000 
     13 C3'       207.1430  191.9300  325.6420 C.3       1 GDP501      0.0000 
     14 O3'       207.2090  190.5750  325.1580 O.3       1 GDP501      0.0000 
     15 C2'       208.3750  192.7630  325.2510 C.3       1 GDP501      0.0000 
     16 O2'       209.4170  191.9140  324.7410 O.3       1 GDP501      0.0000 
     17 C1'       207.8050  193.5730  324.1340 C.3       1 GDP501      0.0000 
     18 N9        208.5060  194.8630  324.0440 N.pl3     1 GDP501      0.0000 
     19 C8        208.4950  195.8200  324.9540 C.2       1 GDP501      0.0000 
     20 N7        209.2230  196.8930  324.5450 N.2       1 GDP501      0.0000 
     21 C5        209.7660  196.5800  323.3700 C.2       1 GDP501      0.0000 
     22 C6        210.6540  197.2220  322.3660 C.2       1 GDP501      0.0000 
     23 O6        211.0950  198.3780  322.5460 O.2       1 GDP501      0.0000 
     24 N1        210.9860  196.5340  321.2530 N.am      1 GDP501      0.0000 
     25 C2        210.4980  195.3110  321.0320 C.2       1 GDP501      0.0000 
     26 N2        210.8730  194.7110  319.8930 N.pl3     1 GDP501      0.0000 
     27 N3        209.6720  194.6600  321.8950 N.2       1 GDP501      0.0000 
     28 C4        209.2810  195.2330  323.0490 C.2       1 GDP501      0.0000 
@<TRIPOS>BOND
     1    1    2 ar   
     2    1    3 ar   
     3    1    4 ar   
     4    1    5 1    
     5    5    6 1    
     6    6    7 ar   
     7    6    8 ar   
     8    6    9 1    
     9    9   10 1    
    10   10   11 1    
    11   11   12 1    
    12   11   13 1    
    13   12   17 1    
    14   13   14 1    
    15   13   15 1    
    16   15   16 1    
    17   15   17 1    
    18   17   18 1    
    19   18   19 1    
    20   18   28 1    
    21   19   20 2    
    22   20   21 1    
    23   21   22 1    
    24   21   28 2    
    25   22   23 2    
    26   22   24 am   
    27   24   25 1    
    28   25   26 1    
    29   25   27 2    
    30   27   28 1    
@<TRIPOS>SUBSTRUCTURE
     1 GDP501      1 GROUP   
@<TRIPOS>SET
ATOM$ORANGE STATIC     ATOMS   COLORGROUP SYSTEM 
20 10 10 11 11 13 13 15 15 17 17 19 19 21 21 22 22 25 \
25 28 28 

