#    Name: 6rza_3_GTP
#    Modification time : Fri May 22 19:24:28 2020

@<TRIPOS>MOLECULE
6rza_3_GTP
   32    34     1     0     1
SMALL
NO_CHARGES


@<TRIPOS>ATOM
      1 PG        246.8340  170.5630  278.3370 P.3       1 GTP501      0.0000 
      2 O1G       246.2970  169.4140  279.1160 O.co2     1 GTP501      0.0000 
      3 O2G       245.7900  171.6050  278.1240 O.co2     1 GTP501      0.0000 
      4 O3G       248.1060  171.1680  278.9150 O.co2     1 GTP501      0.0000 
      5 O3B       247.1800  170.0520  276.8730 O.3       1 GTP501      0.0000 
      6 PB        248.0860  170.7610  275.7710 P.3       1 GTP501      0.0000 
      7 O1B       248.0600  172.2270  276.0220 O.co2     1 GTP501      0.0000 
      8 O2B       247.8380  170.1910  274.4290 O.co2     1 GTP501      0.0000 
      9 O3A       249.5000  170.2190  276.2350 O.3       1 GTP501      0.0000 
     10 PA        250.9460  170.5180  275.6240 P.3       1 GTP501      0.0000 
     11 O1A       251.5120  171.7140  276.3320 O.co2     1 GTP501      0.0000 
     12 O2A       250.8980  170.5590  274.1480 O.co2     1 GTP501      0.0000 
     13 O5'       251.6810  169.1680  276.0740 O.3       1 GTP501      0.0000 
     14 C5'       253.0700  168.9260  275.8300 C.3       1 GTP501      0.0000 
     15 C4'       253.3220  168.5520  274.3950 C.3       1 GTP501      0.0000 
     16 O4'       253.2760  169.7560  273.5990 O.3       1 GTP501      0.0000 
     17 C3'       254.7310  168.0350  274.1260 C.3       1 GTP501      0.0000 
     18 O3'       254.7830  167.3530  272.8870 O.3       1 GTP501      0.0000 
     19 C2'       255.5090  169.3550  274.1330 C.3       1 GTP501      0.0000 
     20 O2'       256.8090  169.3110  273.6030 O.3       1 GTP501      0.0000 
     21 C1'       254.5800  170.1590  273.2430 C.3       1 GTP501      0.0000 
     22 N9        254.6900  171.5920  273.4490 N.pl3     1 GTP501      0.0000 
     23 C8        254.2100  172.2760  274.5300 C.2       1 GTP501      0.0000 
     24 N7        254.3910  173.5710  274.4330 N.2       1 GTP501      0.0000 
     25 C5        255.0340  173.7530  273.2150 C.2       1 GTP501      0.0000 
     26 C6        255.4790  174.9520  272.5800 C.2       1 GTP501      0.0000 
     27 O6        255.3300  176.1280  272.9640 O.2       1 GTP501      0.0000 
     28 N1        256.0870  174.6720  271.3540 N.am      1 GTP501      0.0000 
     29 C2        256.2470  173.4170  270.8240 C.2       1 GTP501      0.0000 
     30 N2        256.8350  173.3480  269.6330 N.pl3     1 GTP501      0.0000 
     31 N3        255.8240  172.2930  271.4060 N.2       1 GTP501      0.0000 
     32 C4        255.2330  172.5320  272.6030 C.2       1 GTP501      0.0000 
@<TRIPOS>BOND
     1    1    2 ar   
     2    1    3 ar   
     3    1    4 ar   
     4    1    5 1    
     5    5    6 1    
     6    6    7 ar   
     7    6    8 ar   
     8    6    9 1    
     9    9   10 1    
    10   10   11 ar   
    11   10   12 ar   
    12   10   13 1    
    13   13   14 1    
    14   14   15 1    
    15   15   16 1    
    16   15   17 1    
    17   16   21 1    
    18   17   18 1    
    19   17   19 1    
    20   19   20 1    
    21   19   21 1    
    22   21   22 1    
    23   22   23 1    
    24   22   32 1    
    25   23   24 2    
    26   24   25 1    
    27   25   26 1    
    28   25   32 2    
    29   26   27 2    
    30   26   28 am   
    31   28   29 1    
    32   29   30 1    
    33   29   31 2    
    34   31   32 1    
@<TRIPOS>SUBSTRUCTURE
     1 GTP501      1 GROUP   
@<TRIPOS>SET
ATOM$ORANGE STATIC     ATOMS   COLORGROUP SYSTEM 
20 14 14 15 15 17 17 19 19 21 21 23 23 25 25 26 26 29 \
29 32 32 

