#    Name: 6rza_2_TA1_CAVITY_N1_12
#    Modification time : Fri May 22 19:24:21 2020

@<TRIPOS>MOLECULE
6rza_2_TA1_CAVITY_N1_12
   88     0     7     0     0
SMALL
NO_CHARGES


@<TRIPOS>ATOM
      1 OG        220.1200  198.3700  309.5800 O.3       1 SER1        0.0000 
      2 OG        221.3800  197.7400  311.1600 O.3       1 SER1        0.0000 
      3 OG        221.1600  199.0300  310.4300 O.3       1 SER1        0.0000 
      4 OG        222.2100  199.6900  311.2800 O.3       1 SER1        0.0000 
      5 OG        223.2500  200.3400  312.1300 O.3       1 SER1        0.0000 
      6 N         222.6600  195.0200  309.0500 N.am      2 ALA2        0.0000 
      7 N         222.4400  196.3100  308.3200 N.am      2 ALA2        0.0000 
      8 N         222.2200  197.6000  307.5900 N.am      2 ALA2        0.0000 
      9 N         223.2800  197.2100  306.5900 N.am      2 ALA2        0.0000 
     10 N         223.7000  195.6700  309.9000 N.am      2 ALA2        0.0000 
     11 N         223.4900  196.9700  309.1700 N.am      2 ALA2        0.0000 
     12 N         224.5400  196.5800  308.1700 N.am      2 ALA2        0.0000 
     13 N         224.3200  197.8700  307.4400 N.am      2 ALA2        0.0000 
     14 O         225.3800  197.4800  306.4500 O.2       2 ALA2        0.0000 
     15 N         224.5300  197.6200  310.0200 N.am      2 ALA2        0.0000 
     16 N         225.5800  197.2300  309.0300 N.am      2 ALA2        0.0000 
     17 O         226.4200  198.1400  307.3000 O.2       2 ALA2        0.0000 
     18 N         224.7400  197.3700  312.6000 N.am      2 ALA2        0.0000 
     19 N         225.5800  198.2800  310.8700 N.am      2 ALA2        0.0000 
     20 O         226.8400  197.6400  312.4600 O.2       2 ALA2        0.0000 
     21 OD1       226.0000  196.7300  314.1800 O.co2     3 ASP3        0.0000 
     22 OD1       224.7300  198.4100  314.4500 O.co2     3 ASP3        0.0000 
     23 OD1       225.7800  198.0300  313.4500 O.co2     3 ASP3        0.0000 
     24 OD1       223.4600  200.0900  314.7100 O.co2     3 ASP3        0.0000 
     25 OD1       224.5100  199.7100  313.7200 O.co2     3 ASP3        0.0000 
     26 OD1       225.5700  199.3200  312.7200 O.co2     3 ASP3        0.0000 
     27 OD1       226.6200  198.9300  311.7300 O.co2     3 ASP3        0.0000 
     28 OD1       224.5100  200.7500  315.5600 O.co2     3 ASP3        0.0000 
     29 NZ        222.6200  199.1900  316.4400 N.4       4 LYS4        0.0000 
     30 NZ        221.3500  200.8700  316.7000 N.4       4 LYS4        0.0000 
     31 CZ        219.2900  196.4300  309.4500 C.ar      5 PHE5        0.0000 
     32 CZ        220.3400  196.0400  308.4600 C.ar      5 PHE5        0.0000 
     33 CZ        219.0700  197.7200  308.7200 C.ar      5 PHE5        0.0000 
     34 CZ        221.3900  196.7000  309.3100 C.ar      5 PHE5        0.0000 
     35 CZ        219.0600  198.7600  310.5700 C.ar      5 PHE5        0.0000 
     36 CZ        221.1700  197.9900  308.5800 C.ar      5 PHE5        0.0000 
     37 CZ        220.3200  198.1200  312.1500 C.ar      5 PHE5        0.0000 
     38 CZ        220.5300  197.8800  314.7300 C.ar      5 PHE5        0.0000 
     39 CZ        221.3700  198.7800  313.0100 C.ar      5 PHE5        0.0000 
     40 CZ        222.4200  198.3900  312.0100 C.ar      5 PHE5        0.0000 
     41 CZ        220.3100  200.2100  315.8500 C.ar      5 PHE5        0.0000 
     42 CZ        221.3600  199.8200  314.8500 C.ar      5 PHE5        0.0000 
     43 CZ        222.4100  199.4400  313.8600 C.ar      5 PHE5        0.0000 
     44 CZ        222.2000  200.7300  313.1300 C.ar      5 PHE5        0.0000 
     45 CZ        222.4100  200.4800  315.7100 C.ar      5 PHE5        0.0000 
     46 CA        218.2300  196.8100  310.4500 C.3       6 GLY6        0.0000 
     47 CA        218.0200  198.1100  309.7200 C.3       6 GLY6        0.0000 
     48 CA        220.5500  195.7900  311.0400 C.3       6 GLY6        0.0000 
     49 CA        221.6000  195.4000  310.0400 C.3       6 GLY6        0.0000 
     50 CA        219.2800  197.4700  311.3000 C.3       6 GLY6        0.0000 
     51 CA        220.9600  199.2800  307.8500 C.3       6 GLY6        0.0000 
     52 CA        222.0100  198.8900  306.8600 C.3       6 GLY6        0.0000 
     53 CA        220.5400  196.8300  312.8800 C.3       6 GLY6        0.0000 
     54 CA        221.5900  196.4500  311.8900 C.3       6 GLY6        0.0000 
     55 CA        222.6500  196.0600  310.8900 C.3       6 GLY6        0.0000 
     56 CA        223.0500  199.5500  307.7100 C.3       6 GLY6        0.0000 
     57 CA        224.1100  199.1600  306.7100 C.3       6 GLY6        0.0000 
     58 CA        221.8000  196.2000  314.4700 C.3       6 GLY6        0.0000 
     59 CA        221.5800  197.4900  313.7400 C.3       6 GLY6        0.0000 
     60 CA        222.6400  197.1000  312.7400 C.3       6 GLY6        0.0000 
     61 CA        223.6900  196.7200  311.7500 C.3       6 GLY6        0.0000 
     62 CA        226.2100  199.4300  306.5700 C.3       6 GLY6        0.0000 
     63 CA        222.8500  196.8500  315.3200 C.3       6 GLY6        0.0000 
     64 CA        223.9000  196.4700  314.3200 C.3       6 GLY6        0.0000 
     65 CA        224.9500  196.0800  313.3300 C.3       6 GLY6        0.0000 
     66 CA        221.5800  198.5300  315.5800 C.3       6 GLY6        0.0000 
     67 CA        222.6300  198.1400  314.5900 C.3       6 GLY6        0.0000 
     68 CA        224.9500  197.1200  315.1800 C.3       6 GLY6        0.0000 
     69 CA        223.6800  198.8000  315.4400 C.3       6 GLY6        0.0000 
     70 DU        220.3300  197.0800  310.3100 H         7 CUB7        0.0000 
     71 DU        222.4300  197.3500  310.1600 H         7 CUB7        0.0000 
     72 DU        222.2200  198.6400  309.4300 H         7 CUB7        0.0000 
     73 DU        223.2700  198.2600  308.4400 H         7 CUB7        0.0000 
     74 DU        222.0000  199.9400  308.7000 H         7 CUB7        0.0000 
     75 DU        223.4800  198.0100  311.0200 H         7 CUB7        0.0000 
     76 DU        223.2600  199.3000  310.2900 H         7 CUB7        0.0000 
     77 DU        224.3200  198.9100  309.2900 H         7 CUB7        0.0000 
     78 DU        225.3700  198.5300  308.3000 H         7 CUB7        0.0000 
     79 DU        223.0500  200.5900  309.5600 H         7 CUB7        0.0000 
     80 DU        224.1000  200.2100  308.5600 H         7 CUB7        0.0000 
     81 DU        225.1500  199.8200  307.5700 H         7 CUB7        0.0000 
     82 DU        223.6800  197.7600  313.5900 H         7 CUB7        0.0000 
     83 DU        223.4700  199.0500  312.8600 H         7 CUB7        0.0000 
     84 DU        224.5200  198.6600  311.8700 H         7 CUB7        0.0000 
     85 DU        224.3100  199.9600  311.1400 H         7 CUB7        0.0000 
     86 DU        225.3600  199.5700  310.1400 H         7 CUB7        0.0000 
     87 DU        226.4100  199.1800  309.1500 H         7 CUB7        0.0000 
     88 DU        227.2500  200.0900  307.4200 H         7 CUB7        0.0000 
@<TRIPOS>BOND
@<TRIPOS>SUBSTRUCTURE
     1 SER1        1 GROUP   
     2 ALA2        6 GROUP   
     3 ASP3       21 GROUP   
     4 LYS4       29 GROUP   
     5 PHE5       31 GROUP   
     6 GLY6       46 GROUP   
     7 CUB7       70 GROUP   
@<TRIPOS>SET

