#    Name: 6rza_6_GDP_CAVITY_N1_12
#    Modification time : Fri May 22 19:24:37 2020

@<TRIPOS>MOLECULE
6rza_6_GDP_CAVITY_N1_12
  101     0     6     0     0
SMALL
NO_CHARGES


@<TRIPOS>ATOM
      1 OG        205.8500  190.9600  322.2200 O.3       1 SER1        0.0000 
      2 OG        204.7900  192.3900  325.0700 O.3       1 SER1        0.0000 
      3 OG        205.8400  192.0000  324.0700 O.3       1 SER1        0.0000 
      4 OG        204.5700  193.6800  324.3400 O.3       1 SER1        0.0000 
      5 OG        205.6300  193.2900  323.3400 O.3       1 SER1        0.0000 
      6 OG        200.9700  198.4700  327.7100 O.3       1 SER1        0.0000 
      7 OG        207.9300  193.3100  325.7800 O.3       1 SER1        0.0000 
      8 OG        208.9900  192.9300  324.7800 O.3       1 SER1        0.0000 
      9 OG        208.7700  194.2200  324.0500 O.3       1 SER1        0.0000 
     10 OG        208.9800  193.9700  326.6300 O.3       1 SER1        0.0000 
     11 OG        208.7600  195.2600  325.9000 O.3       1 SER1        0.0000 
     12 OG        209.8200  194.8700  324.9000 O.3       1 SER1        0.0000 
     13 N         206.0700  189.6600  322.9500 N.am      2 ALA2        0.0000 
     14 N         208.3800  188.6400  323.5400 N.am      2 ALA2        0.0000 
     15 O         208.1700  189.9300  322.8100 O.2       2 ALA2        0.0000 
     16 O         206.9000  191.6100  323.0800 O.2       2 ALA2        0.0000 
     17 O         200.1400  196.5200  327.5900 O.2       2 ALA2        0.0000 
     18 O         201.2000  196.1300  326.5900 O.2       2 ALA2        0.0000 
     19 O         203.7300  193.8200  327.9100 O.2       2 ALA2        0.0000 
     20 O         207.9400  192.2700  323.9300 O.2       2 ALA2        0.0000 
     21 N         202.4600  195.4900  328.1700 N.am      2 ALA2        0.0000 
     22 N         207.7300  193.5600  323.2000 N.am      2 ALA2        0.0000 
     23 N         201.1900  197.1700  328.4400 N.am      2 ALA2        0.0000 
     24 O         204.3500  196.0100  325.4500 O.2       2 ALA2        0.0000 
     25 O         209.6200  194.0800  320.4800 O.2       2 ALA2        0.0000 
     26 N         210.6700  193.6900  319.4800 N.am      2 ALA2        0.0000 
     27 O         202.0300  198.0800  326.7100 O.2       2 ALA2        0.0000 
     28 N         203.7200  194.8600  329.7600 N.am      2 ALA2        0.0000 
     29 N         202.4500  196.5400  330.0200 N.am      2 ALA2        0.0000 
     30 N         203.5000  196.1500  329.0300 N.am      2 ALA2        0.0000 
     31 O         204.5600  195.7600  328.0300 O.2       2 ALA2        0.0000 
     32 O         205.6100  195.3800  327.0400 O.2       2 ALA2        0.0000 
     33 O         203.2900  197.4400  328.3000 O.2       2 ALA2        0.0000 
     34 O         204.3400  197.0600  327.3000 O.2       2 ALA2        0.0000 
     35 O         205.4000  196.6700  326.3100 O.2       2 ALA2        0.0000 
     36 O         206.4500  196.2800  325.3100 O.2       2 ALA2        0.0000 
     37 N         209.3900  196.4200  321.6000 N.am      2 ALA2        0.0000 
     38 N         210.4500  196.0300  320.6000 N.am      2 ALA2        0.0000 
     39 N         211.5000  195.6400  319.6100 N.am      2 ALA2        0.0000 
     40 O         204.5500  196.8100  329.8800 O.2       2 ALA2        0.0000 
     41 O         207.7100  195.6500  326.8900 O.2       2 ALA2        0.0000 
     42 O         207.4900  196.9400  326.1600 O.2       2 ALA2        0.0000 
     43 N         208.5500  196.5500  325.1700 N.am      2 ALA2        0.0000 
     44 N         209.3900  197.4600  323.4400 N.am      2 ALA2        0.0000 
     45 N         209.5900  197.2100  326.0200 N.am      2 ALA2        0.0000 
     46 NZ        205.0100  190.0500  323.9500 N.4       3 LYS4        0.0000 
     47 NZ        207.3300  189.0300  324.5400 N.4       3 LYS4        0.0000 
     48 NZ        205.0000  191.0900  325.8000 N.4       3 LYS4        0.0000 
     49 NZ        206.0600  190.7100  324.8000 N.4       3 LYS4        0.0000 
     50 NZ        207.1100  190.3200  323.8100 N.4       3 LYS4        0.0000 
     51 NZ        208.3700  189.6800  325.3900 N.4       3 LYS4        0.0000 
     52 NZ        209.4300  189.3000  324.3900 N.4       3 LYS4        0.0000 
     53 NZ        208.1600  190.9800  324.6600 N.4       3 LYS4        0.0000 
     54 NZ        200.1300  197.5600  329.4300 N.4       3 LYS4        0.0000 
     55 NZ        199.9200  198.8500  328.7000 N.4       3 LYS4        0.0000 
     56 NZ        209.2000  191.6300  325.5100 N.4       3 LYS4        0.0000 
     57 NZ        202.2300  197.8300  329.2900 N.4       3 LYS4        0.0000 
     58 NZ        202.0200  199.1200  328.5600 N.4       3 LYS4        0.0000 
     59 NZ        203.2800  198.4900  330.1400 N.4       3 LYS4        0.0000 
     60 CZ        209.8300  193.8300  323.0600 C.ar      4 PHE5        0.0000 
     61 CZ        209.6100  195.1200  322.3300 C.ar      4 PHE5        0.0000 
     62 CZ        210.6600  194.7400  321.3300 C.ar      4 PHE5        0.0000 
     63 CZ        209.6000  196.1700  324.1700 C.ar      4 PHE5        0.0000 
     64 CZ        210.4400  197.0700  322.4500 C.ar      4 PHE5        0.0000 
     65 CZ        211.4900  196.6800  321.4500 C.ar      4 PHE5        0.0000 
     66 CZ        209.8100  195.9200  326.7500 C.ar      4 PHE5        0.0000 
     67 CZ        210.6500  196.8200  325.0300 C.ar      4 PHE5        0.0000 
     68 CA        201.2000  195.0900  324.7400 C.3       5 GLY6        0.0000 
     69 CA        203.7300  192.7700  326.0600 C.3       5 GLY6        0.0000 
     70 CA        201.4100  194.8400  327.3200 C.3       5 GLY6        0.0000 
     71 CA        203.5200  194.0700  325.3300 C.3       5 GLY6        0.0000 
     72 CA        202.2500  195.7400  325.6000 C.3       5 GLY6        0.0000 
     73 CA        203.3000  195.3600  324.6000 C.3       5 GLY6        0.0000 
     74 CA        199.9300  197.8100  326.8600 C.3       5 GLY6        0.0000 
     75 CA        200.9800  197.4200  325.8600 C.3       5 GLY6        0.0000 
     76 CA        202.0300  197.0400  324.8700 C.3       5 GLY6        0.0000 
     77 CA        206.0500  191.7500  326.6500 C.3       5 GLY6        0.0000 
     78 CA        207.1000  191.3600  325.6500 C.3       5 GLY6        0.0000 
     79 CA        204.7800  193.4300  326.9100 C.3       5 GLY6        0.0000 
     80 CA        203.5100  195.1100  327.1800 C.3       5 GLY6        0.0000 
     81 CA        205.6200  194.3300  325.1900 C.3       5 GLY6        0.0000 
     82 CA        206.6700  193.9500  324.1900 C.3       5 GLY6        0.0000 
     83 CA        203.3000  196.4000  326.4500 C.3       5 GLY6        0.0000 
     84 CA        209.4000  195.3700  319.7500 C.3       5 GLY6        0.0000 
     85 CA        210.4600  194.9900  318.7500 C.3       5 GLY6        0.0000 
     86 CA        206.0400  192.7900  328.5000 C.3       5 GLY6        0.0000 
     87 CA        207.1000  192.4100  327.5000 C.3       5 GLY6        0.0000 
     88 CA        208.1500  192.0200  326.5100 C.3       5 GLY6        0.0000 
     89 CA        207.7200  194.6000  325.0500 C.3       5 GLY6        0.0000 
     90 CA        207.5000  195.9000  324.3200 C.3       5 GLY6        0.0000 
     91 CA        208.5600  195.5100  323.3200 C.3       5 GLY6        0.0000 
     92 CA        203.0700  198.7400  327.5700 C.3       5 GLY6        0.0000 
     93 CA        208.3400  196.8000  322.5900 C.3       5 GLY6        0.0000 
     94 DU        205.8300  193.0400  325.9200 H         6 CUB7        0.0000 
     95 DU        206.8900  192.6600  324.9200 H         6 CUB7        0.0000 
     96 DU        204.5600  194.7200  326.1800 H         6 CUB7        0.0000 
     97 DU        202.2400  196.7900  327.4400 H         6 CUB7        0.0000 
     98 DU        205.8300  194.0800  327.7700 H         6 CUB7        0.0000 
     99 DU        206.8800  193.7000  326.7700 H         6 CUB7        0.0000 
    100 DU        206.6600  194.9900  326.0400 H         6 CUB7        0.0000 
    101 DU        207.9300  194.3500  327.6200 H         6 CUB7        0.0000 
@<TRIPOS>BOND
@<TRIPOS>SUBSTRUCTURE
     1 SER1        1 GROUP   
     2 ALA2       13 GROUP   
     3 LYS4       46 GROUP   
     4 PHE5       60 GROUP   
     5 GLY6       68 GROUP   
     6 CUB7       94 GROUP   
@<TRIPOS>SET

