#    Name: 6rza_4_GDP_CAVITY_N1_4
#    Modification time : Fri May 22 19:24:33 2020

@<TRIPOS>MOLECULE
6rza_4_GDP_CAVITY_N1_4
  110     0     6     0     0
SMALL
NO_CHARGES


@<TRIPOS>ATOM
      1 OG        253.4600  166.5500  314.2900 O.3       1 SER1        0.0000 
      2 OG        250.9200  169.9100  314.8200 O.3       1 SER1        0.0000 
      3 OG        253.2300  168.8900  315.4100 O.3       1 SER1        0.0000 
      4 OG        254.2900  168.5000  314.4100 O.3       1 SER1        0.0000 
      5 OG        253.0200  170.1800  314.6700 O.3       1 SER1        0.0000 
      6 OG        254.0700  169.7900  313.6800 O.3       1 SER1        0.0000 
      7 OG        255.1100  171.4900  316.3800 O.3       1 SER1        0.0000 
      8 OG        256.1600  171.1000  315.3800 O.3       1 SER1        0.0000 
      9 OG        254.8900  172.7800  315.6500 O.3       1 SER1        0.0000 
     10 OG        255.9500  172.4000  314.6500 O.3       1 SER1        0.0000 
     11 OG        256.3700  170.8500  317.9600 O.3       1 SER1        0.0000 
     12 OG        256.1500  172.1500  317.2300 O.3       1 SER1        0.0000 
     13 OG        255.9400  173.4400  316.5000 O.3       1 SER1        0.0000 
     14 O         247.7700  170.0300  315.9500 O.2       2 ALA2        0.0000 
     15 O         247.9700  169.7800  318.5300 O.2       2 ALA2        0.0000 
     16 O         247.7600  171.0700  317.8000 O.2       2 ALA2        0.0000 
     17 O         247.5400  172.3600  317.0700 O.2       2 ALA2        0.0000 
     18 O         248.6000  171.9800  316.0800 O.2       2 ALA2        0.0000 
     19 O         249.6500  171.5900  315.0800 O.2       2 ALA2        0.0000 
     20 N         247.9600  170.8200  320.3800 N.am      2 ALA2        0.0000 
     21 N         250.0700  170.0500  318.3900 N.am      2 ALA2        0.0000 
     22 N         248.8000  171.7300  318.6500 N.am      2 ALA2        0.0000 
     23 O         249.8600  171.3400  317.6600 O.2       2 ALA2        0.0000 
     24 O         250.7000  172.2400  315.9300 O.2       2 ALA2        0.0000 
     25 N         249.0100  171.4800  321.2300 N.am      2 ALA2        0.0000 
     26 N         250.0600  171.0900  320.2400 N.am      2 ALA2        0.0000 
     27 N         251.1200  170.7000  319.2400 N.am      2 ALA2        0.0000 
     28 O         256.3900  168.7700  314.2700 O.2       2 ALA2        0.0000 
     29 O         249.8500  172.3800  319.5100 O.2       2 ALA2        0.0000 
     30 O         250.9000  171.9900  318.5100 O.2       2 ALA2        0.0000 
     31 O         251.9600  171.6100  317.5200 O.2       2 ALA2        0.0000 
     32 O         255.1200  170.4500  314.5300 O.2       2 ALA2        0.0000 
     33 O         256.1700  170.0600  313.5400 O.2       2 ALA2        0.0000 
     34 O         248.5800  174.0600  319.7700 O.2       2 ALA2        0.0000 
     35 O         251.7400  172.9000  316.7900 O.2       2 ALA2        0.0000 
     36 N         254.9000  171.7400  313.8000 N.am      2 ALA2        0.0000 
     37 O         255.9600  171.3500  312.8100 O.2       2 ALA2        0.0000 
     38 N         254.6900  173.0300  313.0700 N.am      2 ALA2        0.0000 
     39 N         255.7400  172.6500  312.0800 N.am      2 ALA2        0.0000 
     40 O         256.7900  172.2600  311.0800 O.2       2 ALA2        0.0000 
     41 N         254.4700  174.3300  312.3400 N.am      2 ALA2        0.0000 
     42 N         255.5300  173.9400  311.3500 N.am      2 ALA2        0.0000 
     43 N         256.5800  173.5500  310.3500 N.am      2 ALA2        0.0000 
     44 O         252.1600  171.3600  320.0900 O.2       2 ALA2        0.0000 
     45 O         253.0000  172.2600  318.3700 O.2       2 ALA2        0.0000 
     46 O         257.2200  170.7200  314.3900 O.2       2 ALA2        0.0000 
     47 O         253.8400  173.1700  316.6400 O.2       2 ALA2        0.0000 
     48 O         257.0000  172.0100  313.6600 O.2       2 ALA2        0.0000 
     49 N         254.6800  174.0800  314.9200 N.am      2 ALA2        0.0000 
     50 N         254.6700  175.1200  316.7700 N.am      2 ALA2        0.0000 
     51 N         255.5100  176.0200  315.0400 N.am      2 ALA2        0.0000 
     52 N         255.7200  175.7700  317.6200 N.am      2 ALA2        0.0000 
     53 N         255.5000  177.0700  316.8900 N.am      2 ALA2        0.0000 
     54 NZ        246.7000  171.4600  318.8000 N.4       3 LYS4        0.0000 
     55 NZ        253.4500  167.5900  316.1400 N.4       3 LYS4        0.0000 
     56 NZ        254.5000  167.2100  315.1400 N.4       3 LYS4        0.0000 
     57 NZ        255.5600  166.8200  314.1500 N.4       3 LYS4        0.0000 
     58 NZ        246.9100  171.2100  321.3800 N.4       3 LYS4        0.0000 
     59 NZ        247.7500  172.1100  319.6500 N.4       3 LYS4        0.0000 
     60 NZ        247.5300  173.4000  318.9200 N.4       3 LYS4        0.0000 
     61 NZ        255.5500  167.8600  315.9900 N.4       3 LYS4        0.0000 
     62 NZ        256.6000  167.4800  315.0000 N.4       3 LYS4        0.0000 
     63 NZ        247.9600  171.8600  322.2300 N.4       3 LYS4        0.0000 
     64 NZ        248.7900  172.7700  320.5000 N.4       3 LYS4        0.0000 
     65 NZ        256.3800  169.8100  316.1100 N.4       3 LYS4        0.0000 
     66 NZ        257.4300  169.4300  315.1200 N.4       3 LYS4        0.0000 
     67 NZ        257.4200  170.4700  316.9700 N.4       3 LYS4        0.0000 
     68 CZ        255.7300  173.6900  313.9200 C.ar      4 PHE5        0.0000 
     69 CZ        256.7900  173.3000  312.9300 C.ar      4 PHE5        0.0000 
     70 CZ        255.5200  174.9800  313.1900 C.ar      4 PHE5        0.0000 
     71 CZ        256.5700  174.5900  312.2000 C.ar      4 PHE5        0.0000 
     72 CZ        257.6200  174.2100  311.2000 C.ar      4 PHE5        0.0000 
     73 CZ        255.7200  174.7300  315.7700 C.ar      4 PHE5        0.0000 
     74 CA        248.8200  169.6400  314.9600 C.3       5 GLY6        0.0000 
     75 CA        246.5000  171.7100  316.2200 C.3       5 GLY6        0.0000 
     76 CA        252.4000  166.9400  315.2800 C.3       5 GLY6        0.0000 
     77 CA        249.0300  169.3900  317.5400 C.3       5 GLY6        0.0000 
     78 CA        251.1300  168.6200  315.5500 C.3       5 GLY6        0.0000 
     79 CA        248.8100  170.6800  316.8100 C.3       5 GLY6        0.0000 
     80 CA        249.8700  170.3000  315.8100 C.3       5 GLY6        0.0000 
     81 CA        251.3400  168.3700  318.1300 C.3       5 GLY6        0.0000 
     82 CA        252.4000  167.9800  317.1300 C.3       5 GLY6        0.0000 
     83 CA        251.1300  169.6600  317.4000 C.3       5 GLY6        0.0000 
     84 CA        252.1800  169.2700  316.4000 C.3       5 GLY6        0.0000 
     85 CA        255.3400  168.1100  313.4200 C.3       5 GLY6        0.0000 
     86 CA        251.9600  170.5700  315.6700 C.3       5 GLY6        0.0000 
     87 CA        255.1300  169.4100  312.6800 C.3       5 GLY6        0.0000 
     88 CA        248.5900  173.0200  317.9200 C.3       5 GLY6        0.0000 
     89 CA        249.6400  172.6300  316.9300 C.3       5 GLY6        0.0000 
     90 CA        252.3900  169.0200  318.9800 C.3       5 GLY6        0.0000 
     91 CA        253.4400  168.6400  317.9800 C.3       5 GLY6        0.0000 
     92 CA        254.4900  168.2500  316.9900 C.3       5 GLY6        0.0000 
     93 CA        254.0600  170.8400  315.5300 C.3       5 GLY6        0.0000 
     94 CA        252.7900  172.5100  315.7900 C.3       5 GLY6        0.0000 
     95 CA        253.8500  172.1300  314.8000 C.3       5 GLY6        0.0000 
     96 CA        253.4300  169.6800  319.8300 C.3       5 GLY6        0.0000 
     97 CA        254.4900  169.2900  318.8400 C.3       5 GLY6        0.0000 
     98 CA        255.5400  168.9100  317.8400 C.3       5 GLY6        0.0000 
     99 CA        255.3200  170.2000  317.1100 C.3       5 GLY6        0.0000 
    100 CA        255.5300  169.9500  319.6900 C.3       5 GLY6        0.0000 
    101 CA        256.3400  177.9700  315.1600 C.3       5 GLY6        0.0000 
    102 DU        250.9100  170.9500  316.6600 H         6 CUB7        0.0000 
    103 DU        252.1700  170.3200  318.2500 H         6 CUB7        0.0000 
    104 DU        253.2300  169.9300  317.2500 H         6 CUB7        0.0000 
    105 DU        254.2800  169.5400  316.2600 H         6 CUB7        0.0000 
    106 DU        255.3300  169.1600  315.2600 H         6 CUB7        0.0000 
    107 DU        253.0100  171.2200  316.5200 H         6 CUB7        0.0000 
    108 DU        253.2200  170.9700  319.1000 H         6 CUB7        0.0000 
    109 DU        254.2700  170.5900  318.1000 H         6 CUB7        0.0000 
    110 DU        254.0600  171.8800  317.3700 H         6 CUB7        0.0000 
@<TRIPOS>BOND
@<TRIPOS>SUBSTRUCTURE
     1 SER1        1 GROUP   
     2 ALA2       14 GROUP   
     3 LYS4       54 GROUP   
     4 PHE5       68 GROUP   
     5 GLY6       74 GROUP   
     6 CUB7      102 GROUP   
@<TRIPOS>SET

