#    Name: 6pza_1_GBM
#    Modification time : Fri May 22 19:26:14 2020

@<TRIPOS>MOLECULE
6pza_1_GBM
   33    35     1     0     0
SMALL
NO_CHARGES


@<TRIPOS>ATOM
      1 O3        205.4010  281.2720  215.9240           1 GBM1601     0.0000 
      2 O4        206.3300  282.4630  217.6870           1 GBM1601     0.0000 
      3 O5        206.7830  280.8380  219.8300           1 GBM1601     0.0000 
      4 O6        201.0300  284.1130  221.5760           1 GBM1601     0.0000 
      5 CL1       199.3930  284.4900  227.3180           1 GBM1601     0.0000 
      6 S2        205.9010  281.0720  218.4580           1 GBM1601     0.0000 
      7 O7        203.3940  283.0570  223.2050           1 GBM1601     0.0000 
      8 N8        205.7580  279.2380  214.9500           1 GBM1601     0.0000 
      9 N9        206.0670  279.7530  217.4080           1 GBM1601     0.0000 
     10 N10       199.8650  282.2250  222.0140           1 GBM1601     0.0000 
     11 C11       205.3870  279.8030  213.6570           1 GBM1601     0.0000 
     12 C12       203.8870  279.7830  213.4400           1 GBM1601     0.0000 
     13 C13       205.9930  278.9980  212.5310           1 GBM1601     0.0000 
     14 C14       203.5850  280.6100  212.2050           1 GBM1601     0.0000 
     15 C15       205.7890  279.7820  211.2440           1 GBM1601     0.0000 
     16 C16       204.3210  280.1070  210.9740           1 GBM1601     0.0000 
     17 C17       205.7240  280.1460  216.0710           1 GBM1601     0.0000 
     18 C18       204.1500  281.1250  218.8750           1 GBM1601     0.0000 
     19 C19       201.4990  281.0580  219.5450           1 GBM1601     0.0000 
     20 C20       200.0410  280.9420  219.9340           1 GBM1601     0.0000 
     21 C21       203.3980  282.2790  218.7870           1 GBM1601     0.0000 
     22 C22       203.5830  279.9520  219.2870           1 GBM1601     0.0000 
     23 C23       202.0570  282.2430  219.1290           1 GBM1601     0.0000 
     24 C24       202.2530  279.9220  219.6320           1 GBM1601     0.0000 
     25 C25       199.5160  282.1860  220.6140           1 GBM1601     0.0000 
     26 C26       200.6980  283.3380  222.4020           1 GBM1601     0.0000 
     27 C27       201.1420  283.5320  223.8390           1 GBM1601     0.0000 
     28 C28       202.4610  283.3910  224.1830           1 GBM1601     0.0000 
     29 C29       200.2060  283.8700  224.7830           1 GBM1601     0.0000 
     30 C30       202.8610  283.5870  225.4880           1 GBM1601     0.0000 
     31 C31       200.6010  284.0580  226.0860           1 GBM1601     0.0000 
     32 C32       201.9230  283.9150  226.4430           1 GBM1601     0.0000 
     33 C33       204.2400  282.0020  223.5610           1 GBM1601     0.0000 
@<TRIPOS>BOND
     1    1   17 du   
     2    2    6 du   
     3    3    6 du   
     4    4   26 du   
     5    5   31 du   
     6    6    9 du   
     7    6   18 du   
     8    7   28 du   
     9    7   33 du   
    10    8   11 du   
    11    8   17 du   
    12    9   17 du   
    13   10   25 du   
    14   10   26 du   
    15   11   12 du   
    16   11   13 du   
    17   12   14 du   
    18   13   15 du   
    19   14   16 du   
    20   15   16 du   
    21   18   21 du   
    22   18   22 du   
    23   19   20 du   
    24   19   23 du   
    25   19   24 du   
    26   20   25 du   
    27   21   23 du   
    28   22   24 du   
    29   26   27 du   
    30   27   28 du   
    31   27   29 du   
    32   28   30 du   
    33   29   31 du   
    34   30   32 du   
    35   31   32 du   
@<TRIPOS>SUBSTRUCTURE
     1 GBM1601     1 GROUP   
@<TRIPOS>SET

