#    Name: 6pza_2_ATP
#    Modification time : Fri May 22 19:26:33 2020

@<TRIPOS>MOLECULE
6pza_2_ATP
   31    33     1     0     1
SMALL
NO_CHARGES


@<TRIPOS>ATOM
      1 PG        194.6000  297.7710  170.0210 P.3       1 ATP1602     0.0000 
      2 O1G       193.9710  298.9060  169.2580 O.co2     1 ATP1602     0.0000 
      3 O2G       194.8950  296.5570  169.1830 O.co2     1 ATP1602     0.0000 
      4 O3G       195.6980  298.1680  170.9720 O.co2     1 ATP1602     0.0000 
      5 PB        192.0450  296.8220  170.2810 P.3       1 ATP1602     0.0000 
      6 O1B       191.7920  297.7510  169.1230 O.co2     1 ATP1602     0.0000 
      7 O2B       192.0840  295.3320  170.0590 O.co2     1 ATP1602     0.0000 
      8 O3B       193.4120  297.2810  170.9740 O.3       1 ATP1602     0.0000 
      9 PA        189.4250  296.9590  171.0600 P.3       1 ATP1602     0.0000 
     10 O1A       189.0730  295.4930  171.1420 O.co2     1 ATP1602     0.0000 
     11 O2A       189.2330  297.7280  169.7860 O.co2     1 ATP1602     0.0000 
     12 O3A       190.9710  297.1370  171.4260 O.3       1 ATP1602     0.0000 
     13 O5'       188.7020  297.7940  172.2320 O.3       1 ATP1602     0.0000 
     14 C5'       187.4040  298.3530  172.0170 C.3       1 ATP1602     0.0000 
     15 C4'       186.9490  299.0820  173.2700 C.3       1 ATP1602     0.0000 
     16 O4'       186.5220  298.1410  174.2440 O.3       1 ATP1602     0.0000 
     17 C3'       188.0910  299.8880  173.8470 C.3       1 ATP1602     0.0000 
     18 O3'       187.7450  301.2740  173.8090 O.3       1 ATP1602     0.0000 
     19 C2'       188.2150  299.4280  175.2800 C.3       1 ATP1602     0.0000 
     20 O2'       188.0970  300.5490  176.1610 O.3       1 ATP1602     0.0000 
     21 C1'       187.0730  298.4580  175.5130 C.3       1 ATP1602     0.0000 
     22 N9        187.6280  297.1910  176.0150 N.pl3     1 ATP1602     0.0000 
     23 C8        187.8390  296.1170  175.2400 C.2       1 ATP1602     0.0000 
     24 N7        188.3410  295.0910  175.9640 N.2       1 ATP1602     0.0000 
     25 C5        188.4410  295.5090  177.2330 C.ar      1 ATP1602     0.0000 
     26 C6        188.8950  294.9170  178.5050 C.ar      1 ATP1602     0.0000 
     27 N6        189.3510  293.6440  178.5570 N.pl3     1 ATP1602     0.0000 
     28 N1        188.8410  295.6970  179.6060 N.ar      1 ATP1602     0.0000 
     29 C2        188.3930  296.9660  179.5610 C.ar      1 ATP1602     0.0000 
     30 N3        187.9660  297.5650  178.4390 N.ar      1 ATP1602     0.0000 
     31 C4        187.9610  296.8950  177.2660 C.ar      1 ATP1602     0.0000 
@<TRIPOS>BOND
     1    1    2 ar   
     2    1    3 ar   
     3    1    4 ar   
     4    1    8 1    
     5    5    6 ar   
     6    5    7 ar   
     7    5    8 1    
     8    5   12 1    
     9    9   10 ar   
    10    9   11 ar   
    11    9   12 1    
    12    9   13 1    
    13   13   14 1    
    14   14   15 1    
    15   15   16 1    
    16   15   17 1    
    17   16   21 1    
    18   17   18 1    
    19   17   19 1    
    20   19   20 1    
    21   19   21 1    
    22   21   22 1    
    23   22   23 1    
    24   22   31 1    
    25   23   24 2    
    26   24   25 1    
    27   25   26 ar   
    28   25   31 ar   
    29   26   27 1    
    30   26   28 ar   
    31   28   29 ar   
    32   29   30 ar   
    33   30   31 ar   
@<TRIPOS>SUBSTRUCTURE
     1 ATP1602     1 GROUP   
@<TRIPOS>SET
ATOM$ORANGE STATIC     ATOMS   COLORGROUP SYSTEM 
20 14 14 15 15 17 17 19 19 21 21 23 23 25 25 26 26 29 \
29 31 31 

