#    Name: 6pza_2_ATP_CAVITY_N1_6
#    Modification time : Fri May 22 19:26:35 2020

@<TRIPOS>MOLECULE
6pza_2_ATP_CAVITY_N1_6
   56     0     4     0     0
SMALL
NO_CHARGES


@<TRIPOS>ATOM
      1 N         193.0200  293.2300  165.9500 N.am      1 ALA2        0.0000 
      2 N         192.8100  296.0100  164.8500 N.am      1 ALA2        0.0000 
      3 N         192.7100  297.4100  164.3000 N.am      1 ALA2        0.0000 
      4 N         194.0600  298.7600  163.3700 N.am      1 ALA2        0.0000 
      5 N         194.8300  293.7500  166.9300 N.am      1 ALA2        0.0000 
      6 N         194.7300  295.1400  166.3800 N.am      1 ALA2        0.0000 
      7 N         193.0700  297.9700  165.6400 N.am      1 ALA2        0.0000 
      8 N         194.5200  297.9300  165.2700 N.am      1 ALA2        0.0000 
      9 O         193.6300  295.7400  168.0900 O.2       1 ALA2        0.0000 
     10 O         195.0800  295.7000  167.7200 O.2       1 ALA2        0.0000 
     11 O         193.4200  298.5300  166.9900 O.2       1 ALA2        0.0000 
     12 O         191.0800  296.3800  170.1700 O.2       1 ALA2        0.0000 
     13 O         192.5300  296.3400  169.8000 O.2       1 ALA2        0.0000 
     14 O         195.4400  296.2600  169.0700 O.2       1 ALA2        0.0000 
     15 O         196.8900  296.2200  168.7000 O.2       1 ALA2        0.0000 
     16 O         192.4300  297.7300  169.2500 O.2       1 ALA2        0.0000 
     17 O         193.8800  297.6900  168.8800 O.2       1 ALA2        0.0000 
     18 CZ        196.0800  296.5000  165.4600 C.ar      2 PHE5        0.0000 
     19 CZ        195.9700  297.8900  164.9000 C.ar      2 PHE5        0.0000 
     20 CZ        195.8700  299.2800  164.3500 C.ar      2 PHE5        0.0000 
     21 CZ        196.4300  297.0600  166.8000 C.ar      2 PHE5        0.0000 
     22 CZ        197.8900  297.0200  166.4300 C.ar      2 PHE5        0.0000 
     23 CZ        196.3300  298.4500  166.2500 C.ar      2 PHE5        0.0000 
     24 CA        189.7500  292.7500  165.3400 C.3       3 GLY6        0.0000 
     25 CA        191.2100  292.7100  164.9700 C.3       3 GLY6        0.0000 
     26 CA        188.2000  294.1800  165.1600 C.3       3 GLY6        0.0000 
     27 CA        189.6500  294.1400  164.7900 C.3       3 GLY6        0.0000 
     28 CA        191.1100  294.1000  164.4200 C.3       3 GLY6        0.0000 
     29 CA        189.5500  295.5300  164.2400 C.3       3 GLY6        0.0000 
     30 CA        191.0000  295.4900  163.8700 C.3       3 GLY6        0.0000 
     31 CA        191.6700  291.8800  166.8700 C.3       3 GLY6        0.0000 
     32 CA        192.9200  294.6200  165.4000 C.3       3 GLY6        0.0000 
     33 CA        194.3700  294.5800  165.0300 C.3       3 GLY6        0.0000 
     34 CA        191.3600  296.0500  165.2200 C.3       3 GLY6        0.0000 
     35 CA        194.2700  295.9800  164.4800 C.3       3 GLY6        0.0000 
     36 CA        194.1600  297.3700  163.9300 C.3       3 GLY6        0.0000 
     37 CA        193.3700  293.7900  167.3000 C.3       3 GLY6        0.0000 
     38 CA        193.2700  295.1800  166.7400 C.3       3 GLY6        0.0000 
     39 CA        196.1800  295.1000  166.0100 C.3       3 GLY6        0.0000 
     40 CA        191.7200  296.6100  166.5600 C.3       3 GLY6        0.0000 
     41 CA        193.1700  296.5700  166.1900 C.3       3 GLY6        0.0000 
     42 CA        194.4200  299.3200  164.7200 C.3       3 GLY6        0.0000 
     43 CA        194.3200  300.7100  164.1700 C.3       3 GLY6        0.0000 
     44 CA        192.1700  295.7800  168.4600 C.3       3 GLY6        0.0000 
     45 CA        196.5400  295.6600  167.3500 C.3       3 GLY6        0.0000 
     46 CA        197.9900  295.6200  166.9800 C.3       3 GLY6        0.0000 
     47 CA        190.6200  297.2100  168.2700 C.3       3 GLY6        0.0000 
     48 CA        192.0700  297.1700  167.9100 C.3       3 GLY6        0.0000 
     49 CA        194.7800  299.8800  166.0700 C.3       3 GLY6        0.0000 
     50 CA        198.4500  294.7900  168.8800 C.3       3 GLY6        0.0000 
     51 CA        198.3500  296.1800  168.3300 C.3       3 GLY6        0.0000 
     52 CA        190.9800  297.7700  169.6200 C.3       3 GLY6        0.0000 
     53 DU        194.6200  296.5400  165.8200 H         4 CUB7        0.0000 
     54 DU        193.5300  297.1300  167.5400 H         4 CUB7        0.0000 
     55 DU        194.9800  297.0900  167.1700 H         4 CUB7        0.0000 
     56 DU        194.8800  298.4900  166.6200 H         4 CUB7        0.0000 
@<TRIPOS>BOND
@<TRIPOS>SUBSTRUCTURE
     1 ALA2        1 GROUP   
     2 PHE5       18 GROUP   
     3 GLY6       24 GROUP   
     4 CUB7       53 GROUP   
@<TRIPOS>SET

