#    Name: 6uuz_4_COA
#    Modification time : Fri May 22 19:29:49 2020

@<TRIPOS>MOLECULE
6uuz_4_COA
   48    50     1     0     1
SMALL
NO_CHARGES


@<TRIPOS>ATOM
      1 N1A        13.7050   17.0060  -24.8030 N.ar      1 COA1201     0.0000 
      2 C2A        14.1780   17.4520  -25.9800 C.ar      1 COA1201     0.0000 
      3 N3A        13.9570   18.6910  -26.4490 N.ar      1 COA1201     0.0000 
      4 C4A        13.2240   19.5820  -25.7400 C.ar      1 COA1201     0.0000 
      5 C5A        12.6710   19.1700  -24.4420 C.ar      1 COA1201     0.0000 
      6 C6A        12.9590   17.7880  -23.9930 C.ar      1 COA1201     0.0000 
      7 N6A        12.4900   17.3240  -22.8100 N.pl3     1 COA1201     0.0000 
      8 N7A        11.9980   20.2290  -23.9570 N.2       1 COA1201     0.0000 
      9 C8A        12.1080   21.2320  -24.8660 C.2       1 COA1201     0.0000 
     10 N9A        12.8380   20.8440  -25.9290 N.pl3     1 COA1201     0.0000 
     11 C1B        13.1710   21.6730  -27.1130 C.3       1 COA1201     0.0000 
     12 C2B        11.9310   21.9700  -27.9380 C.3       1 COA1201     0.0000 
     13 O2B        11.8450   21.0790  -29.0550 O.3       1 COA1201     0.0000 
     14 C3B        12.0980   23.4140  -28.3740 C.3       1 COA1201     0.0000 
     15 O3B        12.7130   23.4950  -29.6570 O.3       1 COA1201     0.0000 
     16 P3B        11.8380   23.5370  -31.0060 P.3       1 COA1201     0.0000 
     17 O7A        10.4700   23.0710  -30.5710 O.co2     1 COA1201     0.0000 
     18 O8A        12.5600   22.5900  -31.9330 O.co2     1 COA1201     0.0000 
     19 O9A        11.8980   24.9840  -31.4300 O.co2     1 COA1201     0.0000 
     20 C4B        13.0460   24.0180  -27.3530 C.3       1 COA1201     0.0000 
     21 O4B        13.7050   22.9330  -26.6970 O.3       1 COA1201     0.0000 
     22 C5B        12.2970   24.8540  -26.3250 C.3       1 COA1201     0.0000 
     23 O5B        11.7520   26.0100  -26.9570 O.3       1 COA1201     0.0000 
     24 P1A        10.5000   26.7790  -26.3020 P.3       1 COA1201     0.0000 
     25 O1A        10.0260   25.9810  -25.1120 O.co2     1 COA1201     0.0000 
     26 O2A         9.5340   27.1310  -27.4070 O.co2     1 COA1201     0.0000 
     27 O3A        11.1670   28.1400  -25.7590 O.3       1 COA1201     0.0000 
     28 P2A        11.8890   29.1620  -26.7720 P.3       1 COA1201     0.0000 
     29 O4A        13.3240   29.3250  -26.3330 O.co2     1 COA1201     0.0000 
     30 O5A        11.5800   28.7250  -28.1830 O.co2     1 COA1201     0.0000 
     31 O6A        11.1120   30.5430  -26.4880 O.3       1 COA1201     0.0000 
     32 CBP        11.1970   32.9180  -26.8620 C.3       1 COA1201     0.0000 
     33 CCP        11.0190   31.5460  -27.4970 C.3       1 COA1201     0.0000 
     34 CDP        10.0070   33.2290  -25.9650 C.3       1 COA1201     0.0000 
     35 CEP        12.4840   32.9470  -26.0500 C.3       1 COA1201     0.0000 
     36 CAP        11.2750   33.9680  -27.9640 C.3       1 COA1201     0.0000 
     37 OAP        10.0630   33.9440  -28.7260 O.3       1 COA1201     0.0000 
     38 C9P        11.4600   35.3290  -27.3580 C.2       1 COA1201     0.0000 
     39 O9P        11.5120   35.4690  -26.1470 O.2       1 COA1201     0.0000 
     40 N8P        11.5620   36.3480  -28.2070 N.am      1 COA1201     0.0000 
     41 C7P        11.4700   37.7240  -27.7560 C.3       1 COA1201     0.0000 
     42 C6P        11.9990   38.7030  -28.7980 C.3       1 COA1201     0.0000 
     43 C5P        12.4550   39.9710  -28.1160 C.2       1 COA1201     0.0000 
     44 O5P        13.5790   40.0530  -27.6500 O.2       1 COA1201     0.0000 
     45 N4P        11.5730   40.9650  -28.0610 N.am      1 COA1201     0.0000 
     46 C3P        11.5690   41.9170  -26.9660 C.3       1 COA1201     0.0000 
     47 C2P        11.9440   43.3200  -27.4280 C.3       1 COA1201     0.0000 
     48 S1P        13.4950   43.8200  -26.6400 S.3       1 COA1201     0.0000 
@<TRIPOS>BOND
     1    1    2 ar   
     2    1    6 ar   
     3    2    3 ar   
     4    3    4 ar   
     5    4    5 ar   
     6    4   10 1    
     7    5    6 ar   
     8    5    8 1    
     9    6    7 1    
    10    8    9 2    
    11    9   10 1    
    12   10   11 1    
    13   11   12 1    
    14   11   21 1    
    15   12   13 1    
    16   12   14 1    
    17   14   15 1    
    18   14   20 1    
    19   15   16 1    
    20   16   17 ar   
    21   16   18 ar   
    22   16   19 ar   
    23   20   21 1    
    24   20   22 1    
    25   22   23 1    
    26   23   24 1    
    27   24   25 ar   
    28   24   26 ar   
    29   24   27 1    
    30   27   28 1    
    31   28   29 ar   
    32   28   30 ar   
    33   28   31 1    
    34   31   33 1    
    35   32   33 1    
    36   32   34 1    
    37   32   35 1    
    38   32   36 1    
    39   36   37 1    
    40   36   38 1    
    41   38   39 2    
    42   38   40 am   
    43   40   41 1    
    44   41   42 1    
    45   42   43 1    
    46   43   44 2    
    47   43   45 am   
    48   45   46 1    
    49   46   47 1    
    50   47   48 1    
@<TRIPOS>SUBSTRUCTURE
     1 COA1201     1 GROUP   
@<TRIPOS>SET
ATOM$ORANGE STATIC     ATOMS   COLORGROUP SYSTEM 
42 2 2 4 4 5 5 6 6 9 9 11 11 12 12 14 14 20 \
20 22 22 32 32 33 33 34 34 35 35 36 36 38 38 41 41 42 \
42 43 43 46 46 47 47 

