#    Name: 6uuz_3_COA
#    Modification time : Fri May 22 19:29:35 2020

@<TRIPOS>MOLECULE
6uuz_3_COA
   48    50     1     0     1
SMALL
NO_CHARGES


@<TRIPOS>ATOM
      1 N1A       -13.5550   17.0730   24.5650 N.ar      1 COA1201     0.0000 
      2 C2A       -14.0560   17.4350   25.7600 C.ar      1 COA1201     0.0000 
      3 N3A       -13.8750   18.6490   26.3060 N.ar      1 COA1201     0.0000 
      4 C4A       -13.1570   19.6000   25.6630 C.ar      1 COA1201     0.0000 
      5 C5A       -12.5760   19.2810   24.3510 C.ar      1 COA1201     0.0000 
      6 C6A       -12.8200   17.9210   23.8150 C.ar      1 COA1201     0.0000 
      7 N6A       -12.3230   17.5410   22.6140 N.pl3     1 COA1201     0.0000 
      8 N7A       -11.9240   20.3840   23.9400 N.2       1 COA1201     0.0000 
      9 C8A       -12.0730   21.3270   24.9050 C.2       1 COA1201     0.0000 
     10 N9A       -12.8060   20.8600   25.9320 N.pl3     1 COA1201     0.0000 
     11 C1B       -13.1740   21.6130   27.1580 C.3       1 COA1201     0.0000 
     12 C2B       -11.9410   21.9770   27.9680 C.3       1 COA1201     0.0000 
     13 O2B       -11.7870   21.0810   29.0740 O.3       1 COA1201     0.0000 
     14 C3B       -12.1700   23.4080   28.4200 C.3       1 COA1201     0.0000 
     15 O3B       -12.6690   23.4710   29.7550 O.3       1 COA1201     0.0000 
     16 P3B       -11.7390   23.1200   31.0190 P.3       1 COA1201     0.0000 
     17 O7A       -10.4390   22.6630   30.4040 O.co2     1 COA1201     0.0000 
     18 O8A       -12.5090   22.0410   31.7410 O.co2     1 COA1201     0.0000 
     19 O9A       -11.6450   24.4180   31.7790 O.co2     1 COA1201     0.0000 
     20 C4B       -13.2370   23.9520   27.4860 C.3       1 COA1201     0.0000 
     21 O4B       -13.8160   22.8400   26.8000 O.3       1 COA1201     0.0000 
     22 C5B       -12.6410   24.9270   26.4800 C.3       1 COA1201     0.0000 
     23 O5B       -11.5210   25.5820   27.0710 O.3       1 COA1201     0.0000 
     24 P1A       -10.5470   26.4980   26.1770 P.3       1 COA1201     0.0000 
     25 O1A        -9.8560   25.6130   25.1680 O.co2     1 COA1201     0.0000 
     26 O2A        -9.7300   27.3610   27.1080 O.co2     1 COA1201     0.0000 
     27 O3A       -11.5850   27.4430   25.3920 O.3       1 COA1201     0.0000 
     28 P2A       -12.3060   28.6650   26.1510 P.3       1 COA1201     0.0000 
     29 O4A       -13.1950   29.3780   25.1610 O.co2     1 COA1201     0.0000 
     30 O5A       -12.8860   28.1450   27.4430 O.co2     1 COA1201     0.0000 
     31 O6A       -11.0650   29.6270   26.5050 O.3       1 COA1201     0.0000 
     32 CBP       -10.7210   31.9960   26.7190 C.3       1 COA1201     0.0000 
     33 CCP       -11.2330   30.7310   27.3910 C.3       1 COA1201     0.0000 
     34 CDP        -9.2000   31.9790   26.6670 C.3       1 COA1201     0.0000 
     35 CEP       -11.2840   32.0950   25.3090 C.3       1 COA1201     0.0000 
     36 CAP       -11.1810   33.2050   27.5240 C.3       1 COA1201     0.0000 
     37 OAP       -10.2520   33.4560   28.5840 O.3       1 COA1201     0.0000 
     38 C9P       -11.2560   34.4030   26.6240 C.2       1 COA1201     0.0000 
     39 O9P       -12.3350   34.8100   26.2260 O.2       1 COA1201     0.0000 
     40 N8P       -10.1020   34.9760   26.2970 N.am      1 COA1201     0.0000 
     41 C7P        -9.9290   36.4140   26.3620 C.3       1 COA1201     0.0000 
     42 C6P       -10.0850   36.9430   27.7830 C.3       1 COA1201     0.0000 
     43 C5P       -11.1770   37.9850   27.8180 C.2       1 COA1201     0.0000 
     44 O5P       -11.3520   38.7320   26.8690 O.2       1 COA1201     0.0000 
     45 N4P       -11.9140   38.0350   28.9230 N.am      1 COA1201     0.0000 
     46 C3P       -11.8680   39.1790   29.8120 C.3       1 COA1201     0.0000 
     47 C2P       -12.9290   40.2160   29.4620 C.3       1 COA1201     0.0000 
     48 S1P       -13.4820   39.9590   27.7580 S.3       1 COA1201     0.0000 
@<TRIPOS>BOND
     1    1    2 ar   
     2    1    6 ar   
     3    2    3 ar   
     4    3    4 ar   
     5    4    5 ar   
     6    4   10 1    
     7    5    6 ar   
     8    5    8 1    
     9    6    7 1    
    10    8    9 2    
    11    9   10 1    
    12   10   11 1    
    13   11   12 1    
    14   11   21 1    
    15   12   13 1    
    16   12   14 1    
    17   14   15 1    
    18   14   20 1    
    19   15   16 1    
    20   16   17 ar   
    21   16   18 ar   
    22   16   19 ar   
    23   20   21 1    
    24   20   22 1    
    25   22   23 1    
    26   23   24 1    
    27   24   25 ar   
    28   24   26 ar   
    29   24   27 1    
    30   27   28 1    
    31   28   29 ar   
    32   28   30 ar   
    33   28   31 1    
    34   31   33 1    
    35   32   33 1    
    36   32   34 1    
    37   32   35 1    
    38   32   36 1    
    39   36   37 1    
    40   36   38 1    
    41   38   39 2    
    42   38   40 am   
    43   40   41 1    
    44   41   42 1    
    45   42   43 1    
    46   43   44 2    
    47   43   45 am   
    48   45   46 1    
    49   46   47 1    
    50   47   48 1    
@<TRIPOS>SUBSTRUCTURE
     1 COA1201     1 GROUP   
@<TRIPOS>SET
ATOM$ORANGE STATIC     ATOMS   COLORGROUP SYSTEM 
42 2 2 4 4 5 5 6 6 9 9 11 11 12 12 14 14 20 \
20 22 22 32 32 33 33 34 34 35 35 36 36 38 38 41 41 42 \
42 43 43 46 46 47 47 

