#    Name: 6uuz_2_COA
#    Modification time : Fri May 22 19:29:20 2020

@<TRIPOS>MOLECULE
6uuz_2_COA
   48    50     1     0     1
SMALL
NO_CHARGES


@<TRIPOS>ATOM
      1 N1A        13.7880  -17.1350   25.0220 N.ar      1 COA1201     0.0000 
      2 C2A        14.3030  -17.6340   26.1600 C.ar      1 COA1201     0.0000 
      3 N3A        14.0730  -18.8840   26.5980 N.ar      1 COA1201     0.0000 
      4 C4A        13.2860  -19.7320   25.8940 C.ar      1 COA1201     0.0000 
      5 C5A        12.6860  -19.2610   24.6380 C.ar      1 COA1201     0.0000 
      6 C6A        12.9870  -17.8710   24.2220 C.ar      1 COA1201     0.0000 
      7 N6A        12.4760  -17.3550   23.0790 N.pl3     1 COA1201     0.0000 
      8 N7A        11.9640  -20.2850   24.1490 N.2       1 COA1201     0.0000 
      9 C8A        12.0900  -21.3220   25.0160 C.2       1 COA1201     0.0000 
     10 N9A        12.8770  -20.9920   26.0570 N.pl3     1 COA1201     0.0000 
     11 C1B        13.2400  -21.8750   27.1940 C.3       1 COA1201     0.0000 
     12 C2B        12.0560  -22.0700   28.1260 C.3       1 COA1201     0.0000 
     13 O2B        12.1960  -21.2460   29.2890 O.3       1 COA1201     0.0000 
     14 C3B        12.0610  -23.5490   28.4690 C.3       1 COA1201     0.0000 
     15 O3B        12.6930  -23.7980   29.7230 O.3       1 COA1201     0.0000 
     16 P3B        12.0110  -23.3530   31.1100 P.3       1 COA1201     0.0000 
     17 O7A        10.5710  -23.0920   30.7410 O.co2     1 COA1201     0.0000 
     18 O8A        12.7880  -22.1260   31.5190 O.co2     1 COA1201     0.0000 
     19 O9A        12.2180  -24.5420   32.0150 O.co2     1 COA1201     0.0000 
     20 C4B        12.8900  -24.2030   27.3780 C.3       1 COA1201     0.0000 
     21 O4B        13.6120  -23.1670   26.7090 O.3       1 COA1201     0.0000 
     22 C5B        12.0070  -24.9350   26.3770 C.3       1 COA1201     0.0000 
     23 O5B        11.5250  -26.1420   26.9610 O.3       1 COA1201     0.0000 
     24 P1A        10.5110  -27.0860   26.1430 P.3       1 COA1201     0.0000 
     25 O1A         9.9090  -26.2690   25.0260 O.co2     1 COA1201     0.0000 
     26 O2A         9.6150  -27.7870   27.1350 O.co2     1 COA1201     0.0000 
     27 O3A        11.4960  -28.1800   25.4940 O.3       1 COA1201     0.0000 
     28 P2A        12.2750  -29.2330   26.4300 P.3       1 COA1201     0.0000 
     29 O4A        13.0400  -30.1810   25.5390 O.co2     1 COA1201     0.0000 
     30 O5A        13.0020  -28.4620   27.5050 O.co2     1 COA1201     0.0000 
     31 O6A        11.0680  -30.0480   27.1150 O.3       1 COA1201     0.0000 
     32 CBP        10.8650  -32.4360   26.9010 C.3       1 COA1201     0.0000 
     33 CCP        11.3130  -31.2820   27.7850 C.3       1 COA1201     0.0000 
     34 CDP         9.4530  -32.1810   26.3940 C.3       1 COA1201     0.0000 
     35 CEP        11.8170  -32.5870   25.7240 C.3       1 COA1201     0.0000 
     36 CAP        10.8830  -33.7230   27.7170 C.3       1 COA1201     0.0000 
     37 OAP         9.6390  -33.8710   28.4120 O.3       1 COA1201     0.0000 
     38 C9P        11.0890  -34.8920   26.8000 C.2       1 COA1201     0.0000 
     39 O9P        12.2140  -35.2230   26.4640 O.2       1 COA1201     0.0000 
     40 N8P         9.9950  -35.5260   26.3870 N.am      1 COA1201     0.0000 
     41 C7P         9.9230  -36.9740   26.3640 C.3       1 COA1201     0.0000 
     42 C6P         9.7580  -37.5590   27.7620 C.3       1 COA1201     0.0000 
     43 C5P        11.1150  -37.9000   28.3300 C.2       1 COA1201     0.0000 
     44 O5P        12.0610  -37.1480   28.1670 O.2       1 COA1201     0.0000 
     45 N4P        11.2050  -39.0440   29.0020 N.am      1 COA1201     0.0000 
     46 C3P        10.7580  -40.2970   28.4260 C.3       1 COA1201     0.0000 
     47 C2P        11.9130  -41.0910   27.8280 C.3       1 COA1201     0.0000 
     48 S1P        13.3770  -40.0320   27.7230 S.3       1 COA1201     0.0000 
@<TRIPOS>BOND
     1    1    2 ar   
     2    1    6 ar   
     3    2    3 ar   
     4    3    4 ar   
     5    4    5 ar   
     6    4   10 1    
     7    5    6 ar   
     8    5    8 1    
     9    6    7 1    
    10    8    9 2    
    11    9   10 1    
    12   10   11 1    
    13   11   12 1    
    14   11   21 1    
    15   12   13 1    
    16   12   14 1    
    17   14   15 1    
    18   14   20 1    
    19   15   16 1    
    20   16   17 ar   
    21   16   18 ar   
    22   16   19 ar   
    23   20   21 1    
    24   20   22 1    
    25   22   23 1    
    26   23   24 1    
    27   24   25 ar   
    28   24   26 ar   
    29   24   27 1    
    30   27   28 1    
    31   28   29 ar   
    32   28   30 ar   
    33   28   31 1    
    34   31   33 1    
    35   32   33 1    
    36   32   34 1    
    37   32   35 1    
    38   32   36 1    
    39   36   37 1    
    40   36   38 1    
    41   38   39 2    
    42   38   40 am   
    43   40   41 1    
    44   41   42 1    
    45   42   43 1    
    46   43   44 2    
    47   43   45 am   
    48   45   46 1    
    49   46   47 1    
    50   47   48 1    
@<TRIPOS>SUBSTRUCTURE
     1 COA1201     1 GROUP   
@<TRIPOS>SET
ATOM$ORANGE STATIC     ATOMS   COLORGROUP SYSTEM 
42 2 2 4 4 5 5 6 6 9 9 11 11 12 12 14 14 20 \
20 22 22 32 32 33 33 34 34 35 35 36 36 38 38 41 41 42 \
42 43 43 46 46 47 47 

