#    Name: 6uuz_1_COA
#    Modification time : Fri May 22 19:29:07 2020

@<TRIPOS>MOLECULE
6uuz_1_COA
   48    50     1     0     1
SMALL
NO_CHARGES


@<TRIPOS>ATOM
      1 N1A       -13.7270  -17.0670  -24.9080 N.ar      1 COA1201     0.0000 
      2 C2A       -14.2330  -17.5330  -26.0630 C.ar      1 COA1201     0.0000 
      3 N3A       -14.0220  -18.7800  -26.5190 N.ar      1 COA1201     0.0000 
      4 C4A       -13.2660  -19.6570  -25.8180 C.ar      1 COA1201     0.0000 
      5 C5A       -12.6770  -19.2220  -24.5430 C.ar      1 COA1201     0.0000 
      6 C6A       -12.9560  -17.8340  -24.1080 C.ar      1 COA1201     0.0000 
      7 N6A       -12.4540  -17.3490  -22.9470 N.pl3     1 COA1201     0.0000 
      8 N7A       -11.9860  -20.2710  -24.0610 N.2       1 COA1201     0.0000 
      9 C8A       -12.1200  -21.2890  -24.9500 C.2       1 COA1201     0.0000 
     10 N9A       -12.8810  -20.9220  -25.9970 N.pl3     1 COA1201     0.0000 
     11 C1B       -13.2440  -21.7750  -27.1560 C.3       1 COA1201     0.0000 
     12 C2B       -12.0390  -22.0070  -28.0530 C.3       1 COA1201     0.0000 
     13 O2B       -12.1370  -21.2060  -29.2360 O.3       1 COA1201     0.0000 
     14 C3B       -12.0570  -23.4920  -28.3660 C.3       1 COA1201     0.0000 
     15 O3B       -12.6840  -23.7570  -29.6190 O.3       1 COA1201     0.0000 
     16 P3B       -11.9930  -23.3490  -31.0140 P.3       1 COA1201     0.0000 
     17 O7A       -10.5350  -23.1740  -30.6620 O.co2     1 COA1201     0.0000 
     18 O8A       -12.7030  -22.0780  -31.4100 O.co2     1 COA1201     0.0000 
     19 O9A       -12.2810  -24.5210  -31.9180 O.co2     1 COA1201     0.0000 
     20 C4B       -12.9080  -24.1090  -27.2710 C.3       1 COA1201     0.0000 
     21 O4B       -13.6850  -23.0550  -26.6980 O.3       1 COA1201     0.0000 
     22 C5B       -12.0470  -24.7420  -26.1870 C.3       1 COA1201     0.0000 
     23 O5B       -11.6430  -26.0470  -26.5940 O.3       1 COA1201     0.0000 
     24 P1A       -10.3960  -26.7640  -25.8740 P.3       1 COA1201     0.0000 
     25 O1A       -10.0870  -26.0080  -24.6050 O.co2     1 COA1201     0.0000 
     26 O2A        -9.3160  -26.9710  -26.9090 O.co2     1 COA1201     0.0000 
     27 O3A       -10.9950  -28.2030  -25.4730 O.3       1 COA1201     0.0000 
     28 P2A       -11.4480  -29.2360  -26.6200 P.3       1 COA1201     0.0000 
     29 O4A       -12.9530  -29.1880  -26.7330 O.co2     1 COA1201     0.0000 
     30 O5A       -10.5900  -28.9810  -27.8340 O.co2     1 COA1201     0.0000 
     31 O6A       -11.0270  -30.6680  -26.0190 O.3       1 COA1201     0.0000 
     32 CBP       -10.9840  -33.0470  -26.5230 C.3       1 COA1201     0.0000 
     33 CCP       -10.4610  -31.6600  -26.8750 C.3       1 COA1201     0.0000 
     34 CDP        -9.9660  -33.7720  -25.6530 C.3       1 COA1201     0.0000 
     35 CEP       -12.3180  -32.9570  -25.7930 C.3       1 COA1201     0.0000 
     36 CAP       -11.1840  -33.8350  -27.8120 C.3       1 COA1201     0.0000 
     37 OAP       -10.0160  -33.7080  -28.6310 O.3       1 COA1201     0.0000 
     38 C9P       -11.4440  -35.2790  -27.4830 C.2       1 COA1201     0.0000 
     39 O9P       -12.5210  -35.6180  -27.0220 O.2       1 COA1201     0.0000 
     40 N8P       -10.4600  -36.1430  -27.7180 N.am      1 COA1201     0.0000 
     41 C7P       -10.6220  -37.5630  -27.4690 C.3       1 COA1201     0.0000 
     42 C6P       -11.6020  -38.2080  -28.4420 C.3       1 COA1201     0.0000 
     43 C5P       -12.1790  -39.4570  -27.8200 C.2       1 COA1201     0.0000 
     44 O5P       -12.5640  -39.4520  -26.6620 O.2       1 COA1201     0.0000 
     45 N4P       -12.2390  -40.5350  -28.5960 N.am      1 COA1201     0.0000 
     46 C3P       -11.6550  -41.8000  -28.1930 C.3       1 COA1201     0.0000 
     47 C2P       -12.4220  -42.9910  -28.7560 C.3       1 COA1201     0.0000 
     48 S1P       -12.9570  -42.6280  -30.4470 S.3       1 COA1201     0.0000 
@<TRIPOS>BOND
     1    1    2 ar   
     2    1    6 ar   
     3    2    3 ar   
     4    3    4 ar   
     5    4    5 ar   
     6    4   10 1    
     7    5    6 ar   
     8    5    8 1    
     9    6    7 1    
    10    8    9 2    
    11    9   10 1    
    12   10   11 1    
    13   11   12 1    
    14   11   21 1    
    15   12   13 1    
    16   12   14 1    
    17   14   15 1    
    18   14   20 1    
    19   15   16 1    
    20   16   17 ar   
    21   16   18 ar   
    22   16   19 ar   
    23   20   21 1    
    24   20   22 1    
    25   22   23 1    
    26   23   24 1    
    27   24   25 ar   
    28   24   26 ar   
    29   24   27 1    
    30   27   28 1    
    31   28   29 ar   
    32   28   30 ar   
    33   28   31 1    
    34   31   33 1    
    35   32   33 1    
    36   32   34 1    
    37   32   35 1    
    38   32   36 1    
    39   36   37 1    
    40   36   38 1    
    41   38   39 2    
    42   38   40 am   
    43   40   41 1    
    44   41   42 1    
    45   42   43 1    
    46   43   44 2    
    47   43   45 am   
    48   45   46 1    
    49   46   47 1    
    50   47   48 1    
@<TRIPOS>SUBSTRUCTURE
     1 COA1201     1 GROUP   
@<TRIPOS>SET
ATOM$ORANGE STATIC     ATOMS   COLORGROUP SYSTEM 
42 2 2 4 4 5 5 6 6 9 9 11 11 12 12 14 14 20 \
20 22 22 32 32 33 33 34 34 35 35 36 36 38 38 41 41 42 \
42 43 43 46 46 47 47 

