#    Name: 6o77_12_Y01
#    Modification time : Fri May 22 19:38:12 2020

@<TRIPOS>MOLECULE
6o77_12_Y01
   35    38     1     0     0
SMALL
NO_CHARGES


@<TRIPOS>ATOM
      1 CAA       152.0920  164.8370  211.0070 C.3       1 Y011404     0.0000 
      2 CBA       150.8380  164.8910  211.8760 C.3       1 Y011404     0.0000 
      3 CAB       149.6250  165.0960  210.9720 C.3       1 Y011404     0.0000 
      4 CAN       150.9460  166.0600  212.8580 C.3       1 Y011404     0.0000 
      5 CAJ       150.9380  165.5440  214.3000 C.3       1 Y011404     0.0000 
      6 CAO       149.9060  166.3270  215.1080 C.3       1 Y011404     0.0000 
      7 CBB       150.0930  166.0690  216.6790 C.3       1 Y011404     0.0000 
      8 CAC       151.5830  166.5460  216.9940 C.3       1 Y011404     0.0000 
      9 CBE       149.1880  166.7620  217.4460 C.3       1 Y011404     0.0000 
     10 CAP       147.6830  166.9000  216.7290 C.3       1 Y011404     0.0000 
     11 CAQ       146.6030  166.6780  217.8780 C.3       1 Y011404     0.0000 
     12 CBG       147.4460  166.7330  219.2530 C.3       1 Y011404     0.0000 
     13 CBI       148.8120  166.0740  218.9440 C.3       1 Y011404     0.0000 
     14 CAE       148.5230  164.5980  218.6770 C.3       1 Y011404     0.0000 
     15 CAU       149.6950  166.0750  220.0440 C.3       1 Y011404     0.0000 
     16 CAS       149.0280  165.7600  221.4930 C.3       1 Y011404     0.0000 
     17 CBF       147.7500  166.5760  221.7090 C.3       1 Y011404     0.0000 
     18 CBD       146.8160  166.3050  220.5880 C.3       1 Y011404     0.0000 
     19 CAK       145.3920  167.1400  220.6740 C.3       1 Y011404     0.0000 
     20 CAI       144.9800  167.4380  222.0590 C.2       1 Y011404     0.0000 
     21 CAZ       145.6310  166.4900  223.2950 C.2       1 Y011404     0.0000 
     22 CAV       145.0180  166.5890  224.7010 C.3       1 Y011404     0.0000 
     23 CBH       147.0900  166.3080  223.2650 C.3       1 Y011404     0.0000 
     24 CAD       147.3740  164.8660  223.6810 C.3       1 Y011404     0.0000 
     25 CAT       147.8250  167.2390  224.2490 C.3       1 Y011404     0.0000 
     26 CAR       147.1920  167.2780  225.6390 C.3       1 Y011404     0.0000 
     27 CBC       145.7470  167.5890  225.6070 C.3       1 Y011404     0.0000 
     28 OAW       145.2410  167.4670  226.9390 O.3       1 Y011404     0.0000 
     29 CAY       144.0130  168.0890  227.1670 C.2       1 Y011404     0.0000 
     30 OAG       143.7070  169.0490  226.5500 O.2       1 Y011404     0.0000 
     31 CAM       143.0590  167.5290  228.2170 C.3       1 Y011404     0.0000 
     32 CAL       141.6350  167.5390  227.6630 C.3       1 Y011404     0.0000 
     33 CAX       140.8310  166.3980  228.2850 C.2       1 Y011404     0.0000 
     34 OAH       141.1150  165.2040  228.0020 O.co2     1 Y011404     0.0000 
     35 OAF       139.8820  166.6490  229.0760 O.co2     1 Y011404     0.0000 
@<TRIPOS>BOND
     1    1    2 1    
     2    2    3 1    
     3    2    4 1    
     4    4    5 1    
     5    5    6 1    
     6    6    7 1    
     7    7    8 1    
     8    7    9 1    
     9    9   10 1    
    10    9   13 1    
    11   10   11 1    
    12   11   12 1    
    13   12   13 1    
    14   12   18 1    
    15   13   14 1    
    16   13   15 1    
    17   15   16 1    
    18   16   17 1    
    19   17   18 1    
    20   17   23 1    
    21   18   19 1    
    22   19   20 1    
    23   20   21 2    
    24   21   22 1    
    25   21   23 1    
    26   22   27 1    
    27   23   24 1    
    28   23   25 1    
    29   25   26 1    
    30   26   27 1    
    31   27   28 1    
    32   28   29 1    
    33   29   30 2    
    34   29   31 1    
    35   31   32 1    
    36   32   33 1    
    37   33   34 ar   
    38   33   35 ar   
@<TRIPOS>SUBSTRUCTURE
     1 Y011404     1 GROUP   
@<TRIPOS>SET

