#    Name: 6o77_5_Y01_CAVITY_N1_4
#    Modification time : Fri May 22 19:37:14 2020

@<TRIPOS>MOLECULE
6o77_5_Y01_CAVITY_N1_4
   24     0     5     0     0
SMALL
NO_CHARGES


@<TRIPOS>ATOM
      1 N         179.8900  142.9700  194.6900 N.am      1 ALA2        0.0000 
      2 N         178.5500  143.4900  195.1200 N.am      1 ALA2        0.0000 
      3 OD1       176.5900  143.3900  194.3300 O.co2     2 ASP3        0.0000 
      4 CZ        181.9200  142.9600  201.0800 C.ar      3 PHE5        0.0000 
      5 CZ        182.1600  144.2200  200.3100 C.ar      3 PHE5        0.0000 
      6 CZ        180.8200  144.7400  200.7300 C.ar      3 PHE5        0.0000 
      7 CZ        181.0600  146.0000  199.9500 C.ar      3 PHE5        0.0000 
      8 CA        177.6900  141.6100  194.6800 C.3       4 GLY6        0.0000 
      9 CA        177.8300  139.7200  197.4500 C.3       4 GLY6        0.0000 
     10 CA        180.5200  143.6000  195.9000 C.3       4 GLY6        0.0000 
     11 CA        181.1500  144.2300  197.1100 C.3       4 GLY6        0.0000 
     12 CA        179.8100  144.7500  197.5400 C.3       4 GLY6        0.0000 
     13 CA        181.7800  144.8600  198.3200 C.3       4 GLY6        0.0000 
     14 DU        177.9300  142.8700  193.9100 H         5 CUB7        0.0000 
     15 DU        179.4100  140.4600  196.2500 H         5 CUB7        0.0000 
     16 DU        179.6500  141.7200  195.4700 H         5 CUB7        0.0000 
     17 DU        178.3100  142.2300  195.8900 H         5 CUB7        0.0000 
     18 DU        177.2100  144.0100  195.5400 H         5 CUB7        0.0000 
     19 DU        180.0400  141.0800  197.4600 H         5 CUB7        0.0000 
     20 DU        180.9100  142.9700  197.8900 H         5 CUB7        0.0000 
     21 DU        179.5700  143.4900  198.3100 H         5 CUB7        0.0000 
     22 DU        181.2900  142.3400  199.8800 H         5 CUB7        0.0000 
     23 DU        181.5400  143.6000  199.1000 H         5 CUB7        0.0000 
     24 DU        180.1900  144.1200  199.5200 H         5 CUB7        0.0000 
@<TRIPOS>BOND
@<TRIPOS>SUBSTRUCTURE
     1 ALA2        1 GROUP   
     2 ASP3        3 GROUP   
     3 PHE5        4 GROUP   
     4 GLY6        8 GROUP   
     5 CUB7       14 GROUP   
@<TRIPOS>SET

