#    Name: 6o77_3_Y01
#    Modification time : Fri May 22 19:36:56 2020

@<TRIPOS>MOLECULE
6o77_3_Y01
   35    38     1     0     0
SMALL
NO_CHARGES


@<TRIPOS>ATOM
      1 CAA       174.0460  152.0970  211.0040 C.3       1 Y011404     0.0000 
      2 CBA       173.9910  150.8430  211.8730 C.3       1 Y011404     0.0000 
      3 CAB       173.7860  149.6300  210.9690 C.3       1 Y011404     0.0000 
      4 CAN       172.8230  150.9510  212.8550 C.3       1 Y011404     0.0000 
      5 CAJ       173.3390  150.9430  214.2970 C.3       1 Y011404     0.0000 
      6 CAO       172.5560  149.9110  215.1050 C.3       1 Y011404     0.0000 
      7 CBB       172.8140  150.0980  216.6760 C.3       1 Y011404     0.0000 
      8 CAC       172.3370  151.5880  216.9910 C.3       1 Y011404     0.0000 
      9 CBE       172.1210  149.1940  217.4430 C.3       1 Y011404     0.0000 
     10 CAP       171.9820  147.6890  216.7270 C.3       1 Y011404     0.0000 
     11 CAQ       172.2040  146.6090  217.8760 C.3       1 Y011404     0.0000 
     12 CBG       172.1500  147.4520  219.2510 C.3       1 Y011404     0.0000 
     13 CBI       172.8090  148.8180  218.9410 C.3       1 Y011404     0.0000 
     14 CAE       174.2850  148.5280  218.6740 C.3       1 Y011404     0.0000 
     15 CAU       172.8080  149.7010  220.0410 C.3       1 Y011404     0.0000 
     16 CAS       173.1240  149.0340  221.4900 C.3       1 Y011404     0.0000 
     17 CBF       172.3070  147.7560  221.7070 C.3       1 Y011404     0.0000 
     18 CBD       172.5780  146.8220  220.5860 C.3       1 Y011404     0.0000 
     19 CAK       171.7430  145.3980  220.6720 C.3       1 Y011404     0.0000 
     20 CAI       171.4450  144.9860  222.0570 C.2       1 Y011404     0.0000 
     21 CAZ       172.3930  145.6370  223.2930 C.2       1 Y011404     0.0000 
     22 CAV       172.2940  145.0240  224.6990 C.3       1 Y011404     0.0000 
     23 CBH       172.5750  147.0960  223.2630 C.3       1 Y011404     0.0000 
     24 CAD       174.0180  147.3800  223.6780 C.3       1 Y011404     0.0000 
     25 CAT       171.6450  147.8310  224.2470 C.3       1 Y011404     0.0000 
     26 CAR       171.6060  147.1980  225.6370 C.3       1 Y011404     0.0000 
     27 CBC       171.2940  145.7540  225.6050 C.3       1 Y011404     0.0000 
     28 OAW       171.4170  145.2480  226.9370 O.3       1 Y011404     0.0000 
     29 CAY       170.7940  144.0200  227.1650 C.2       1 Y011404     0.0000 
     30 OAG       169.8340  143.7140  226.5480 O.2       1 Y011404     0.0000 
     31 CAM       171.3540  143.0660  228.2150 C.3       1 Y011404     0.0000 
     32 CAL       171.3440  141.6420  227.6610 C.3       1 Y011404     0.0000 
     33 CAX       172.4850  140.8370  228.2830 C.2       1 Y011404     0.0000 
     34 OAH       173.6790  141.1210  228.0000 O.co2     1 Y011404     0.0000 
     35 OAF       172.2340  139.8890  229.0740 O.co2     1 Y011404     0.0000 
@<TRIPOS>BOND
     1    1    2 1    
     2    2    3 1    
     3    2    4 1    
     4    4    5 1    
     5    5    6 1    
     6    6    7 1    
     7    7    8 1    
     8    7    9 1    
     9    9   10 1    
    10    9   13 1    
    11   10   11 1    
    12   11   12 1    
    13   12   13 1    
    14   12   18 1    
    15   13   14 1    
    16   13   15 1    
    17   15   16 1    
    18   16   17 1    
    19   17   18 1    
    20   17   23 1    
    21   18   19 1    
    22   19   20 1    
    23   20   21 2    
    24   21   22 1    
    25   21   23 1    
    26   22   27 1    
    27   23   24 1    
    28   23   25 1    
    29   25   26 1    
    30   26   27 1    
    31   27   28 1    
    32   28   29 1    
    33   29   30 2    
    34   29   31 1    
    35   31   32 1    
    36   32   33 1    
    37   33   34 ar   
    38   33   35 ar   
@<TRIPOS>SUBSTRUCTURE
     1 Y011404     1 GROUP   
@<TRIPOS>SET

