#    Name: 6o77_9_Y01
#    Modification time : Fri May 22 19:37:47 2020

@<TRIPOS>MOLECULE
6o77_9_Y01
   35    38     1     0     0
SMALL
NO_CHARGES


@<TRIPOS>ATOM
      1 CAA       164.8360  186.7870  211.0080 C.3       1 Y011404     0.0000 
      2 CBA       164.8910  188.0420  211.8760 C.3       1 Y011404     0.0000 
      3 CAB       165.0950  189.2550  210.9720 C.3       1 Y011404     0.0000 
      4 CAN       166.0590  187.9340  212.8580 C.3       1 Y011404     0.0000 
      5 CAJ       165.5430  187.9420  214.3000 C.3       1 Y011404     0.0000 
      6 CAO       166.3260  188.9740  215.1080 C.3       1 Y011404     0.0000 
      7 CBB       166.0680  188.7870  216.6790 C.3       1 Y011404     0.0000 
      8 CAC       166.5460  187.2970  216.9940 C.3       1 Y011404     0.0000 
      9 CBE       166.7610  189.6920  217.4460 C.3       1 Y011404     0.0000 
     10 CAP       166.9000  191.1960  216.7300 C.3       1 Y011404     0.0000 
     11 CAQ       166.6780  192.2770  217.8790 C.3       1 Y011404     0.0000 
     12 CBG       166.7320  191.4340  219.2540 C.3       1 Y011404     0.0000 
     13 CBI       166.0730  190.0670  218.9440 C.3       1 Y011404     0.0000 
     14 CAE       164.5970  190.3570  218.6770 C.3       1 Y011404     0.0000 
     15 CAU       166.0750  189.1850  220.0440 C.3       1 Y011404     0.0000 
     16 CAS       165.7590  189.8520  221.4930 C.3       1 Y011404     0.0000 
     17 CBF       166.5760  191.1300  221.7100 C.3       1 Y011404     0.0000 
     18 CBD       166.3040  192.0640  220.5890 C.3       1 Y011404     0.0000 
     19 CAK       167.1390  193.4880  220.6750 C.3       1 Y011404     0.0000 
     20 CAI       167.4370  193.9000  222.0600 C.2       1 Y011404     0.0000 
     21 CAZ       166.4890  193.2490  223.2960 C.2       1 Y011404     0.0000 
     22 CAV       166.5880  193.8620  224.7020 C.3       1 Y011404     0.0000 
     23 CBH       166.3080  191.7900  223.2660 C.3       1 Y011404     0.0000 
     24 CAD       164.8650  191.5060  223.6810 C.3       1 Y011404     0.0000 
     25 CAT       167.2380  191.0550  224.2500 C.3       1 Y011404     0.0000 
     26 CAR       167.2770  191.6880  225.6400 C.3       1 Y011404     0.0000 
     27 CBC       167.5890  193.1320  225.6080 C.3       1 Y011404     0.0000 
     28 OAW       167.4660  193.6390  226.9400 O.3       1 Y011404     0.0000 
     29 CAY       168.0890  194.8670  227.1670 C.2       1 Y011404     0.0000 
     30 OAG       169.0480  195.1730  226.5500 O.2       1 Y011404     0.0000 
     31 CAM       167.5280  195.8210  228.2170 C.3       1 Y011404     0.0000 
     32 CAL       167.5380  197.2450  227.6630 C.3       1 Y011404     0.0000 
     33 CAX       166.3970  198.0490  228.2850 C.2       1 Y011404     0.0000 
     34 OAH       165.2030  197.7650  228.0030 O.co2     1 Y011404     0.0000 
     35 OAF       166.6480  198.9980  229.0760 O.co2     1 Y011404     0.0000 
@<TRIPOS>BOND
     1    1    2 1    
     2    2    3 1    
     3    2    4 1    
     4    4    5 1    
     5    5    6 1    
     6    6    7 1    
     7    7    8 1    
     8    7    9 1    
     9    9   10 1    
    10    9   13 1    
    11   10   11 1    
    12   11   12 1    
    13   12   13 1    
    14   12   18 1    
    15   13   14 1    
    16   13   15 1    
    17   15   16 1    
    18   16   17 1    
    19   17   18 1    
    20   17   23 1    
    21   18   19 1    
    22   19   20 1    
    23   20   21 2    
    24   21   22 1    
    25   21   23 1    
    26   22   27 1    
    27   23   24 1    
    28   23   25 1    
    29   25   26 1    
    30   26   27 1    
    31   27   28 1    
    32   28   29 1    
    33   29   30 2    
    34   29   31 1    
    35   31   32 1    
    36   32   33 1    
    37   33   34 ar   
    38   33   35 ar   
@<TRIPOS>SUBSTRUCTURE
     1 Y011404     1 GROUP   
@<TRIPOS>SET

