#    Name: 6o77_1_Y01_CAVITY_N1_ALL
#    Modification time : Fri May 22 19:36:36 2020

@<TRIPOS>MOLECULE
6o77_1_Y01_CAVITY_N1_ALL
  102     0     6     0     0
SMALL
NO_CHARGES


@<TRIPOS>ATOM
      1 OG        144.0800  158.1100  184.9600 O.3       1 SER1        0.0000 
      2 OG        142.5000  157.3700  186.1600 O.3       1 SER1        0.0000 
      3 OG        142.7400  158.6300  185.3800 O.3       1 SER1        0.0000 
      4 OG        140.0600  159.6700  186.2300 O.3       1 SER1        0.0000 
      5 OG        142.0200  159.7700  187.0200 O.3       1 SER1        0.0000 
      6 OG        140.6800  160.2900  187.4400 O.3       1 SER1        0.0000 
      7 OG        142.1700  157.8800  189.7800 O.3       1 SER1        0.0000 
      8 OG        142.4100  159.1400  189.0000 O.3       1 SER1        0.0000 
      9 OG        140.2100  162.7000  188.3000 O.3       1 SER1        0.0000 
     10 OG        141.4600  159.0300  191.4200 O.3       1 SER1        0.0000 
     11 OG        141.7000  160.2900  190.6400 O.3       1 SER1        0.0000 
     12 OG        140.1100  159.5500  191.8400 O.3       1 SER1        0.0000 
     13 OG        140.3600  160.8100  191.0700 O.3       1 SER1        0.0000 
     14 O         140.6000  162.0700  190.2900 O.2       2 ALA2        0.0000 
     15 O         140.8400  163.3300  189.5100 O.2       2 ALA2        0.0000 
     16 N         144.5200  157.3600  192.5500 N.am      2 ALA2        0.0000 
     17 N         144.7600  158.6200  191.7800 N.am      2 ALA2        0.0000 
     18 N         143.1800  157.8800  192.9800 N.am      2 ALA2        0.0000 
     19 N         143.4200  159.1400  192.2000 N.am      2 ALA2        0.0000 
     20 N         143.8100  158.5000  194.1900 N.am      2 ALA2        0.0000 
     21 N         144.0500  159.7600  193.4100 N.am      2 ALA2        0.0000 
     22 N         142.7100  160.2800  193.8400 N.am      2 ALA2        0.0000 
     23 N         144.4400  159.1300  195.4000 N.am      2 ALA2        0.0000 
     24 N         140.4100  160.6900  196.6800 N.am      2 ALA2        0.0000 
     25 OD1       141.4000  159.1500  185.8100 O.co2     3 ASP3        0.0000 
     26 OD1       141.6400  160.4100  185.0300 O.co2     3 ASP3        0.0000 
     27 OD1       140.3000  160.9300  185.4500 O.co2     3 ASP3        0.0000 
     28 OD1       144.4700  157.4700  186.9400 O.co2     3 ASP3        0.0000 
     29 OD1       144.7100  158.7300  186.1600 O.co2     3 ASP3        0.0000 
     30 OD1       142.8800  156.7300  188.1500 O.co2     3 ASP3        0.0000 
     31 OD1       143.1200  157.9900  187.3700 O.co2     3 ASP3        0.0000 
     32 OD1       144.8500  156.8400  188.9300 O.co2     3 ASP3        0.0000 
     33 OD1       142.6500  160.4000  188.2300 O.co2     3 ASP3        0.0000 
     34 OD1       142.8900  161.6600  187.4500 O.co2     3 ASP3        0.0000 
     35 OD1       144.3800  159.2500  189.7900 O.co2     3 ASP3        0.0000 
     36 OD1       143.0400  159.7700  190.2100 O.co2     3 ASP3        0.0000 
     37 OD1       141.9400  161.5500  189.8600 O.co2     3 ASP3        0.0000 
     38 OD1       143.6600  160.4000  191.4200 O.co2     3 ASP3        0.0000 
     39 OD1       142.3200  160.9200  191.8500 O.co2     3 ASP3        0.0000 
     40 OD1       142.5600  162.1700  191.0700 O.co2     3 ASP3        0.0000 
     41 OD1       142.9500  161.5400  193.0600 O.co2     3 ASP3        0.0000 
     42 OD1       143.5800  162.1700  194.2700 O.co2     3 ASP3        0.0000 
     43 CZ        141.1600  157.8900  186.5900 C.ar      4 PHE5        0.0000 
     44 CZ        141.7800  158.5100  187.7900 C.ar      4 PHE5        0.0000 
     45 CZ        143.5100  157.3600  189.3600 C.ar      4 PHE5        0.0000 
     46 CZ        143.9000  156.7300  191.3400 C.ar      4 PHE5        0.0000 
     47 CZ        142.5600  157.2500  191.7700 C.ar      4 PHE5        0.0000 
     48 CZ        142.8000  158.5100  190.9900 C.ar      4 PHE5        0.0000 
     49 CZ        141.2100  157.7700  192.2000 C.ar      4 PHE5        0.0000 
     50 CZ        139.8700  158.2900  192.6200 C.ar      4 PHE5        0.0000 
     51 CZ        142.7000  155.3600  194.5400 C.ar      4 PHE5        0.0000 
     52 CZ        142.9400  156.6200  193.7600 C.ar      4 PHE5        0.0000 
     53 CZ        141.3600  155.8800  194.9600 C.ar      4 PHE5        0.0000 
     54 CZ        141.6000  157.1400  194.1800 C.ar      4 PHE5        0.0000 
     55 CZ        141.8400  158.4000  193.4100 C.ar      4 PHE5        0.0000 
     56 CZ        140.5000  158.9200  193.8300 C.ar      4 PHE5        0.0000 
     57 CZ        139.1600  159.4400  194.2600 C.ar      4 PHE5        0.0000 
     58 CZ        141.7500  155.2500  196.9500 C.ar      4 PHE5        0.0000 
     59 CZ        141.9900  156.5100  196.1700 C.ar      4 PHE5        0.0000 
     60 CZ        142.2300  157.7600  195.3900 C.ar      4 PHE5        0.0000 
     61 CZ        140.6500  157.0200  196.6000 C.ar      4 PHE5        0.0000 
     62 CZ        140.8900  158.2800  195.8200 C.ar      4 PHE5        0.0000 
     63 CZ        143.7100  155.3500  197.7300 C.ar      4 PHE5        0.0000 
     64 CZ        142.3700  155.8700  198.1600 C.ar      4 PHE5        0.0000 
     65 CZ        144.3400  155.9800  198.9400 C.ar      4 PHE5        0.0000 
     66 CZ        143.0000  156.5000  199.3700 C.ar      4 PHE5        0.0000 
     67 CZ        146.5500  157.3500  198.9500 C.ar      4 PHE5        0.0000 
     68 CZ        144.9700  156.6100  200.1500 C.ar      4 PHE5        0.0000 
     69 CZ        145.2100  157.8700  199.3700 C.ar      4 PHE5        0.0000 
     70 CA        143.3700  159.2500  186.5900 C.3       5 GLY6        0.0000 
     71 CA        145.0900  158.1000  188.1500 C.3       5 GLY6        0.0000 
     72 CA        143.7500  158.6200  188.5800 C.3       5 GLY6        0.0000 
     73 CA        145.4800  157.4700  190.1400 C.3       5 GLY6        0.0000 
     74 CA        144.1400  157.9900  190.5700 C.3       5 GLY6        0.0000 
     75 CA        140.7400  160.1800  193.0500 C.3       5 GLY6        0.0000 
     76 CA        143.3300  155.9900  195.7500 C.3       5 GLY6        0.0000 
     77 CA        143.5700  157.2400  194.9700 C.3       5 GLY6        0.0000 
     78 CA        141.1300  159.5400  195.0400 C.3       5 GLY6        0.0000 
     79 CA        141.3700  160.8000  194.2600 C.3       5 GLY6        0.0000 
     80 CA        141.6100  162.0600  193.4800 C.3       5 GLY6        0.0000 
     81 CA        139.7900  160.0600  195.4700 C.3       5 GLY6        0.0000 
     82 CA        145.3000  156.0900  196.5300 C.3       5 GLY6        0.0000 
     83 CA        143.9600  156.6100  196.9600 C.3       5 GLY6        0.0000 
     84 CA        144.2000  157.8700  196.1800 C.3       5 GLY6        0.0000 
     85 CA        139.9300  158.1700  198.2300 C.3       5 GLY6        0.0000 
     86 CA        140.1700  159.4300  197.4500 C.3       5 GLY6        0.0000 
     87 CA        145.9200  156.7200  197.7400 C.3       5 GLY6        0.0000 
     88 CA        144.5800  157.2400  198.1700 C.3       5 GLY6        0.0000 
     89 CA        144.8200  158.5000  197.3900 C.3       5 GLY6        0.0000 
     90 CA        145.0600  159.7600  196.6100 C.3       5 GLY6        0.0000 
     91 DU        142.2700  161.0300  186.2400 H         6 CUB7        0.0000 
     92 DU        140.9200  161.5500  186.6600 H         6 CUB7        0.0000 
     93 DU        142.0800  159.6600  192.6300 H         6 CUB7        0.0000 
     94 DU        142.4700  159.0200  194.6200 H         6 CUB7        0.0000 
     95 DU        142.6100  157.1300  197.3800 H         6 CUB7        0.0000 
     96 DU        142.8600  158.3900  196.6000 H         6 CUB7        0.0000 
     97 DU        143.1000  159.6500  195.8200 H         6 CUB7        0.0000 
     98 DU        141.2700  157.6500  197.8100 H         6 CUB7        0.0000 
     99 DU        141.5100  158.9100  197.0300 H         6 CUB7        0.0000 
    100 DU        141.7600  160.1700  196.2500 H         6 CUB7        0.0000 
    101 DU        143.2400  157.7600  198.5900 H         6 CUB7        0.0000 
    102 DU        143.4800  159.0200  197.8100 H         6 CUB7        0.0000 
@<TRIPOS>BOND
@<TRIPOS>SUBSTRUCTURE
     1 SER1        1 GROUP   
     2 ALA2       14 GROUP   
     3 ASP3       25 GROUP   
     4 PHE5       43 GROUP   
     5 GLY6       70 GROUP   
     6 CUB7       91 GROUP   
@<TRIPOS>SET

