#    Name: 6o77_7_Y01
#    Modification time : Fri May 22 19:37:27 2020

@<TRIPOS>MOLECULE
6o77_7_Y01
   35    38     1     0     0
SMALL
NO_CHARGES


@<TRIPOS>ATOM
      1 CAA       200.9840  183.5000  209.3360 C.3       1 Y011402     0.0000 
      2 CBA       200.4400  182.1040  209.6330 C.3       1 Y011402     0.0000 
      3 CAB       200.9590  181.6310  210.9880 C.3       1 Y011402     0.0000 
      4 CAN       200.8970  181.1350  208.5440 C.3       1 Y011402     0.0000 
      5 CAJ       199.7090  180.7840  207.6410 C.3       1 Y011402     0.0000 
      6 CAO       200.1950  180.5840  206.2030 C.3       1 Y011402     0.0000 
      7 CBB       199.3110  181.4340  205.1640 C.3       1 Y011402     0.0000 
      8 CAC       199.3260  182.9450  205.6880 C.3       1 Y011402     0.0000 
      9 CBE       199.7830  181.3470  203.8740 C.3       1 Y011402     0.0000 
     10 CAP       200.3160  179.8080  203.4940 C.3       1 Y011402     0.0000 
     11 CAQ       199.4230  179.3290  202.2660 C.3       1 Y011402     0.0000 
     12 CBG       199.0690  180.7050  201.5070 C.3       1 Y011402     0.0000 
     13 CBI       198.6780  181.6900  202.6320 C.3       1 Y011402     0.0000 
     14 CAE       197.2920  181.2400  203.1170 C.3       1 Y011402     0.0000 
     15 CAU       198.5070  182.9910  202.1260 C.3       1 Y011402     0.0000 
     16 CAS       197.6630  183.1220  200.7360 C.3       1 Y011402     0.0000 
     17 CBF       198.0310  182.0840  199.6640 C.3       1 Y011402     0.0000 
     18 CBD       198.1400  180.7350  200.2780 C.3       1 Y011402     0.0000 
     19 CAK       198.7300  179.6170  199.2100 C.3       1 Y011402     0.0000 
     20 CAI       198.1640  179.7880  197.8560 C.2       1 Y011402     0.0000 
     21 CAZ       196.7910  180.7660  197.7510 C.2       1 Y011402     0.0000 
     22 CAV       195.9450  180.7600  196.4730 C.3       1 Y011402     0.0000 
     23 CBH       196.8930  182.0870  198.3880 C.3       1 Y011402     0.0000 
     24 CAD       195.5100  182.3810  198.9750 C.3       1 Y011402     0.0000 
     25 CAT       197.2510  183.2030  197.3790 C.3       1 Y011402     0.0000 
     26 CAR       196.4310  183.1520  196.0860 C.3       1 Y011402     0.0000 
     27 CBC       196.4170  181.8130  195.4570 C.3       1 Y011402     0.0000 
     28 OAW       195.4880  181.8150  194.3690 O.3       1 Y011402     0.0000 
     29 CAY       195.9110  181.2800  193.1420 C.2       1 Y011402     0.0000 
     30 OAG       195.3580  181.6300  192.1580 O.2       1 Y011402     0.0000 
     31 CAM       197.0520  180.2630  193.0260 C.3       1 Y011402     0.0000 
     32 CAL       196.5580  178.8400  193.2980 C.3       1 Y011402     0.0000 
     33 CAX       195.9030  178.2600  192.0490 C.2       1 Y011402     0.0000 
     34 OAH       195.4720  177.0790  192.0660 O.co2     1 Y011402     0.0000 
     35 OAF       195.7990  178.9540  191.0050 O.co2     1 Y011402     0.0000 
@<TRIPOS>BOND
     1    1    2 1    
     2    2    3 1    
     3    2    4 1    
     4    4    5 1    
     5    5    6 1    
     6    6    7 1    
     7    7    8 1    
     8    7    9 1    
     9    9   10 1    
    10    9   13 1    
    11   10   11 1    
    12   11   12 1    
    13   12   13 1    
    14   12   18 1    
    15   13   14 1    
    16   13   15 1    
    17   15   16 1    
    18   16   17 1    
    19   17   18 1    
    20   17   23 1    
    21   18   19 1    
    22   19   20 1    
    23   20   21 2    
    24   21   22 1    
    25   21   23 1    
    26   22   27 1    
    27   23   24 1    
    28   23   25 1    
    29   25   26 1    
    30   26   27 1    
    31   27   28 1    
    32   28   29 1    
    33   29   30 2    
    34   29   31 1    
    35   31   32 1    
    36   32   33 1    
    37   33   34 ar   
    38   33   35 ar   
@<TRIPOS>SUBSTRUCTURE
     1 Y011402     1 GROUP   
@<TRIPOS>SET

