#    Name: 6o77_6_Y01
#    Modification time : Fri May 22 19:37:21 2020

@<TRIPOS>MOLECULE
6o77_6_Y01
   35    38     1     0     0
SMALL
NO_CHARGES


@<TRIPOS>ATOM
      1 CAA       186.7870  174.0440  211.0080 C.3       1 Y011404     0.0000 
      2 CBA       188.0420  173.9890  211.8760 C.3       1 Y011404     0.0000 
      3 CAB       189.2540  173.7840  210.9720 C.3       1 Y011404     0.0000 
      4 CAN       187.9340  172.8210  212.8580 C.3       1 Y011404     0.0000 
      5 CAJ       187.9420  173.3360  214.3000 C.3       1 Y011404     0.0000 
      6 CAO       188.9740  172.5540  215.1080 C.3       1 Y011404     0.0000 
      7 CBB       188.7870  172.8110  216.6790 C.3       1 Y011404     0.0000 
      8 CAC       187.2970  172.3340  216.9940 C.3       1 Y011404     0.0000 
      9 CBE       189.6910  172.1180  217.4460 C.3       1 Y011404     0.0000 
     10 CAP       191.1960  171.9800  216.7300 C.3       1 Y011404     0.0000 
     11 CAQ       192.2760  172.2020  217.8790 C.3       1 Y011404     0.0000 
     12 CBG       191.4340  172.1480  219.2540 C.3       1 Y011404     0.0000 
     13 CBI       190.0670  172.8060  218.9440 C.3       1 Y011404     0.0000 
     14 CAE       190.3570  174.2820  218.6770 C.3       1 Y011404     0.0000 
     15 CAU       189.1850  172.8050  220.0440 C.3       1 Y011404     0.0000 
     16 CAS       189.8520  173.1210  221.4930 C.3       1 Y011404     0.0000 
     17 CBF       191.1300  172.3040  221.7100 C.3       1 Y011404     0.0000 
     18 CBD       192.0640  172.5760  220.5890 C.3       1 Y011404     0.0000 
     19 CAK       193.4880  171.7410  220.6750 C.3       1 Y011404     0.0000 
     20 CAI       193.9000  171.4430  222.0600 C.2       1 Y011404     0.0000 
     21 CAZ       193.2490  172.3900  223.2960 C.2       1 Y011404     0.0000 
     22 CAV       193.8620  172.2910  224.7020 C.3       1 Y011404     0.0000 
     23 CBH       191.7900  172.5720  223.2660 C.3       1 Y011404     0.0000 
     24 CAD       191.5060  174.0150  223.6810 C.3       1 Y011404     0.0000 
     25 CAT       191.0550  171.6420  224.2500 C.3       1 Y011404     0.0000 
     26 CAR       191.6880  171.6030  225.6400 C.3       1 Y011404     0.0000 
     27 CBC       193.1320  171.2910  225.6080 C.3       1 Y011404     0.0000 
     28 OAW       193.6380  171.4140  226.9400 O.3       1 Y011404     0.0000 
     29 CAY       194.8670  170.7910  227.1670 C.2       1 Y011404     0.0000 
     30 OAG       195.1730  169.8310  226.5500 O.2       1 Y011404     0.0000 
     31 CAM       195.8210  171.3510  228.2170 C.3       1 Y011404     0.0000 
     32 CAL       197.2440  171.3420  227.6630 C.3       1 Y011404     0.0000 
     33 CAX       198.0490  172.4830  228.2850 C.2       1 Y011404     0.0000 
     34 OAH       197.7650  173.6770  228.0030 O.co2     1 Y011404     0.0000 
     35 OAF       198.9970  172.2320  229.0760 O.co2     1 Y011404     0.0000 
@<TRIPOS>BOND
     1    1    2 1    
     2    2    3 1    
     3    2    4 1    
     4    4    5 1    
     5    5    6 1    
     6    6    7 1    
     7    7    8 1    
     8    7    9 1    
     9    9   10 1    
    10    9   13 1    
    11   10   11 1    
    12   11   12 1    
    13   12   13 1    
    14   12   18 1    
    15   13   14 1    
    16   13   15 1    
    17   15   16 1    
    18   16   17 1    
    19   17   18 1    
    20   17   23 1    
    21   18   19 1    
    22   19   20 1    
    23   20   21 2    
    24   21   22 1    
    25   21   23 1    
    26   22   27 1    
    27   23   24 1    
    28   23   25 1    
    29   25   26 1    
    30   26   27 1    
    31   27   28 1    
    32   28   29 1    
    33   29   30 2    
    34   29   31 1    
    35   31   32 1    
    36   32   33 1    
    37   33   34 ar   
    38   33   35 ar   
@<TRIPOS>SUBSTRUCTURE
     1 Y011404     1 GROUP   
@<TRIPOS>SET

