#    Name: 6o77_8_Y01_CAVITY_N1_6
#    Modification time : Fri May 22 19:37:39 2020

@<TRIPOS>MOLECULE
6o77_8_Y01_CAVITY_N1_6
   63     0     6     0     0
SMALL
NO_CHARGES


@<TRIPOS>ATOM
      1 OG        197.6200  178.5400  191.2400 O.3       1 SER1        0.0000 
      2 OG        199.4100  182.1900  197.7100 O.3       1 SER1        0.0000 
      3 OG        198.0700  182.7100  198.1400 O.3       1 SER1        0.0000 
      4 N         194.9400  179.5800  192.0900 N.am      2 ALA2        0.0000 
      5 N         196.4200  177.1700  194.4300 N.am      2 ALA2        0.0000 
      6 N         195.0800  177.6900  194.8500 N.am      2 ALA2        0.0000 
      7 N         195.3200  178.9500  194.0800 N.am      2 ALA2        0.0000 
      8 N         195.5600  180.2000  193.3000 N.am      2 ALA2        0.0000 
      9 N         197.0500  177.7900  195.6400 N.am      2 ALA2        0.0000 
     10 N         198.7800  176.6400  197.2000 N.am      2 ALA2        0.0000 
     11 N         199.2600  179.1600  195.6400 N.am      2 ALA2        0.0000 
     12 OD1       195.6500  178.4300  190.4500 O.co2     3 ASP3        0.0000 
     13 OD1       195.7900  176.5400  193.2200 O.co2     3 ASP3        0.0000 
     14 OD1       196.0400  177.8000  192.4400 O.co2     3 ASP3        0.0000 
     15 OD1       196.2800  179.0600  191.6600 O.co2     3 ASP3        0.0000 
     16 CZ        198.8700  179.7900  193.6600 C.ar      4 PHE5        0.0000 
     17 CZ        197.5300  180.3100  194.0800 C.ar      4 PHE5        0.0000 
     18 CZ        196.4300  182.0900  193.7300 C.ar      4 PHE5        0.0000 
     19 CZ        198.1600  180.9400  195.2900 C.ar      4 PHE5        0.0000 
     20 CZ        196.8200  181.4600  195.7200 C.ar      4 PHE5        0.0000 
     21 CZ        197.0600  182.7200  194.9400 C.ar      4 PHE5        0.0000 
     22 CZ        198.7900  181.5700  196.5000 C.ar      4 PHE5        0.0000 
     23 CZ        197.4400  182.0900  196.9300 C.ar      4 PHE5        0.0000 
     24 CZ        196.1000  182.6100  197.3500 C.ar      4 PHE5        0.0000 
     25 CZ        194.5200  181.8700  198.5600 C.ar      4 PHE5        0.0000 
     26 CZ        194.7600  183.1300  197.7800 C.ar      4 PHE5        0.0000 
     27 CZ        196.7300  183.2300  198.5600 C.ar      4 PHE5        0.0000 
     28 CZ        194.9100  181.2300  200.5400 C.ar      4 PHE5        0.0000 
     29 CZ        195.1500  182.4900  199.7700 C.ar      4 PHE5        0.0000 
     30 CZ        195.3900  183.7500  198.9900 C.ar      4 PHE5        0.0000 
     31 CZ        195.7800  183.1200  200.9800 C.ar      4 PHE5        0.0000 
     32 CZ        196.0200  184.3800  200.2000 C.ar      4 PHE5        0.0000 
     33 CA        197.3800  177.2800  192.0200 C.3       5 GLY6        0.0000 
     34 CA        198.2400  179.1600  192.4500 C.3       5 GLY6        0.0000 
     35 CA        196.6600  178.4300  193.6500 C.3       5 GLY6        0.0000 
     36 CA        198.3900  177.2700  195.2100 C.3       5 GLY6        0.0000 
     37 CA        197.2900  179.0500  194.8600 C.3       5 GLY6        0.0000 
     38 CA        194.3700  178.8300  196.4900 C.3       5 GLY6        0.0000 
     39 CA        194.6100  180.0900  195.7100 C.3       5 GLY6        0.0000 
     40 CA        194.8500  181.3500  194.9300 C.3       5 GLY6        0.0000 
     41 CA        195.2300  180.7200  196.9200 C.3       5 GLY6        0.0000 
     42 CA        195.4800  181.9800  196.1400 C.3       5 GLY6        0.0000 
     43 CA        193.8900  181.2400  197.3500 C.3       5 GLY6        0.0000 
     44 CA        194.1300  182.5000  196.5700 C.3       5 GLY6        0.0000 
     45 CA        199.6400  178.5300  197.6300 C.3       5 GLY6        0.0000 
     46 CA        199.8900  179.7900  196.8500 C.3       5 GLY6        0.0000 
     47 CA        199.1700  180.9300  198.4900 C.3       5 GLY6        0.0000 
     48 CA        197.3600  183.8600  199.7700 C.3       5 GLY6        0.0000 
     49 CA        197.7400  183.2300  201.7600 C.3       5 GLY6        0.0000 
     50 DU        196.9000  179.6800  192.8700 H         6 CUB7        0.0000 
     51 DU        195.7100  178.3100  196.0600 H         6 CUB7        0.0000 
     52 DU        195.9500  179.5700  195.2900 H         6 CUB7        0.0000 
     53 DU        196.1900  180.8300  194.5100 H         6 CUB7        0.0000 
     54 DU        197.6800  178.4200  196.8500 H         6 CUB7        0.0000 
     55 DU        197.9200  179.6800  196.0700 H         6 CUB7        0.0000 
     56 DU        196.5800  180.2000  196.5000 H         6 CUB7        0.0000 
     57 DU        198.5400  180.3100  197.2800 H         6 CUB7        0.0000 
     58 DU        195.8600  181.3500  198.1300 H         6 CUB7        0.0000 
     59 DU        194.2800  180.6100  199.3400 H         6 CUB7        0.0000 
     60 DU        197.8300  181.4500  198.9100 H         6 CUB7        0.0000 
     61 DU        196.4900  181.9700  199.3400 H         6 CUB7        0.0000 
     62 DU        198.4600  182.0800  200.1200 H         6 CUB7        0.0000 
     63 DU        197.1200  182.6000  200.5500 H         6 CUB7        0.0000 
@<TRIPOS>BOND
@<TRIPOS>SUBSTRUCTURE
     1 SER1        1 GROUP   
     2 ALA2        4 GROUP   
     3 ASP3       12 GROUP   
     4 PHE5       16 GROUP   
     5 GLY6       33 GROUP   
     6 CUB7       50 GROUP   
@<TRIPOS>SET

