#    Name: 6o77_2_Y01
#    Modification time : Fri May 22 19:36:47 2020

@<TRIPOS>MOLECULE
6o77_2_Y01
   35    38     1     0     0
SMALL
NO_CHARGES


@<TRIPOS>ATOM
      1 CAA       145.8240  153.2060  212.7070 C.3       1 Y011403     0.0000 
      2 CBA       146.1000  154.6830  212.9640 C.3       1 Y011403     0.0000 
      3 CAB       146.0550  154.9780  214.4610 C.3       1 Y011403     0.0000 
      4 CAN       145.0580  155.5230  212.2350 C.3       1 Y011403     0.0000 
      5 CAJ       145.4700  155.6270  210.7690 C.3       1 Y011403     0.0000 
      6 CAO       145.7900  157.0880  210.4410 C.3       1 Y011403     0.0000 
      7 CBB       146.4490  157.2540  208.9840 C.3       1 Y011403     0.0000 
      8 CAC       147.5300  156.0870  208.8010 C.3       1 Y011403     0.0000 
      9 CBE       145.5280  157.2720  207.9550 C.3       1 Y011403     0.0000 
     10 CAP       144.0790  158.0070  208.3620 C.3       1 Y011403     0.0000 
     11 CAQ       143.9280  159.2590  207.3900 C.3       1 Y011403     0.0000 
     12 CBG       144.6900  158.7730  206.0570 C.3       1 Y011403     0.0000 
     13 CBI       146.0010  158.1120  206.5580 C.3       1 Y011403     0.0000 
     14 CAE       146.8990  159.2790  207.0040 C.3       1 Y011403     0.0000 
     15 CAU       146.7100  157.4810  205.5160 C.3       1 Y011403     0.0000 
     16 CAS       146.7500  158.2780  204.0930 C.3       1 Y011403     0.0000 
     17 CBF       145.3950  158.8770  203.6930 C.3       1 Y011403     0.0000 
     18 CBD       144.8970  159.6880  204.8310 C.3       1 Y011403     0.0000 
     19 CAK       143.4840  160.5080  204.5330 C.3       1 Y011403     0.0000 
     20 CAI       143.4130  161.1610  203.2020 C.2       1 Y011403     0.0000 
     21 CAZ       144.3710  160.5710  201.9330 C.2       1 Y011403     0.0000 
     22 CAV       144.4440  161.3070  200.5850 C.3       1 Y011403     0.0000 
     23 CBH       145.5630  159.7740  202.2560 C.3       1 Y011403     0.0000 
     24 CAD       146.7470  160.7220  202.4850 C.3       1 Y011403     0.0000 
     25 CAT       145.8860  158.8030  201.1020 C.3       1 Y011403     0.0000 
     26 CAR       145.9250  159.4660  199.7220 C.3       1 Y011403     0.0000 
     27 CBC       144.8130  160.3920  199.3980 C.3       1 Y011403     0.0000 
     28 OAW       145.3000  161.2220  198.3410 O.3       1 Y011403     0.0000 
     29 CAY       144.3900  161.5110  197.3230 C.2       1 Y011403     0.0000 
     30 OAG       143.2370  161.2870  197.4690 O.2       1 Y011403     0.0000 
     31 CAM       144.8900  162.1220  196.0170 C.3       1 Y011403     0.0000 
     32 CAL       143.8330  163.0660  195.4470 C.3       1 Y011403     0.0000 
     33 CAX       143.6050  164.2290  196.4100 C.2       1 Y011403     0.0000 
     34 OAH       142.5700  164.2570  197.1270 O.co2     1 Y011403     0.0000 
     35 OAF       144.4530  165.1570  196.4880 O.co2     1 Y011403     0.0000 
@<TRIPOS>BOND
     1    1    2 1    
     2    2    3 1    
     3    2    4 1    
     4    4    5 1    
     5    5    6 1    
     6    6    7 1    
     7    7    8 1    
     8    7    9 1    
     9    9   10 1    
    10    9   13 1    
    11   10   11 1    
    12   11   12 1    
    13   12   13 1    
    14   12   18 1    
    15   13   14 1    
    16   13   15 1    
    17   15   16 1    
    18   16   17 1    
    19   17   18 1    
    20   17   23 1    
    21   18   19 1    
    22   19   20 1    
    23   20   21 2    
    24   21   22 1    
    25   21   23 1    
    26   22   27 1    
    27   23   24 1    
    28   23   25 1    
    29   25   26 1    
    30   26   27 1    
    31   27   28 1    
    32   28   29 1    
    33   29   30 2    
    34   29   31 1    
    35   31   32 1    
    36   32   33 1    
    37   33   34 ar   
    38   33   35 ar   
@<TRIPOS>SUBSTRUCTURE
     1 Y011403     1 GROUP   
@<TRIPOS>SET

