#    Name: 6o77_4_Y01
#    Modification time : Fri May 22 19:37:01 2020

@<TRIPOS>MOLECULE
6o77_4_Y01
   35    38     1     0     0
SMALL
NO_CHARGES


@<TRIPOS>ATOM
      1 CAA       183.5000  137.8960  209.3370 C.3       1 Y011402     0.0000 
      2 CBA       182.1040  138.4400  209.6330 C.3       1 Y011402     0.0000 
      3 CAB       181.6310  137.9200  210.9880 C.3       1 Y011402     0.0000 
      4 CAN       181.1350  137.9830  208.5440 C.3       1 Y011402     0.0000 
      5 CAJ       180.7840  139.1710  207.6410 C.3       1 Y011402     0.0000 
      6 CAO       180.5840  138.6850  206.2030 C.3       1 Y011402     0.0000 
      7 CBB       181.4340  139.5680  205.1640 C.3       1 Y011402     0.0000 
      8 CAC       182.9450  139.5540  205.6880 C.3       1 Y011402     0.0000 
      9 CBE       181.3470  139.0960  203.8740 C.3       1 Y011402     0.0000 
     10 CAP       179.8080  138.5640  203.4940 C.3       1 Y011402     0.0000 
     11 CAQ       179.3290  139.4570  202.2660 C.3       1 Y011402     0.0000 
     12 CBG       180.7050  139.8110  201.5070 C.3       1 Y011402     0.0000 
     13 CBI       181.6900  140.2020  202.6320 C.3       1 Y011402     0.0000 
     14 CAE       181.2400  141.5880  203.1170 C.3       1 Y011402     0.0000 
     15 CAU       182.9910  140.3730  202.1260 C.3       1 Y011402     0.0000 
     16 CAS       183.1220  141.2160  200.7360 C.3       1 Y011402     0.0000 
     17 CBF       182.0840  140.8480  199.6640 C.3       1 Y011402     0.0000 
     18 CBD       180.7350  140.7400  200.2780 C.3       1 Y011402     0.0000 
     19 CAK       179.6170  140.1500  199.2100 C.3       1 Y011402     0.0000 
     20 CAI       179.7880  140.7160  197.8560 C.2       1 Y011402     0.0000 
     21 CAZ       180.7660  142.0890  197.7520 C.2       1 Y011402     0.0000 
     22 CAV       180.7590  142.9340  196.4740 C.3       1 Y011402     0.0000 
     23 CBH       182.0870  141.9860  198.3880 C.3       1 Y011402     0.0000 
     24 CAD       182.3810  143.3690  198.9760 C.3       1 Y011402     0.0000 
     25 CAT       183.2030  141.6290  197.3790 C.3       1 Y011402     0.0000 
     26 CAR       183.1520  142.4490  196.0860 C.3       1 Y011402     0.0000 
     27 CBC       181.8130  142.4630  195.4570 C.3       1 Y011402     0.0000 
     28 OAW       181.8150  143.3920  194.3700 O.3       1 Y011402     0.0000 
     29 CAY       181.2800  142.9690  193.1430 C.2       1 Y011402     0.0000 
     30 OAG       181.6300  143.5210  192.1580 O.2       1 Y011402     0.0000 
     31 CAM       180.2630  141.8280  193.0270 C.3       1 Y011402     0.0000 
     32 CAL       178.8400  142.3210  193.2980 C.3       1 Y011402     0.0000 
     33 CAX       178.2600  142.9760  192.0490 C.2       1 Y011402     0.0000 
     34 OAH       177.0790  143.4080  192.0660 O.co2     1 Y011402     0.0000 
     35 OAF       178.9540  143.0810  191.0050 O.co2     1 Y011402     0.0000 
@<TRIPOS>BOND
     1    1    2 1    
     2    2    3 1    
     3    2    4 1    
     4    4    5 1    
     5    5    6 1    
     6    6    7 1    
     7    7    8 1    
     8    7    9 1    
     9    9   10 1    
    10    9   13 1    
    11   10   11 1    
    12   11   12 1    
    13   12   13 1    
    14   12   18 1    
    15   13   14 1    
    16   13   15 1    
    17   15   16 1    
    18   16   17 1    
    19   17   18 1    
    20   17   23 1    
    21   18   19 1    
    22   19   20 1    
    23   20   21 2    
    24   21   22 1    
    25   21   23 1    
    26   22   27 1    
    27   23   24 1    
    28   23   25 1    
    29   25   26 1    
    30   26   27 1    
    31   27   28 1    
    32   28   29 1    
    33   29   30 2    
    34   29   31 1    
    35   31   32 1    
    36   32   33 1    
    37   33   34 ar   
    38   33   35 ar   
@<TRIPOS>SUBSTRUCTURE
     1 Y011402     1 GROUP   
@<TRIPOS>SET

