#    Name: 6o77_11_Y01
#    Modification time : Fri May 22 19:38:04 2020

@<TRIPOS>MOLECULE
6o77_11_Y01
   35    38     1     0     0
SMALL
NO_CHARGES


@<TRIPOS>ATOM
      1 CAA       153.1950  193.0590  212.7060 C.3       1 Y011403     0.0000 
      2 CBA       154.6720  192.7830  212.9630 C.3       1 Y011403     0.0000 
      3 CAB       154.9670  192.8290  214.4600 C.3       1 Y011403     0.0000 
      4 CAN       155.5120  193.8260  212.2340 C.3       1 Y011403     0.0000 
      5 CAJ       155.6160  193.4130  210.7680 C.3       1 Y011403     0.0000 
      6 CAO       157.0770  193.0940  210.4400 C.3       1 Y011403     0.0000 
      7 CBB       157.2430  192.4340  208.9830 C.3       1 Y011403     0.0000 
      8 CAC       156.0760  191.3530  208.8000 C.3       1 Y011403     0.0000 
      9 CBE       157.2610  193.3550  207.9540 C.3       1 Y011403     0.0000 
     10 CAP       157.9960  194.8050  208.3610 C.3       1 Y011403     0.0000 
     11 CAQ       159.2480  194.9560  207.3890 C.3       1 Y011403     0.0000 
     12 CBG       158.7620  194.1930  206.0560 C.3       1 Y011403     0.0000 
     13 CBI       158.1010  192.8820  206.5570 C.3       1 Y011403     0.0000 
     14 CAE       159.2680  191.9850  207.0030 C.3       1 Y011403     0.0000 
     15 CAU       157.4710  192.1730  205.5150 C.3       1 Y011403     0.0000 
     16 CAS       158.2680  192.1330  204.0920 C.3       1 Y011403     0.0000 
     17 CBF       158.8660  193.4880  203.6920 C.3       1 Y011403     0.0000 
     18 CBD       159.6770  193.9860  204.8300 C.3       1 Y011403     0.0000 
     19 CAK       160.4970  195.3990  204.5320 C.3       1 Y011403     0.0000 
     20 CAI       161.1500  195.4700  203.2010 C.2       1 Y011403     0.0000 
     21 CAZ       160.5600  194.5120  201.9320 C.2       1 Y011403     0.0000 
     22 CAV       161.2960  194.4390  200.5840 C.3       1 Y011403     0.0000 
     23 CBH       159.7640  193.3200  202.2550 C.3       1 Y011403     0.0000 
     24 CAD       160.7120  192.1360  202.4840 C.3       1 Y011403     0.0000 
     25 CAT       158.7930  192.9970  201.1010 C.3       1 Y011403     0.0000 
     26 CAR       159.4560  192.9570  199.7210 C.3       1 Y011403     0.0000 
     27 CBC       160.3820  194.0700  199.3970 C.3       1 Y011403     0.0000 
     28 OAW       161.2120  193.5830  198.3400 O.3       1 Y011403     0.0000 
     29 CAY       161.5010  194.4930  197.3220 C.2       1 Y011403     0.0000 
     30 OAG       161.2760  195.6460  197.4680 O.2       1 Y011403     0.0000 
     31 CAM       162.1120  193.9920  196.0160 C.3       1 Y011403     0.0000 
     32 CAL       163.0560  195.0500  195.4460 C.3       1 Y011403     0.0000 
     33 CAX       164.2190  195.2780  196.4090 C.2       1 Y011403     0.0000 
     34 OAH       164.2460  196.3130  197.1260 O.co2     1 Y011403     0.0000 
     35 OAF       165.1470  194.4300  196.4880 O.co2     1 Y011403     0.0000 
@<TRIPOS>BOND
     1    1    2 1    
     2    2    3 1    
     3    2    4 1    
     4    4    5 1    
     5    5    6 1    
     6    6    7 1    
     7    7    8 1    
     8    7    9 1    
     9    9   10 1    
    10    9   13 1    
    11   10   11 1    
    12   11   12 1    
    13   12   13 1    
    14   12   18 1    
    15   13   14 1    
    16   13   15 1    
    17   15   16 1    
    18   16   17 1    
    19   17   18 1    
    20   17   23 1    
    21   18   19 1    
    22   19   20 1    
    23   20   21 2    
    24   21   22 1    
    25   21   23 1    
    26   22   27 1    
    27   23   24 1    
    28   23   25 1    
    29   25   26 1    
    30   26   27 1    
    31   27   28 1    
    32   28   29 1    
    33   29   30 2    
    34   29   31 1    
    35   31   32 1    
    36   32   33 1    
    37   33   34 ar   
    38   33   35 ar   
@<TRIPOS>SUBSTRUCTURE
     1 Y011403     1 GROUP   
@<TRIPOS>SET

