#    Name: 6o77_8_Y01_CAVITY_N1_4
#    Modification time : Fri May 22 19:37:39 2020

@<TRIPOS>MOLECULE
6o77_8_Y01_CAVITY_N1_4
   25     0     5     0     0
SMALL
NO_CHARGES


@<TRIPOS>ATOM
      1 N         196.4200  177.1700  194.4300 N.am      1 ALA2        0.0000 
      2 N         195.0800  177.6900  194.8500 N.am      1 ALA2        0.0000 
      3 N         195.3200  178.9500  194.0800 N.am      1 ALA2        0.0000 
      4 N         197.0500  177.7900  195.6400 N.am      1 ALA2        0.0000 
      5 N         198.7800  176.6400  197.2000 N.am      1 ALA2        0.0000 
      6 OD1       195.7900  176.5400  193.2200 O.co2     2 ASP3        0.0000 
      7 OD1       196.0400  177.8000  192.4400 O.co2     2 ASP3        0.0000 
      8 CZ        194.5200  181.8700  198.5600 C.ar      3 PHE5        0.0000 
      9 CZ        194.9100  181.2300  200.5400 C.ar      3 PHE5        0.0000 
     10 CZ        195.1500  182.4900  199.7700 C.ar      3 PHE5        0.0000 
     11 CA        196.6600  178.4300  193.6500 C.3       4 GLY6        0.0000 
     12 CA        198.3900  177.2700  195.2100 C.3       4 GLY6        0.0000 
     13 CA        197.2900  179.0500  194.8600 C.3       4 GLY6        0.0000 
     14 CA        194.3700  178.8300  196.4900 C.3       4 GLY6        0.0000 
     15 CA        194.6100  180.0900  195.7100 C.3       4 GLY6        0.0000 
     16 CA        195.2300  180.7200  196.9200 C.3       4 GLY6        0.0000 
     17 CA        193.8900  181.2400  197.3500 C.3       4 GLY6        0.0000 
     18 DU        195.7100  178.3100  196.0600 H         5 CUB7        0.0000 
     19 DU        195.9500  179.5700  195.2900 H         5 CUB7        0.0000 
     20 DU        197.6800  178.4200  196.8500 H         5 CUB7        0.0000 
     21 DU        197.9200  179.6800  196.0700 H         5 CUB7        0.0000 
     22 DU        196.5800  180.2000  196.5000 H         5 CUB7        0.0000 
     23 DU        198.5400  180.3100  197.2800 H         5 CUB7        0.0000 
     24 DU        195.8600  181.3500  198.1300 H         5 CUB7        0.0000 
     25 DU        194.2800  180.6100  199.3400 H         5 CUB7        0.0000 
@<TRIPOS>BOND
@<TRIPOS>SUBSTRUCTURE
     1 ALA2        1 GROUP   
     2 ASP3        6 GROUP   
     3 PHE5        8 GROUP   
     4 GLY6       11 GROUP   
     5 CUB7       18 GROUP   
@<TRIPOS>SET

