#    Name: 6o77_1_Y01
#    Modification time : Fri May 22 19:36:35 2020

@<TRIPOS>MOLECULE
6o77_1_Y01
   35    38     1     0     0
SMALL
NO_CHARGES


@<TRIPOS>ATOM
      1 CAA       137.8990  155.3930  209.3380 C.3       1 Y011402     0.0000 
      2 CBA       138.4430  156.7890  209.6340 C.3       1 Y011402     0.0000 
      3 CAB       137.9240  157.2620  210.9890 C.3       1 Y011402     0.0000 
      4 CAN       137.9860  157.7580  208.5450 C.3       1 Y011402     0.0000 
      5 CAJ       139.1740  158.1080  207.6420 C.3       1 Y011402     0.0000 
      6 CAO       138.6880  158.3080  206.2040 C.3       1 Y011402     0.0000 
      7 CBB       139.5710  157.4580  205.1650 C.3       1 Y011402     0.0000 
      8 CAC       139.5560  155.9470  205.6890 C.3       1 Y011402     0.0000 
      9 CBE       139.0990  157.5450  203.8750 C.3       1 Y011402     0.0000 
     10 CAP       138.5670  159.0840  203.4950 C.3       1 Y011402     0.0000 
     11 CAQ       139.4600  159.5630  202.2670 C.3       1 Y011402     0.0000 
     12 CBG       139.8130  158.1870  201.5080 C.3       1 Y011402     0.0000 
     13 CBI       140.2040  157.2020  202.6330 C.3       1 Y011402     0.0000 
     14 CAE       141.5900  157.6510  203.1180 C.3       1 Y011402     0.0000 
     15 CAU       140.3750  155.9010  202.1270 C.3       1 Y011402     0.0000 
     16 CAS       141.2180  155.7690  200.7370 C.3       1 Y011402     0.0000 
     17 CBF       140.8500  156.8070  199.6650 C.3       1 Y011402     0.0000 
     18 CBD       140.7420  158.1560  200.2790 C.3       1 Y011402     0.0000 
     19 CAK       140.1520  159.2740  199.2110 C.3       1 Y011402     0.0000 
     20 CAI       140.7180  159.1030  197.8570 C.2       1 Y011402     0.0000 
     21 CAZ       142.0910  158.1250  197.7520 C.2       1 Y011402     0.0000 
     22 CAV       142.9360  158.1310  196.4740 C.3       1 Y011402     0.0000 
     23 CBH       141.9880  156.8040  198.3890 C.3       1 Y011402     0.0000 
     24 CAD       143.3710  156.5100  198.9760 C.3       1 Y011402     0.0000 
     25 CAT       141.6300  155.6880  197.3800 C.3       1 Y011402     0.0000 
     26 CAR       142.4500  155.7390  196.0870 C.3       1 Y011402     0.0000 
     27 CBC       142.4640  157.0780  195.4580 C.3       1 Y011402     0.0000 
     28 OAW       143.3930  157.0750  194.3700 O.3       1 Y011402     0.0000 
     29 CAY       142.9700  157.6100  193.1430 C.2       1 Y011402     0.0000 
     30 OAG       143.5220  157.2600  192.1580 O.2       1 Y011402     0.0000 
     31 CAM       141.8290  158.6270  193.0270 C.3       1 Y011402     0.0000 
     32 CAL       142.3230  160.0500  193.2980 C.3       1 Y011402     0.0000 
     33 CAX       142.9780  160.6300  192.0490 C.2       1 Y011402     0.0000 
     34 OAH       143.4100  161.8110  192.0660 O.co2     1 Y011402     0.0000 
     35 OAF       143.0820  159.9360  191.0050 O.co2     1 Y011402     0.0000 
@<TRIPOS>BOND
     1    1    2 1    
     2    2    3 1    
     3    2    4 1    
     4    4    5 1    
     5    5    6 1    
     6    6    7 1    
     7    7    8 1    
     8    7    9 1    
     9    9   10 1    
    10    9   13 1    
    11   10   11 1    
    12   11   12 1    
    13   12   13 1    
    14   12   18 1    
    15   13   14 1    
    16   13   15 1    
    17   15   16 1    
    18   16   17 1    
    19   17   18 1    
    20   17   23 1    
    21   18   19 1    
    22   19   20 1    
    23   20   21 2    
    24   21   22 1    
    25   21   23 1    
    26   22   27 1    
    27   23   24 1    
    28   23   25 1    
    29   25   26 1    
    30   26   27 1    
    31   27   28 1    
    32   28   29 1    
    33   29   30 2    
    34   29   31 1    
    35   31   32 1    
    36   32   33 1    
    37   33   34 ar   
    38   33   35 ar   
@<TRIPOS>SUBSTRUCTURE
     1 Y011402     1 GROUP   
@<TRIPOS>SET

