#    Name: 6o77_5_Y01
#    Modification time : Fri May 22 19:37:13 2020

@<TRIPOS>MOLECULE
6o77_5_Y01
   35    38     1     0     0
SMALL
NO_CHARGES


@<TRIPOS>ATOM
      1 CAA       185.6850  145.8210  212.7070 C.3       1 Y011403     0.0000 
      2 CBA       184.2080  146.0970  212.9640 C.3       1 Y011403     0.0000 
      3 CAB       183.9130  146.0520  214.4610 C.3       1 Y011403     0.0000 
      4 CAN       183.3680  145.0550  212.2350 C.3       1 Y011403     0.0000 
      5 CAJ       183.2640  145.4670  210.7690 C.3       1 Y011403     0.0000 
      6 CAO       181.8030  145.7870  210.4410 C.3       1 Y011403     0.0000 
      7 CBB       181.6370  146.4460  208.9840 C.3       1 Y011403     0.0000 
      8 CAC       182.8030  147.5270  208.8010 C.3       1 Y011403     0.0000 
      9 CBE       181.6190  145.5250  207.9550 C.3       1 Y011403     0.0000 
     10 CAP       180.8840  144.0760  208.3620 C.3       1 Y011403     0.0000 
     11 CAQ       179.6320  143.9250  207.3900 C.3       1 Y011403     0.0000 
     12 CBG       180.1180  144.6870  206.0570 C.3       1 Y011403     0.0000 
     13 CBI       180.7790  145.9980  206.5580 C.3       1 Y011403     0.0000 
     14 CAE       179.6110  146.8960  207.0040 C.3       1 Y011403     0.0000 
     15 CAU       181.4090  146.7070  205.5160 C.3       1 Y011403     0.0000 
     16 CAS       180.6120  146.7470  204.0930 C.3       1 Y011403     0.0000 
     17 CBF       180.0140  145.3920  203.6930 C.3       1 Y011403     0.0000 
     18 CBD       179.2030  144.8940  204.8310 C.3       1 Y011403     0.0000 
     19 CAK       178.3830  143.4810  204.5330 C.3       1 Y011403     0.0000 
     20 CAI       177.7300  143.4100  203.2020 C.2       1 Y011403     0.0000 
     21 CAZ       178.3200  144.3680  201.9330 C.2       1 Y011403     0.0000 
     22 CAV       177.5830  144.4410  200.5850 C.3       1 Y011403     0.0000 
     23 CBH       179.1160  145.5600  202.2560 C.3       1 Y011403     0.0000 
     24 CAD       178.1680  146.7440  202.4850 C.3       1 Y011403     0.0000 
     25 CAT       180.0870  145.8840  201.1020 C.3       1 Y011403     0.0000 
     26 CAR       179.4240  145.9230  199.7220 C.3       1 Y011403     0.0000 
     27 CBC       178.4980  144.8100  199.3980 C.3       1 Y011403     0.0000 
     28 OAW       177.6680  145.2970  198.3410 O.3       1 Y011403     0.0000 
     29 CAY       177.3790  144.3870  197.3230 C.2       1 Y011403     0.0000 
     30 OAG       177.6040  143.2340  197.4690 O.2       1 Y011403     0.0000 
     31 CAM       176.7680  144.8880  196.0170 C.3       1 Y011403     0.0000 
     32 CAL       175.8240  143.8300  195.4470 C.3       1 Y011403     0.0000 
     33 CAX       174.6610  143.6020  196.4100 C.2       1 Y011403     0.0000 
     34 OAH       174.6340  142.5670  197.1270 O.co2     1 Y011403     0.0000 
     35 OAF       173.7330  144.4500  196.4880 O.co2     1 Y011403     0.0000 
@<TRIPOS>BOND
     1    1    2 1    
     2    2    3 1    
     3    2    4 1    
     4    4    5 1    
     5    5    6 1    
     6    6    7 1    
     7    7    8 1    
     8    7    9 1    
     9    9   10 1    
    10    9   13 1    
    11   10   11 1    
    12   11   12 1    
    13   12   13 1    
    14   12   18 1    
    15   13   14 1    
    16   13   15 1    
    17   15   16 1    
    18   16   17 1    
    19   17   18 1    
    20   17   23 1    
    21   18   19 1    
    22   19   20 1    
    23   20   21 2    
    24   21   22 1    
    25   21   23 1    
    26   22   27 1    
    27   23   24 1    
    28   23   25 1    
    29   25   26 1    
    30   26   27 1    
    31   27   28 1    
    32   28   29 1    
    33   29   30 2    
    34   29   31 1    
    35   31   32 1    
    36   32   33 1    
    37   33   34 ar   
    38   33   35 ar   
@<TRIPOS>SUBSTRUCTURE
     1 Y011403     1 GROUP   
@<TRIPOS>SET

