#    Name: 6o77_10_Y01
#    Modification time : Fri May 22 19:37:52 2020

@<TRIPOS>MOLECULE
6o77_10_Y01
   35    38     1     0     0
SMALL
NO_CHARGES


@<TRIPOS>ATOM
      1 CAA       155.3800  200.9840  209.3360 C.3       1 Y011402     0.0000 
      2 CBA       156.7760  200.4400  209.6320 C.3       1 Y011402     0.0000 
      3 CAB       157.2490  200.9600  210.9870 C.3       1 Y011402     0.0000 
      4 CAN       157.7450  200.8970  208.5430 C.3       1 Y011402     0.0000 
      5 CAJ       158.0960  199.7090  207.6400 C.3       1 Y011402     0.0000 
      6 CAO       158.2960  200.1950  206.2020 C.3       1 Y011402     0.0000 
      7 CBB       157.4460  199.3120  205.1630 C.3       1 Y011402     0.0000 
      8 CAC       155.9350  199.3270  205.6870 C.3       1 Y011402     0.0000 
      9 CBE       157.5330  199.7840  203.8730 C.3       1 Y011402     0.0000 
     10 CAP       159.0720  200.3160  203.4930 C.3       1 Y011402     0.0000 
     11 CAQ       159.5510  199.4230  202.2650 C.3       1 Y011402     0.0000 
     12 CBG       158.1750  199.0690  201.5060 C.3       1 Y011402     0.0000 
     13 CBI       157.1900  198.6780  202.6310 C.3       1 Y011402     0.0000 
     14 CAE       157.6400  197.2930  203.1160 C.3       1 Y011402     0.0000 
     15 CAU       155.8890  198.5070  202.1250 C.3       1 Y011402     0.0000 
     16 CAS       155.7580  197.6640  200.7350 C.3       1 Y011402     0.0000 
     17 CBF       156.7960  198.0320  199.6630 C.3       1 Y011402     0.0000 
     18 CBD       158.1450  198.1400  200.2770 C.3       1 Y011402     0.0000 
     19 CAK       159.2630  198.7300  199.2090 C.3       1 Y011402     0.0000 
     20 CAI       159.0920  198.1640  197.8550 C.2       1 Y011402     0.0000 
     21 CAZ       158.1140  196.7910  197.7500 C.2       1 Y011402     0.0000 
     22 CAV       158.1200  195.9460  196.4730 C.3       1 Y011402     0.0000 
     23 CBH       156.7930  196.8940  198.3870 C.3       1 Y011402     0.0000 
     24 CAD       156.4990  195.5110  198.9750 C.3       1 Y011402     0.0000 
     25 CAT       155.6770  197.2510  197.3780 C.3       1 Y011402     0.0000 
     26 CAR       155.7280  196.4310  196.0850 C.3       1 Y011402     0.0000 
     27 CBC       157.0670  196.4170  195.4560 C.3       1 Y011402     0.0000 
     28 OAW       157.0650  195.4880  194.3690 O.3       1 Y011402     0.0000 
     29 CAY       157.6000  195.9110  193.1420 C.2       1 Y011402     0.0000 
     30 OAG       157.2500  195.3590  192.1570 O.2       1 Y011402     0.0000 
     31 CAM       158.6170  197.0520  193.0250 C.3       1 Y011402     0.0000 
     32 CAL       160.0400  196.5590  193.2970 C.3       1 Y011402     0.0000 
     33 CAX       160.6200  195.9030  192.0480 C.2       1 Y011402     0.0000 
     34 OAH       161.8010  195.4720  192.0650 O.co2     1 Y011402     0.0000 
     35 OAF       159.9260  195.7990  191.0040 O.co2     1 Y011402     0.0000 
@<TRIPOS>BOND
     1    1    2 1    
     2    2    3 1    
     3    2    4 1    
     4    4    5 1    
     5    5    6 1    
     6    6    7 1    
     7    7    8 1    
     8    7    9 1    
     9    9   10 1    
    10    9   13 1    
    11   10   11 1    
    12   11   12 1    
    13   12   13 1    
    14   12   18 1    
    15   13   14 1    
    16   13   15 1    
    17   15   16 1    
    18   16   17 1    
    19   17   18 1    
    20   17   23 1    
    21   18   19 1    
    22   19   20 1    
    23   20   21 2    
    24   21   22 1    
    25   21   23 1    
    26   22   27 1    
    27   23   24 1    
    28   23   25 1    
    29   25   26 1    
    30   26   27 1    
    31   27   28 1    
    32   28   29 1    
    33   29   30 2    
    34   29   31 1    
    35   31   32 1    
    36   32   33 1    
    37   33   34 ar   
    38   33   35 ar   
@<TRIPOS>SUBSTRUCTURE
     1 Y011402     1 GROUP   
@<TRIPOS>SET

