#    Name: 6o77_4_Y01_CAVITY_N1_6
#    Modification time : Fri May 22 19:37:02 2020

@<TRIPOS>MOLECULE
6o77_4_Y01_CAVITY_N1_6
   89     0     6     0     0
SMALL
NO_CHARGES


@<TRIPOS>ATOM
      1 OG        181.3200  140.6800  191.4200 O.3       1 SER1        0.0000 
      2 OG        179.7400  139.9400  192.6200 O.3       1 SER1        0.0000 
      3 OG        179.9800  141.2000  191.8500 O.3       1 SER1        0.0000 
      4 OG        180.2200  142.4600  191.0700 O.3       1 SER1        0.0000 
      5 OG        183.3500  140.6700  197.8100 O.3       1 SER1        0.0000 
      6 OG        181.7700  139.9300  199.0200 O.3       1 SER1        0.0000 
      7 OG        183.4900  138.7800  200.5800 O.3       1 SER1        0.0000 
      8 OG        183.7400  140.0400  199.8000 O.3       1 SER1        0.0000 
      9 OG        183.9800  141.3000  199.0200 O.3       1 SER1        0.0000 
     10 O         176.6700  141.6100  191.4900 O.2       2 ALA2        0.0000 
     11 N         179.5100  143.6100  192.7000 N.am      2 ALA2        0.0000 
     12 N         178.1700  144.1300  193.1300 N.am      2 ALA2        0.0000 
     13 N         179.8900  142.9700  194.6900 N.am      2 ALA2        0.0000 
     14 N         178.5500  143.4900  195.1200 N.am      2 ALA2        0.0000 
     15 N         184.1200  139.4100  201.7900 N.am      2 ALA2        0.0000 
     16 OD1       176.9100  142.8700  190.7100 O.co2     3 ASP3        0.0000 
     17 OD1       178.8800  142.9800  191.4900 O.co2     3 ASP3        0.0000 
     18 OD1       177.5400  143.5000  191.9200 O.co2     3 ASP3        0.0000 
     19 CZ        181.5600  141.9400  190.6400 C.ar      4 PHE5        0.0000 
     20 CZ        181.9500  141.3100  192.6300 C.ar      4 PHE5        0.0000 
     21 CZ        180.1300  139.3100  194.6100 C.ar      4 PHE5        0.0000 
     22 CZ        180.3700  140.5700  193.8300 C.ar      4 PHE5        0.0000 
     23 CZ        180.6100  141.8300  193.0500 C.ar      4 PHE5        0.0000 
     24 CZ        180.8500  143.0900  192.2800 C.ar      4 PHE5        0.0000 
     25 CZ        182.5800  141.9300  193.8400 C.ar      4 PHE5        0.0000 
     26 CZ        180.7500  139.9400  195.8200 C.ar      4 PHE5        0.0000 
     27 CZ        180.9900  141.2000  195.0400 C.ar      4 PHE5        0.0000 
     28 CZ        181.2400  142.4500  194.2600 C.ar      4 PHE5        0.0000 
     29 CZ        182.7200  140.0400  196.6000 C.ar      4 PHE5        0.0000 
     30 CZ        182.9600  141.3000  195.8300 C.ar      4 PHE5        0.0000 
     31 CZ        183.2000  142.5600  195.0500 C.ar      4 PHE5        0.0000 
     32 CZ        181.3800  140.5600  197.0300 C.ar      4 PHE5        0.0000 
     33 CZ        181.6200  141.8200  196.2500 C.ar      4 PHE5        0.0000 
     34 CZ        183.5900  141.9300  197.0400 C.ar      4 PHE5        0.0000 
     35 CZ        183.8300  143.1900  196.2600 C.ar      4 PHE5        0.0000 
     36 CZ        184.2200  142.5600  198.2500 C.ar      4 PHE5        0.0000 
     37 CZ        182.8800  143.0800  198.6700 C.ar      4 PHE5        0.0000 
     38 CZ        183.1200  144.3400  197.8900 C.ar      4 PHE5        0.0000 
     39 CZ        183.2600  142.4400  200.6600 C.ar      4 PHE5        0.0000 
     40 CZ        181.9200  142.9600  201.0800 C.ar      4 PHE5        0.0000 
     41 CZ        182.1600  144.2200  200.3100 C.ar      4 PHE5        0.0000 
     42 CZ        182.4000  145.4800  199.5300 C.ar      4 PHE5        0.0000 
     43 CA        178.6400  141.7200  192.2700 C.3       5 GLY6        0.0000 
     44 CA        177.3000  142.2400  192.7000 C.3       5 GLY6        0.0000 
     45 CA        178.7900  139.8300  195.0400 C.3       5 GLY6        0.0000 
     46 CA        179.0300  141.0900  194.2600 C.3       5 GLY6        0.0000 
     47 CA        177.6900  141.6100  194.6800 C.3       5 GLY6        0.0000 
     48 CA        180.5100  138.6800  196.6000 C.3       5 GLY6        0.0000 
     49 CA        181.4800  143.7100  193.4900 C.3       5 GLY6        0.0000 
     50 CA        179.1700  139.2000  197.0300 C.3       5 GLY6        0.0000 
     51 CA        177.8300  139.7200  197.4500 C.3       5 GLY6        0.0000 
     52 CA        183.4400  143.8200  194.2700 C.3       5 GLY6        0.0000 
     53 CA        181.1400  139.3000  197.8100 C.3       5 GLY6        0.0000 
     54 CA        181.8600  143.0800  195.4700 C.3       5 GLY6        0.0000 
     55 CA        182.1000  144.3400  194.7000 C.3       5 GLY6        0.0000 
     56 CA        179.8000  139.8200  198.2300 C.3       5 GLY6        0.0000 
     57 CA        180.5200  143.6000  195.9000 C.3       5 GLY6        0.0000 
     58 CA        181.5300  138.6700  199.8000 C.3       5 GLY6        0.0000 
     59 CA        182.4900  143.7100  196.6800 C.3       5 GLY6        0.0000 
     60 CA        182.7300  144.9700  195.9100 C.3       5 GLY6        0.0000 
     61 CA        181.1500  144.2300  197.1100 C.3       5 GLY6        0.0000 
     62 CA        179.8100  144.7500  197.5400 C.3       5 GLY6        0.0000 
     63 CA        183.2500  137.5200  201.3600 C.3       5 GLY6        0.0000 
     64 CA        181.9100  138.0400  201.7800 C.3       5 GLY6        0.0000 
     65 CA        181.7800  144.8600  198.3200 C.3       5 GLY6        0.0000 
     66 CA        180.4400  145.3800  198.7400 C.3       5 GLY6        0.0000 
     67 CA        184.3600  140.6700  201.0100 C.3       5 GLY6        0.0000 
     68 CA        184.6000  141.9300  200.2300 C.3       5 GLY6        0.0000 
     69 CA        182.5400  138.6700  202.9900 C.3       5 GLY6        0.0000 
     70 CA        183.0200  141.1900  201.4400 C.3       5 GLY6        0.0000 
     71 DU        179.2700  142.3500  193.4800 H         6 CUB7        0.0000 
     72 DU        177.9300  142.8700  193.9100 H         6 CUB7        0.0000 
     73 DU        179.4100  140.4600  196.2500 H         6 CUB7        0.0000 
     74 DU        179.6500  141.7200  195.4700 H         6 CUB7        0.0000 
     75 DU        178.3100  142.2300  195.8900 H         6 CUB7        0.0000 
     76 DU        177.2100  144.0100  195.5400 H         6 CUB7        0.0000 
     77 DU        180.0400  141.0800  197.4600 H         6 CUB7        0.0000 
     78 DU        177.8400  144.6400  196.7500 H         6 CUB7        0.0000 
     79 DU        182.0100  141.1900  198.2400 H         6 CUB7        0.0000 
     80 DU        182.2500  142.4500  197.4600 H         6 CUB7        0.0000 
     81 DU        180.4300  140.4500  199.4400 H         6 CUB7        0.0000 
     82 DU        180.9100  142.9700  197.8900 H         6 CUB7        0.0000 
     83 DU        179.5700  143.4900  198.3100 H         6 CUB7        0.0000 
     84 DU        182.1500  139.3000  201.0100 H         6 CUB7        0.0000 
     85 DU        182.3900  140.5600  200.2300 H         6 CUB7        0.0000 
     86 DU        182.6400  141.8200  199.4500 H         6 CUB7        0.0000 
     87 DU        181.2900  142.3400  199.8800 H         6 CUB7        0.0000 
     88 DU        181.5400  143.6000  199.1000 H         6 CUB7        0.0000 
     89 DU        182.7800  139.9300  202.2200 H         6 CUB7        0.0000 
@<TRIPOS>BOND
@<TRIPOS>SUBSTRUCTURE
     1 SER1        1 GROUP   
     2 ALA2       10 GROUP   
     3 ASP3       16 GROUP   
     4 PHE5       19 GROUP   
     5 GLY6       43 GROUP   
     6 CUB7       71 GROUP   
@<TRIPOS>SET

