#    Name: 6o77_8_Y01
#    Modification time : Fri May 22 19:37:38 2020

@<TRIPOS>MOLECULE
6o77_8_Y01
   35    38     1     0     0
SMALL
NO_CHARGES


@<TRIPOS>ATOM
      1 CAA       193.0590  185.6850  212.7060 C.3       1 Y011403     0.0000 
      2 CBA       192.7830  184.2080  212.9640 C.3       1 Y011403     0.0000 
      3 CAB       192.8280  183.9130  214.4610 C.3       1 Y011403     0.0000 
      4 CAN       193.8250  183.3680  212.2350 C.3       1 Y011403     0.0000 
      5 CAJ       193.4130  183.2640  210.7690 C.3       1 Y011403     0.0000 
      6 CAO       193.0930  181.8030  210.4410 C.3       1 Y011403     0.0000 
      7 CBB       192.4340  181.6370  208.9840 C.3       1 Y011403     0.0000 
      8 CAC       191.3530  182.8040  208.8010 C.3       1 Y011403     0.0000 
      9 CBE       193.3550  181.6190  207.9550 C.3       1 Y011403     0.0000 
     10 CAP       194.8040  180.8840  208.3620 C.3       1 Y011403     0.0000 
     11 CAQ       194.9550  179.6320  207.3900 C.3       1 Y011403     0.0000 
     12 CBG       194.1930  180.1180  206.0570 C.3       1 Y011403     0.0000 
     13 CBI       192.8820  180.7790  206.5580 C.3       1 Y011403     0.0000 
     14 CAE       191.9840  179.6120  207.0040 C.3       1 Y011403     0.0000 
     15 CAU       192.1730  181.4090  205.5160 C.3       1 Y011403     0.0000 
     16 CAS       192.1320  180.6120  204.0930 C.3       1 Y011403     0.0000 
     17 CBF       193.4880  180.0140  203.6930 C.3       1 Y011403     0.0000 
     18 CBD       193.9860  179.2030  204.8310 C.3       1 Y011403     0.0000 
     19 CAK       195.3990  178.3830  204.5330 C.3       1 Y011403     0.0000 
     20 CAI       195.4700  177.7300  203.2020 C.2       1 Y011403     0.0000 
     21 CAZ       194.5120  178.3200  201.9330 C.2       1 Y011403     0.0000 
     22 CAV       194.4390  177.5840  200.5850 C.3       1 Y011403     0.0000 
     23 CBH       193.3200  179.1160  202.2560 C.3       1 Y011403     0.0000 
     24 CAD       192.1360  178.1680  202.4850 C.3       1 Y011403     0.0000 
     25 CAT       192.9960  180.0870  201.1020 C.3       1 Y011403     0.0000 
     26 CAR       192.9570  179.4240  199.7220 C.3       1 Y011403     0.0000 
     27 CBC       194.0690  178.4980  199.3980 C.3       1 Y011403     0.0000 
     28 OAW       193.5820  177.6680  198.3410 O.3       1 Y011403     0.0000 
     29 CAY       194.4920  177.3790  197.3230 C.2       1 Y011403     0.0000 
     30 OAG       195.6450  177.6040  197.4690 O.2       1 Y011403     0.0000 
     31 CAM       193.9920  176.7680  196.0170 C.3       1 Y011403     0.0000 
     32 CAL       195.0490  175.8240  195.4470 C.3       1 Y011403     0.0000 
     33 CAX       195.2780  174.6610  196.4100 C.2       1 Y011403     0.0000 
     34 OAH       196.3130  174.6340  197.1270 O.co2     1 Y011403     0.0000 
     35 OAF       194.4300  173.7330  196.4880 O.co2     1 Y011403     0.0000 
@<TRIPOS>BOND
     1    1    2 1    
     2    2    3 1    
     3    2    4 1    
     4    4    5 1    
     5    5    6 1    
     6    6    7 1    
     7    7    8 1    
     8    7    9 1    
     9    9   10 1    
    10    9   13 1    
    11   10   11 1    
    12   11   12 1    
    13   12   13 1    
    14   12   18 1    
    15   13   14 1    
    16   13   15 1    
    17   15   16 1    
    18   16   17 1    
    19   17   18 1    
    20   17   23 1    
    21   18   19 1    
    22   19   20 1    
    23   20   21 2    
    24   21   22 1    
    25   21   23 1    
    26   22   27 1    
    27   23   24 1    
    28   23   25 1    
    29   25   26 1    
    30   26   27 1    
    31   27   28 1    
    32   28   29 1    
    33   29   30 2    
    34   29   31 1    
    35   31   32 1    
    36   32   33 1    
    37   33   34 ar   
    38   33   35 ar   
@<TRIPOS>SUBSTRUCTURE
     1 Y011403     1 GROUP   
@<TRIPOS>SET

