#    Name: 6ae3_1_MRI
#    Modification time : Fri May 22 19:31:37 2020

@<TRIPOS>MOLECULE
6ae3_1_MRI
   22    24     1     0     0
SMALL
NO_CHARGES


@<TRIPOS>ATOM
      1 OAB        32.8310    6.5110   -9.1930           1 MRI501      0.0000 
      2 CAM        31.5400    6.7710   -9.5860           1 MRI501      0.0000 
      3 CAN        30.6890    5.5920   -9.8370           1 MRI501      0.0000 
      4 OAD        31.2020    4.4420   -9.6510           1 MRI501      0.0000 
      5 CAI        29.2870    5.8470  -10.2800           1 MRI501      0.0000 
      6 CAO        28.4450    4.7890  -10.5380           1 MRI501      0.0000 
      7 OAC        28.9380    3.5090  -10.3840           1 MRI501      0.0000 
      8 CAS        27.1210    5.0320  -10.9400           1 MRI501      0.0000 
      9 CAR        26.6600    6.3280  -11.0930           1 MRI501      0.0000 
     10 OAF        25.3610    6.5440  -11.4760           1 MRI501      0.0000 
     11 CAP        27.5100    7.4010  -10.8310           1 MRI501      0.0000 
     12 CAJ        28.8100    7.1470  -10.4270           1 MRI501      0.0000 
     13 OAA        29.6150    8.2220  -10.1790           1 MRI501      0.0000 
     14 CAK        30.9180    8.1130   -9.7370           1 MRI501      0.0000 
     15 CAL        31.6530    9.3980   -9.5750           1 MRI501      0.0000 
     16 CAT        31.1240   10.4760  -10.3300           1 MRI501      0.0000 
     17 CAV        31.7470   11.7430  -10.3380           1 MRI501      0.0000 
     18 CAW        32.8910   11.9200   -9.5890           1 MRI501      0.0000 
     19 OAG        33.4560   13.1190   -9.6120           1 MRI501      0.0000 
     20 CAU        33.4190   10.8780   -8.8100           1 MRI501      0.0000 
     21 CAQ        32.8050    9.6110   -8.8090           1 MRI501      0.0000 
     22 OAE        33.3780    8.6390   -8.0470           1 MRI501      0.0000 
@<TRIPOS>BOND
     1    1    2 du   
     2    2    3 du   
     3    2   14 du   
     4    3    4 du   
     5    3    5 du   
     6    5    6 du   
     7    5   12 du   
     8    6    7 du   
     9    6    8 du   
    10    8    9 du   
    11    9   10 du   
    12    9   11 du   
    13   11   12 du   
    14   12   13 du   
    15   13   14 du   
    16   14   15 du   
    17   15   16 du   
    18   15   21 du   
    19   16   17 du   
    20   17   18 du   
    21   18   19 du   
    22   18   20 du   
    23   20   21 du   
    24   21   22 du   
@<TRIPOS>SUBSTRUCTURE
     1 MRI501      1 GROUP   
@<TRIPOS>SET

