#    Name: 6ae3_2_MRI
#    Modification time : Fri May 22 19:31:48 2020

@<TRIPOS>MOLECULE
6ae3_2_MRI
   22    24     1     0     0
SMALL
NO_CHARGES


@<TRIPOS>ATOM
      1 OAB        52.5320   15.2360    6.9970           1 MRI501      0.0000 
      2 CAM        52.8260   15.7280    8.2540           1 MRI501      0.0000 
      3 CAN        53.8700   16.7820    8.3710           1 MRI501      0.0000 
      4 OAD        54.4310   17.1940    7.3030           1 MRI501      0.0000 
      5 CAI        54.1990   17.2820    9.7470           1 MRI501      0.0000 
      6 CAO        55.1420   18.2330    9.8670           1 MRI501      0.0000 
      7 OAC        55.6900   18.6500    8.6620           1 MRI501      0.0000 
      8 CAS        55.5010   18.7360   11.1270           1 MRI501      0.0000 
      9 CAR        54.9010   18.2540   12.2650           1 MRI501      0.0000 
     10 OAF        55.2170   18.7880   13.4720           1 MRI501      0.0000 
     11 CAP        53.9130   17.2650   12.1480           1 MRI501      0.0000 
     12 CAJ        53.5800   16.7890   10.8670           1 MRI501      0.0000 
     13 OAA        52.6220   15.8160   10.7210           1 MRI501      0.0000 
     14 CAK        52.2000   15.2770    9.5260           1 MRI501      0.0000 
     15 CAL        51.2160   14.1650    9.6170           1 MRI501      0.0000 
     16 CAT        51.2820   13.4820   10.8420           1 MRI501      0.0000 
     17 CAV        50.4890   12.3720   11.1120           1 MRI501      0.0000 
     18 CAW        49.6400   11.8880   10.1090           1 MRI501      0.0000 
     19 OAG        48.8990   10.8000   10.4010           1 MRI501      0.0000 
     20 CAU        49.5820   12.5300    8.8620           1 MRI501      0.0000 
     21 CAQ        50.3820   13.6660    8.5940           1 MRI501      0.0000 
     22 OAE        50.2670   14.2560    7.3600           1 MRI501      0.0000 
@<TRIPOS>BOND
     1    1    2 du   
     2    2    3 du   
     3    2   14 du   
     4    3    4 du   
     5    3    5 du   
     6    5    6 du   
     7    5   12 du   
     8    6    7 du   
     9    6    8 du   
    10    8    9 du   
    11    9   10 du   
    12    9   11 du   
    13   11   12 du   
    14   12   13 du   
    15   13   14 du   
    16   14   15 du   
    17   15   16 du   
    18   15   21 du   
    19   16   17 du   
    20   17   18 du   
    21   18   19 du   
    22   18   20 du   
    23   20   21 du   
    24   21   22 du   
@<TRIPOS>SUBSTRUCTURE
     1 MRI501      1 GROUP   
@<TRIPOS>SET

