#    Name: 6n7i_2_TTP
#    Modification time : Fri May 22 19:31:20 2020

@<TRIPOS>MOLECULE
6n7i_2_TTP
   29    30     1     0     0
SMALL
NO_CHARGES


@<TRIPOS>ATOM
      1 PA        155.8330  168.9630  152.1070 P.3       1 TTP700      0.0000 
      2 O1A       156.4100  169.8110  151.0040 O.co2     1 TTP700      0.0000 
      3 O2A       154.3380  169.1410  152.1600 O.co2     1 TTP700      0.0000 
      4 O3A       156.1750  167.3840  151.8120 O.3       1 TTP700      0.0000 
      5 PB        155.8920  166.4350  150.5020 P.3       1 TTP700      0.0000 
      6 O1B       154.6370  166.9070  149.8150 O.co2     1 TTP700      0.0000 
      7 O2B       157.0640  166.5450  149.5630 O.co2     1 TTP700      0.0000 
      8 O3B       155.6890  164.8680  150.9550 O.3       1 TTP700      0.0000 
      9 PG        154.3780  163.9830  151.1660 P.3       1 TTP700      0.0000 
     10 O1G       153.1820  164.7530  150.6650 O.co2     1 TTP700      0.0000 
     11 O2G       154.2020  163.6800  152.6320 O.co2     1 TTP700      0.0000 
     12 O3G       154.5170  162.6870  150.4090 O.co2     1 TTP700      0.0000 
     13 O5'       156.4940  169.4100  153.5440 O.3       1 TTP700      0.0000 
     14 C5'       157.8150  169.0440  153.8110 C.3       1 TTP700      0.0000 
     15 C4'       158.3450  169.8760  155.0000 C.3       1 TTP700      0.0000 
     16 O4'       159.7850  169.9750  154.9030 O.3       1 TTP700      0.0000 
     17 C3'       157.7780  171.2940  154.9350 C.3       1 TTP700      0.0000 
     18 O3'       156.9550  171.5480  156.1100 O.3       1 TTP700      0.0000 
     19 C2'       158.9970  172.2010  154.9450 C.3       1 TTP700      0.0000 
     20 C1'       160.2280  171.3160  155.0270 C.3       1 TTP700      0.0000 
     21 N1        161.1240  171.5720  153.8910 N.am      1 TTP700      0.0000 
     22 C2        162.6010  171.5630  154.0420 C.2       1 TTP700      0.0000 
     23 O2        163.0530  171.3470  155.1130 O.2       1 TTP700      0.0000 
     24 N3        163.5140  171.8050  152.9990 N.am      1 TTP700      0.0000 
     25 C4        162.9420  172.0440  151.7870 C.2       1 TTP700      0.0000 
     26 O4        163.7090  172.2550  150.8390 O.2       1 TTP700      0.0000 
     27 C5        161.4770  172.0750  151.5180 C.2       1 TTP700      0.0000 
     28 C5M       160.9380  172.3580  150.1200 C.3       1 TTP700      0.0000 
     29 C6        160.6220  171.8380  152.5800 C.2       1 TTP700      0.0000 
@<TRIPOS>BOND
     1    1    2 ar   
     2    1    3 ar   
     3    1    4 1    
     4    1   13 1    
     5    4    5 1    
     6    5    6 ar   
     7    5    7 ar   
     8    5    8 1    
     9    8    9 1    
    10    9   10 ar   
    11    9   11 ar   
    12    9   12 ar   
    13   13   14 1    
    14   14   15 1    
    15   15   16 1    
    16   15   17 1    
    17   16   20 1    
    18   17   18 1    
    19   17   19 1    
    20   19   20 1    
    21   20   21 1    
    22   21   22 1    
    23   21   29 1    
    24   22   23 2    
    25   22   24 1    
    26   24   25 1    
    27   25   26 2    
    28   25   27 1    
    29   27   28 1    
    30   27   29 2    
@<TRIPOS>SUBSTRUCTURE
     1 TTP700      1 GROUP   
@<TRIPOS>SET

