#    Name: 6n7i_1_TTP
#    Modification time : Fri May 22 19:31:12 2020

@<TRIPOS>MOLECULE
6n7i_1_TTP
   29    30     1     0     0
SMALL
NO_CHARGES


@<TRIPOS>ATOM
      1 PA        160.2760  144.5200  173.0990 P.3       1 TTP700      0.0000 
      2 O1A       160.6770  145.9480  173.3580 O.co2     1 TTP700      0.0000 
      3 O2A       158.7830  144.3840  173.2580 O.co2     1 TTP700      0.0000 
      4 O3A       160.7140  144.0880  171.5750 O.3       1 TTP700      0.0000 
      5 PB        160.3740  144.7040  170.0890 P.3       1 TTP700      0.0000 
      6 O1B       158.9830  145.2850  170.0920 O.co2     1 TTP700      0.0000 
      7 O2B       161.3740  145.7810  169.7570 O.co2     1 TTP700      0.0000 
      8 O3B       160.4630  143.5110  168.9620 O.3       1 TTP700      0.0000 
      9 PG        159.3990  142.4360  168.4560 P.3       1 TTP700      0.0000 
     10 O1G       158.0210  142.8770  168.8870 O.co2     1 TTP700      0.0000 
     11 O2G       159.7250  141.0880  169.0480 O.co2     1 TTP700      0.0000 
     12 O3G       159.4530  142.3350  166.9540 O.co2     1 TTP700      0.0000 
     13 O5'       161.0430  143.5320  174.1640 O.3       1 TTP700      0.0000 
     14 C5'       162.4250  143.3790  174.0380 C.3       1 TTP700      0.0000 
     15 C4'       163.0530  143.3030  175.4450 C.3       1 TTP700      0.0000 
     16 O4'       164.4180  143.7740  175.3870 O.3       1 TTP700      0.0000 
     17 C3'       162.3120  144.2410  176.3970 C.3       1 TTP700      0.0000 
     18 O3'       161.4030  143.4740  177.2410 O.3       1 TTP700      0.0000 
     19 C2'       163.4220  144.8370  177.2430 C.3       1 TTP700      0.0000 
     20 C1'       164.7380  144.4890  176.5680 C.3       1 TTP700      0.0000 
     21 N1        165.4330  145.7120  176.1460 N.am      1 TTP700      0.0000 
     22 C2        166.9130  145.8050  176.1710 C.2       1 TTP700      0.0000 
     23 O2        167.5270  144.8650  176.5450 O.2       1 TTP700      0.0000 
     24 N3        167.6310  146.9480  175.7700 N.am      1 TTP700      0.0000 
     25 C4        166.8830  147.9910  175.3580 C.2       1 TTP700      0.0000 
     26 O4        167.4850  149.0120  175.0050 O.2       1 TTP700      0.0000 
     27 C5        165.3950  148.0090  175.2900 C.2       1 TTP700      0.0000 
     28 C5M       164.6370  149.2380  174.8010 C.3       1 TTP700      0.0000 
     29 C6        164.7250  146.8660  175.6850 C.2       1 TTP700      0.0000 
@<TRIPOS>BOND
     1    1    2 ar   
     2    1    3 ar   
     3    1    4 1    
     4    1   13 1    
     5    4    5 1    
     6    5    6 ar   
     7    5    7 ar   
     8    5    8 1    
     9    8    9 1    
    10    9   10 ar   
    11    9   11 ar   
    12    9   12 ar   
    13   13   14 1    
    14   14   15 1    
    15   15   16 1    
    16   15   17 1    
    17   16   20 1    
    18   17   18 1    
    19   17   19 1    
    20   19   20 1    
    21   20   21 1    
    22   21   22 1    
    23   21   29 1    
    24   22   23 2    
    25   22   24 1    
    26   24   25 1    
    27   25   26 2    
    28   25   27 1    
    29   27   28 1    
    30   27   29 2    
@<TRIPOS>SUBSTRUCTURE
     1 TTP700      1 GROUP   
@<TRIPOS>SET

