#    Name: 6n7i_4_TTP
#    Modification time : Fri May 22 19:31:36 2020

@<TRIPOS>MOLECULE
6n7i_4_TTP
   29    30     1     0     0
SMALL
NO_CHARGES


@<TRIPOS>ATOM
      1 PA        159.8520  135.1970  107.1910 P.3       1 TTP700      0.0000 
      2 O1A       159.8280  133.7800  106.6790 O.co2     1 TTP700      0.0000 
      3 O2A       158.7710  136.0030  106.5170 O.co2     1 TTP700      0.0000 
      4 O3A       159.5970  135.2040  108.8140 O.3       1 TTP700      0.0000 
      5 PB        158.2960  134.8020  109.7320 P.3       1 TTP700      0.0000 
      6 O1B       158.7070  133.7500  110.7290 O.co2     1 TTP700      0.0000 
      7 O2B       157.1930  134.2820  108.8440 O.co2     1 TTP700      0.0000 
      8 O3B       157.7390  136.1220  110.5350 O.3       1 TTP700      0.0000 
      9 PG        156.2650  136.7220  110.6500 P.3       1 TTP700      0.0000 
     10 O1G       155.8980  136.8860  112.1030 O.co2     1 TTP700      0.0000 
     11 O2G       155.3020  135.7690  109.9830 O.co2     1 TTP700      0.0000 
     12 O3G       156.2130  138.0670  109.9690 O.co2     1 TTP700      0.0000 
     13 O5'       161.3210  135.8630  106.8780 O.3       1 TTP700      0.0000 
     14 C5'       161.3630  136.8940  105.9410 C.3       1 TTP700      0.0000 
     15 C4'       162.8160  137.3770  105.7680 C.3       1 TTP700      0.0000 
     16 O4'       163.7160  136.7170  106.6840 O.3       1 TTP700      0.0000 
     17 C3'       163.3550  136.9660  104.4020 C.3       1 TTP700      0.0000 
     18 O3'       163.0600  138.0010  103.4200 O.3       1 TTP700      0.0000 
     19 C2'       164.8520  136.8950  104.6600 C.3       1 TTP700      0.0000 
     20 C1'       165.0170  136.9510  106.1690 C.3       1 TTP700      0.0000 
     21 N1        165.9330  135.9000  106.6370 N.am      1 TTP700      0.0000 
     22 C2        167.3810  136.1680  106.8280 C.2       1 TTP700      0.0000 
     23 O2        167.7900  137.2530  106.5920 O.2       1 TTP700      0.0000 
     24 N3        168.2870  135.2100  107.2670 N.am      1 TTP700      0.0000 
     25 C4        167.7970  133.9870  107.5260 C.2       1 TTP700      0.0000 
     26 O4        168.5870  133.1180  107.9200 O.2       1 TTP700      0.0000 
     27 C5        166.3660  133.6070  107.3710 C.2       1 TTP700      0.0000 
     28 C5M       165.8890  132.1940  107.6870 C.3       1 TTP700      0.0000 
     29 C6        165.4840  134.5770  106.9330 C.2       1 TTP700      0.0000 
@<TRIPOS>BOND
     1    1    2 ar   
     2    1    3 ar   
     3    1    4 1    
     4    1   13 1    
     5    4    5 1    
     6    5    6 ar   
     7    5    7 ar   
     8    5    8 1    
     9    8    9 1    
    10    9   10 ar   
    11    9   11 ar   
    12    9   12 ar   
    13   13   14 1    
    14   14   15 1    
    15   15   16 1    
    16   15   17 1    
    17   16   20 1    
    18   17   18 1    
    19   17   19 1    
    20   19   20 1    
    21   20   21 1    
    22   21   22 1    
    23   21   29 1    
    24   22   23 2    
    25   22   24 1    
    26   24   25 1    
    27   25   26 2    
    28   25   27 1    
    29   27   28 1    
    30   27   29 2    
@<TRIPOS>SUBSTRUCTURE
     1 TTP700      1 GROUP   
@<TRIPOS>SET

