#    Name: 6n7i_4_TTP_CAVITY_N1_4
#    Modification time : Fri May 22 19:31:38 2020

@<TRIPOS>MOLECULE
6n7i_4_TTP_CAVITY_N1_4
  110     0     7     0     0
SMALL
NO_CHARGES


@<TRIPOS>ATOM
      1 OG        161.4900  135.0600  102.5700 O.3       1 SER1        0.0000 
      2 OG        162.6000  135.8500  101.9400 O.3       1 SER1        0.0000 
      3 OG        159.5800  136.0400  104.0200 O.3       1 SER1        0.0000 
      4 OG        161.6800  135.8200  103.8500 O.3       1 SER1        0.0000 
      5 OG        162.7800  136.6200  103.2100 O.3       1 SER1        0.0000 
      6 OG        163.8800  137.4100  102.5800 O.3       1 SER1        0.0000 
      7 OG        165.9800  137.1900  102.4000 O.3       1 SER1        0.0000 
      8 OG        159.6600  134.9900  106.4000 O.3       1 SER1        0.0000 
      9 OG        160.6600  133.9800  106.8600 O.3       1 SER1        0.0000 
     10 OG        160.7600  135.7900  105.7600 O.3       1 SER1        0.0000 
     11 OG        161.8700  136.5900  105.1300 O.3       1 SER1        0.0000 
     12 OG        162.8700  135.5700  105.5900 O.3       1 SER1        0.0000 
     13 OG        163.8700  134.5500  106.0500 O.3       1 SER1        0.0000 
     14 OG        163.9700  136.3600  104.9500 O.3       1 SER1        0.0000 
     15 OG        165.0700  137.1600  104.3200 O.3       1 SER1        0.0000 
     16 O         160.5900  137.8800  101.0100 O.2       2 ALA2        0.0000 
     17 O         161.5900  136.8700  101.4700 O.2       2 ALA2        0.0000 
     18 O         162.6900  137.6600  100.8400 O.2       2 ALA2        0.0000 
     19 N         158.5800  137.0600  103.5600 N.am      2 ALA2        0.0000 
     20 N         159.6800  137.8500  102.9200 N.am      2 ALA2        0.0000 
     21 N         160.6800  136.8400  103.3900 N.am      2 ALA2        0.0000 
     22 N         161.7800  137.6300  102.7500 N.am      2 ALA2        0.0000 
     23 N         162.8800  138.4300  102.1100 N.am      2 ALA2        0.0000 
     24 N         164.9800  138.2100  101.9400 N.am      2 ALA2        0.0000 
     25 N         158.7600  137.8200  104.8400 N.am      2 ALA2        0.0000 
     26 N         159.7600  136.8100  105.3000 N.am      2 ALA2        0.0000 
     27 N         160.8600  137.6000  104.6600 N.am      2 ALA2        0.0000 
     28 N         162.9700  137.3800  104.4900 N.am      2 ALA2        0.0000 
     29 N         164.0700  138.1800  103.8500 N.am      2 ALA2        0.0000 
     30 N         166.1700  137.9600  103.6800 N.am      2 ALA2        0.0000 
     31 O         159.7500  133.9500  108.7800 O.2       2 ALA2        0.0000 
     32 N         162.0500  137.3500  106.4000 N.am      2 ALA2        0.0000 
     33 N         163.0500  136.3300  106.8700 N.am      2 ALA2        0.0000 
     34 N         164.0500  135.3200  107.3300 N.am      2 ALA2        0.0000 
     35 N         166.0600  133.2900  108.2600 N.am      2 ALA2        0.0000 
     36 N         167.2600  135.8900  106.5200 N.am      2 ALA2        0.0000 
     37 N         168.2600  134.8800  106.9800 N.am      2 ALA2        0.0000 
     38 N         168.3600  136.6900  105.8800 N.am      2 ALA2        0.0000 
     39 O         155.8300  136.9600  109.3000 O.2       2 ALA2        0.0000 
     40 O         157.9300  136.7400  109.1300 O.2       2 ALA2        0.0000 
     41 O         158.9300  135.7300  109.5900 O.2       2 ALA2        0.0000 
     42 O         159.9300  134.7100  110.0500 O.2       2 ALA2        0.0000 
     43 N         162.2400  138.1100  107.6800 N.am      2 ALA2        0.0000 
     44 N         163.2400  137.1000  108.1400 N.am      2 ALA2        0.0000 
     45 N         163.3400  138.9100  107.0400 N.am      2 ALA2        0.0000 
     46 N         167.5400  138.4700  106.7000 N.am      2 ALA2        0.0000 
     47 N         168.5400  137.4500  107.1600 N.am      2 ALA2        0.0000 
     48 O         157.0200  136.7100  111.0400 O.2       2 ALA2        0.0000 
     49 O         158.0200  135.7000  111.5000 O.2       2 ALA2        0.0000 
     50 O         158.1200  137.5100  110.4000 O.2       2 ALA2        0.0000 
     51 O         159.2200  138.3000  109.7700 O.2       2 ALA2        0.0000 
     52 OD1       157.2900  135.5000  102.9200 O.co2     3 ASP3        0.0000 
     53 OD1       158.2900  134.4800  103.3800 O.co2     3 ASP3        0.0000 
     54 OD1       159.3900  135.2800  102.7500 O.co2     3 ASP3        0.0000 
     55 OD1       163.7000  136.6500  101.3000 O.co2     3 ASP3        0.0000 
     56 OD1       156.5600  136.2300  106.1100 O.co2     3 ASP3        0.0000 
     57 OD1       157.5600  135.2200  106.5700 O.co2     3 ASP3        0.0000 
     58 OD1       157.6500  134.1700  108.9500 O.co2     3 ASP3        0.0000 
     59 OD1       156.7400  137.0000  107.3900 O.co2     3 ASP3        0.0000 
     60 OD1       157.7500  135.9800  107.8500 O.co2     3 ASP3        0.0000 
     61 OD1       158.7500  134.9600  108.3100 O.co2     3 ASP3        0.0000 
     62 OD1       165.1600  136.1100  106.6900 O.co2     3 ASP3        0.0000 
     63 OD1       156.8300  135.9500  109.7600 O.co2     3 ASP3        0.0000 
     64 OD1       157.8300  134.9300  110.2300 O.co2     3 ASP3        0.0000 
     65 OD1       156.9300  137.7600  108.6600 O.co2     3 ASP3        0.0000 
     66 OD1       164.3400  137.8900  107.5100 O.co2     3 ASP3        0.0000 
     67 OD1       166.4400  137.6700  107.3300 O.co2     3 ASP3        0.0000 
     68 OD1       167.4400  136.6600  107.8000 O.co2     3 ASP3        0.0000 
     69 OD1       155.9200  135.9200  111.6800 O.co2     3 ASP3        0.0000 
     70 OD1       156.0100  137.7300  110.5800 O.co2     3 ASP3        0.0000 
     71 OD1       157.1200  138.5300  109.9400 O.co2     3 ASP3        0.0000 
     72 NZ        160.4900  136.0700  102.1100 N.4       4 LYS4        0.0000 
     73 NZ        156.4700  137.2800  103.7300 N.4       4 LYS4        0.0000 
     74 CZ        164.8700  133.5400  106.5200 C.ar      5 PHE5        0.0000 
     75 CZ        165.8700  132.5200  106.9800 C.ar      5 PHE5        0.0000 
     76 CZ        164.9700  135.3500  105.4200 C.ar      5 PHE5        0.0000 
     77 CZ        165.9700  134.3300  105.8800 C.ar      5 PHE5        0.0000 
     78 CZ        167.9700  132.3000  106.8000 C.ar      5 PHE5        0.0000 
     79 CZ        166.0700  136.1400  104.7800 C.ar      5 PHE5        0.0000 
     80 CZ        167.0700  135.1300  105.2400 C.ar      5 PHE5        0.0000 
     81 CZ        167.1700  136.9400  104.1400 C.ar      5 PHE5        0.0000 
     82 CZ        167.1600  134.0800  107.6200 C.ar      5 PHE5        0.0000 
     83 CA        156.3700  135.4700  104.8300 C.3       6 GLY6        0.0000 
     84 CA        158.4800  135.2500  104.6600 C.3       6 GLY6        0.0000 
     85 CA        155.5600  137.2500  105.6500 C.3       6 GLY6        0.0000 
     86 CA        158.5600  134.2000  107.0400 C.3       6 GLY6        0.0000 
     87 CA        156.6600  138.0400  105.0100 C.3       6 GLY6        0.0000 
     88 CA        157.6600  137.0300  105.4700 C.3       6 GLY6        0.0000 
     89 CA        157.7600  138.8400  104.3700 C.3       6 GLY6        0.0000 
     90 CA        157.8500  137.7900  106.7500 C.3       6 GLY6        0.0000 
     91 CA        158.8500  136.7800  107.2100 C.3       6 GLY6        0.0000 
     92 CA        160.8500  134.7400  108.1400 C.3       6 GLY6        0.0000 
     93 CA        159.9500  137.5700  106.5800 C.3       6 GLY6        0.0000 
     94 CA        161.9500  135.5400  107.5000 C.3       6 GLY6        0.0000 
     95 CA        165.0600  134.3000  107.7900 C.3       6 GLY6        0.0000 
     96 CA        163.1500  138.1500  105.7700 C.3       6 GLY6        0.0000 
     97 CA        164.1500  137.1300  106.2300 C.3       6 GLY6        0.0000 
     98 CA        165.2500  137.9300  105.5900 C.3       6 GLY6        0.0000 
     99 CA        166.2600  136.9100  106.0600 C.3       6 GLY6        0.0000 
    100 CA        159.0300  137.5400  108.4900 C.3       6 GLY6        0.0000 
    101 CA        160.0300  136.5200  108.9500 C.3       6 GLY6        0.0000 
    102 CA        160.1300  138.3400  107.8500 C.3       6 GLY6        0.0000 
    103 CA        161.1400  137.3200  108.3200 C.3       6 GLY6        0.0000 
    104 CA        161.2300  139.1300  107.2200 C.3       6 GLY6        0.0000 
    105 CA        162.4200  138.8800  108.9600 C.3       6 GLY6        0.0000 
    106 DU        157.4700  136.2600  104.2000 H         7 CUB7        0.0000 
    107 DU        158.6600  136.0100  105.9400 H         7 CUB7        0.0000 
    108 DU        159.8500  135.7600  107.6800 H         7 CUB7        0.0000 
    109 DU        160.9500  136.5500  107.0400 H         7 CUB7        0.0000 
    110 DU        166.1600  135.1000  107.1600 H         7 CUB7        0.0000 
@<TRIPOS>BOND
@<TRIPOS>SUBSTRUCTURE
     1 SER1        1 GROUP   
     2 ALA2       16 GROUP   
     3 ASP3       52 GROUP   
     4 LYS4       72 GROUP   
     5 PHE5       74 GROUP   
     6 GLY6       83 GROUP   
     7 CUB7      106 GROUP   
@<TRIPOS>SET

