#    Name: 6n7i_1_TTP_CAVITY_N1_12
#    Modification time : Fri May 22 19:31:14 2020

@<TRIPOS>MOLECULE
6n7i_1_TTP_CAVITY_N1_12
  120     0     7     0     0
SMALL
NO_CHARGES


@<TRIPOS>ATOM
      1 OG        158.8500  145.2400  174.3800 O.3       1 SER1        0.0000 
      2 OG        159.8600  144.2200  174.8500 O.3       1 SER1        0.0000 
      3 OG        159.9600  146.0300  173.7500 O.3       1 SER1        0.0000 
      4 OG        160.9600  145.0200  174.2100 O.3       1 SER1        0.0000 
      5 OG        158.9400  144.1900  176.7600 O.3       1 SER1        0.0000 
      6 OG        160.0400  144.9800  176.1200 O.3       1 SER1        0.0000 
      7 OG        162.1400  144.7600  175.9500 O.3       1 SER1        0.0000 
      8 OG        163.2500  145.5600  175.3100 O.3       1 SER1        0.0000 
      9 OG        159.1300  144.9500  178.0400 O.3       1 SER1        0.0000 
     10 OG        160.2300  145.7500  177.4000 O.3       1 SER1        0.0000 
     11 OG        162.3300  145.5300  177.2300 O.3       1 SER1        0.0000 
     12 OG        163.3300  144.5100  177.6900 O.3       1 SER1        0.0000 
     13 OG        163.5300  148.1400  175.4900 O.3       1 SER1        0.0000 
     14 OG        160.3100  144.7000  179.7800 O.3       1 SER1        0.0000 
     15 OG        159.4100  147.5300  178.2100 O.3       1 SER1        0.0000 
     16 OG        160.4100  146.5100  178.6800 O.3       1 SER1        0.0000 
     17 OG        162.4200  144.4800  179.6000 O.3       1 SER1        0.0000 
     18 OG        159.5000  146.4800  180.5900 O.3       1 SER1        0.0000 
     19 OG        160.6000  147.2800  179.9500 O.3       1 SER1        0.0000 
     20 O         160.6900  145.3000  170.5600 O.2       2 ALA2        0.0000 
     21 N         163.6900  142.2500  171.9400 N.am      2 ALA2        0.0000 
     22 N         160.6700  142.4400  174.0300 N.am      2 ALA2        0.0000 
     23 N         161.7700  143.2300  173.3900 N.am      2 ALA2        0.0000 
     24 N         162.7800  142.2200  173.8600 N.am      2 ALA2        0.0000 
     25 O         161.8700  145.0500  172.3000 O.2       2 ALA2        0.0000 
     26 N         162.8700  144.0300  172.7600 N.am      2 ALA2        0.0000 
     27 N         163.8800  143.0100  173.2200 N.am      2 ALA2        0.0000 
     28 N         164.8800  142.0000  173.6800 N.am      2 ALA2        0.0000 
     29 N         158.7600  143.4200  175.4800 N.am      2 ALA2        0.0000 
     30 N         160.8600  143.2000  175.3100 N.am      2 ALA2        0.0000 
     31 N         161.9600  144.0000  174.6700 N.am      2 ALA2        0.0000 
     32 N         162.9600  142.9800  175.1300 N.am      2 ALA2        0.0000 
     33 N         163.9600  141.9700  175.6000 N.am      2 ALA2        0.0000 
     34 N         164.1600  145.5900  173.4000 N.am      2 ALA2        0.0000 
     35 N         159.9400  143.1700  177.2200 N.am      2 ALA2        0.0000 
     36 N         161.0400  143.9700  176.5900 N.am      2 ALA2        0.0000 
     37 N         162.0500  142.9500  177.0500 N.am      2 ALA2        0.0000 
     38 N         163.1500  143.7500  176.4100 N.am      2 ALA2        0.0000 
     39 N         165.2500  143.5300  176.2400 N.am      2 ALA2        0.0000 
     40 N         168.4500  144.1000  175.4300 N.am      2 ALA2        0.0000 
     41 O         159.0300  143.1400  179.1300 O.2       2 ALA2        0.0000 
     42 O         160.1300  143.9400  178.5000 O.2       2 ALA2        0.0000 
     43 N         161.1300  142.9200  178.9600 N.am      2 ALA2        0.0000 
     44 N         162.2300  143.7200  178.3300 N.am      2 ALA2        0.0000 
     45 N         165.4300  144.2900  177.5200 N.am      2 ALA2        0.0000 
     46 N         167.6400  145.8800  176.2400 N.am      2 ALA2        0.0000 
     47 N         168.6400  144.8700  176.7100 N.am      2 ALA2        0.0000 
     48 N         169.6400  143.8500  177.1700 N.am      2 ALA2        0.0000 
     49 O         159.2100  143.9100  180.4100 O.2       2 ALA2        0.0000 
     50 OD1       159.4000  143.7400  169.9200 O.co2     3 ASP3        0.0000 
     51 OD1       159.5800  144.5000  171.1900 O.co2     3 ASP3        0.0000 
     52 OD1       156.6500  143.6400  175.6600 O.co2     3 ASP3        0.0000 
     53 OD1       157.7500  144.4400  175.0200 O.co2     3 ASP3        0.0000 
     54 OD1       165.1600  144.5700  173.8600 O.co2     3 ASP3        0.0000 
     55 OD1       166.1600  143.5600  174.3300 O.co2     3 ASP3        0.0000 
     56 OD1       156.8400  144.4100  176.9300 O.co2     3 ASP3        0.0000 
     57 OD1       157.8400  143.3900  177.4000 O.co2     3 ASP3        0.0000 
     58 OD1       158.8400  142.3800  177.8600 O.co2     3 ASP3        0.0000 
     59 OD1       157.9400  145.2100  176.3000 O.co2     3 ASP3        0.0000 
     60 OD1       164.3500  146.3500  174.6800 O.co2     3 ASP3        0.0000 
     61 OD1       165.3500  145.3400  175.1400 O.co2     3 ASP3        0.0000 
     62 OD1       166.3500  144.3200  175.6000 O.co2     3 ASP3        0.0000 
     63 OD1       165.4500  147.1500  174.0400 O.co2     3 ASP3        0.0000 
     64 OD1       166.4500  146.1300  174.5000 O.co2     3 ASP3        0.0000 
     65 OD1       167.4500  145.1200  174.9700 O.co2     3 ASP3        0.0000 
     66 OD1       158.1200  145.9700  177.5700 O.co2     3 ASP3        0.0000 
     67 OD1       166.5400  145.0900  176.8800 O.co2     3 ASP3        0.0000 
     68 OD1       167.5400  144.0700  177.3400 O.co2     3 ASP3        0.0000 
     69 OD1       166.7300  148.7100  174.6800 O.co2     3 ASP3        0.0000 
     70 OD1       167.7400  147.6900  175.1400 O.co2     3 ASP3        0.0000 
     71 OD1       161.3200  143.6900  180.2400 O.co2     3 ASP3        0.0000 
     72 OD1       160.5000  145.4700  181.0500 O.co2     3 ASP3        0.0000 
     73 NZ        157.6500  142.6300  176.1200 N.4       4 LYS4        0.0000 
     74 NZ        158.0300  144.1600  178.6700 N.4       4 LYS4        0.0000 
     75 NZ        158.2100  144.9200  179.9500 N.4       4 LYS4        0.0000 
     76 NZ        158.3100  146.7300  178.8500 N.4       4 LYS4        0.0000 
     77 NZ        157.3000  144.8900  181.8600 N.4       4 LYS4        0.0000 
     78 NZ        158.4000  145.6900  181.2300 N.4       4 LYS4        0.0000 
     79 NZ        157.4900  148.5200  179.6600 N.4       4 LYS4        0.0000 
     80 NZ        158.5000  147.5000  180.1300 N.4       4 LYS4        0.0000 
     81 NZ        157.4800  145.6600  183.1400 N.4       4 LYS4        0.0000 
     82 NZ        157.5800  147.4700  182.0400 N.4       4 LYS4        0.0000 
     83 CZ        163.4300  146.3200  176.5900 C.ar      5 PHE5        0.0000 
     84 CZ        164.4300  145.3100  177.0500 C.ar      5 PHE5        0.0000 
     85 CZ        164.5300  147.1200  175.9500 C.ar      5 PHE5        0.0000 
     86 CZ        165.5300  146.1000  176.4200 C.ar      5 PHE5        0.0000 
     87 CZ        164.6300  148.9300  174.8500 C.ar      5 PHE5        0.0000 
     88 CZ        165.6300  147.9200  175.3200 C.ar      5 PHE5        0.0000 
     89 CZ        166.6300  146.9000  175.7800 C.ar      5 PHE5        0.0000 
     90 CA        160.4000  142.7200  170.3800 C.3       6 GLY6        0.0000 
     91 CA        161.4000  141.7100  170.8400 C.3       6 GLY6        0.0000 
     92 CA        159.4900  142.6900  172.2900 C.3       6 GLY6        0.0000 
     93 CA        160.5900  143.4900  171.6500 C.3       6 GLY6        0.0000 
     94 CA        161.5900  142.4700  172.1200 C.3       6 GLY6        0.0000 
     95 CA        162.5900  141.4500  172.5800 C.3       6 GLY6        0.0000 
     96 CA        161.6900  144.2800  171.0200 C.3       6 GLY6        0.0000 
     97 CA        162.6900  143.2700  171.4800 C.3       6 GLY6        0.0000 
     98 CA        157.5700  143.6800  173.7400 C.3       6 GLY6        0.0000 
     99 CA        158.5700  142.6600  174.2000 C.3       6 GLY6        0.0000 
    100 CA        158.6700  144.4700  173.1100 C.3       6 GLY6        0.0000 
    101 CA        159.6700  143.4600  173.5700 C.3       6 GLY6        0.0000 
    102 CA        159.7700  145.2700  172.4700 C.3       6 GLY6        0.0000 
    103 CA        160.8700  146.0600  171.8300 C.3       6 GLY6        0.0000 
    104 CA        162.0600  145.8100  173.5700 C.3       6 GLY6        0.0000 
    105 CA        165.0600  142.7600  174.9600 C.3       6 GLY6        0.0000 
    106 CA        163.3500  147.3700  174.2100 C.3       6 GLY6        0.0000 
    107 CA        167.3500  143.3100  176.0600 C.3       6 GLY6        0.0000 
    108 CA        164.4500  148.1700  173.5800 C.3       6 GLY6        0.0000 
    109 CA        163.6300  149.9500  174.3900 C.3       6 GLY6        0.0000 
    110 CA        165.7300  149.7300  174.2200 C.3       6 GLY6        0.0000 
    111 CA        159.4000  144.6700  181.6900 C.3       6 GLY6        0.0000 
    112 CA        159.6000  148.2900  179.4900 C.3       6 GLY6        0.0000 
    113 CA        158.5800  146.4500  182.5000 C.3       6 GLY6        0.0000 
    114 CA        158.6800  148.2600  181.4000 C.3       6 GLY6        0.0000 
    115 CA        159.6800  147.2500  181.8700 C.3       6 GLY6        0.0000 
    116 DU        160.7700  144.2500  172.9300 H         7 CUB7        0.0000 
    117 DU        163.0600  144.7900  174.0400 H         7 CUB7        0.0000 
    118 DU        164.0600  143.7800  174.5000 H         7 CUB7        0.0000 
    119 DU        164.2500  144.5400  175.7800 H         7 CUB7        0.0000 
    120 DU        159.3100  145.7200  179.3100 H         7 CUB7        0.0000 
@<TRIPOS>BOND
@<TRIPOS>SUBSTRUCTURE
     1 SER1        1 GROUP   
     2 ALA2       20 GROUP   
     3 ASP3       50 GROUP   
     4 LYS4       73 GROUP   
     5 PHE5       83 GROUP   
     6 GLY6       90 GROUP   
     7 CUB7      116 GROUP   
@<TRIPOS>SET

