#    Name: 6n7i_3_TTP_CAVITY_N1_4
#    Modification time : Fri May 22 19:31:30 2020

@<TRIPOS>MOLECULE
6n7i_3_TTP_CAVITY_N1_4
  110     0     7     0     0
SMALL
NO_CHARGES


@<TRIPOS>ATOM
      1 OG        156.4000  165.9800  118.2700 O.3       1 SER1        0.0000 
      2 OG        157.4000  164.9600  118.7400 O.3       1 SER1        0.0000 
      3 OG        158.7000  169.3800  115.9000 O.3       1 SER1        0.0000 
      4 OG        155.1900  160.5100  123.4900 O.3       1 SER1        0.0000 
      5 OG        156.5900  166.7400  119.5500 O.3       1 SER1        0.0000 
      6 OG        157.5900  165.7200  120.0100 O.3       1 SER1        0.0000 
      7 OG        156.6900  168.5500  118.4500 O.3       1 SER1        0.0000 
      8 OG        157.6900  167.5400  118.9200 O.3       1 SER1        0.0000 
      9 OG        158.6900  166.5200  119.3800 O.3       1 SER1        0.0000 
     10 OG        157.7900  169.3500  117.8200 O.3       1 SER1        0.0000 
     11 OG        158.7900  168.3300  118.2800 O.3       1 SER1        0.0000 
     12 OG        159.7900  167.3200  118.7400 O.3       1 SER1        0.0000 
     13 OG        160.7900  166.3000  119.2000 O.3       1 SER1        0.0000 
     14 OG        159.8900  169.1300  117.6400 O.3       1 SER1        0.0000 
     15 OG        161.8900  167.0900  118.5700 O.3       1 SER1        0.0000 
     16 OG        160.0800  169.8900  118.9200 O.3       1 SER1        0.0000 
     17 OG        161.0800  168.8800  119.3800 O.3       1 SER1        0.0000 
     18 OG        162.0800  167.8600  119.8500 O.3       1 SER1        0.0000 
     19 O         157.3000  163.1500  119.8400 O.2       2 ALA2        0.0000 
     20 O         158.3100  162.1300  120.3000 O.2       2 ALA2        0.0000 
     21 N         163.7100  164.3000  118.2200 N.am      2 ALA2        0.0000 
     22 O         156.2900  161.3100  122.8500 O.2       2 ALA2        0.0000 
     23 O         157.3900  162.1000  122.2100 O.2       2 ALA2        0.0000 
     24 O         159.5900  163.6900  120.9400 O.2       2 ALA2        0.0000 
     25 N         162.8000  164.2700  120.1300 N.am      2 ALA2        0.0000 
     26 O         156.4800  162.0700  124.1300 O.2       2 ALA2        0.0000 
     27 N         155.7700  168.5200  120.3700 N.am      2 ALA2        0.0000 
     28 N         156.7700  167.5100  120.8300 N.am      2 ALA2        0.0000 
     29 N         157.7800  166.4900  121.2900 N.am      2 ALA2        0.0000 
     30 N         158.7800  165.4700  121.7500 N.am      2 ALA2        0.0000 
     31 O         155.8700  170.3300  119.2700 O.2       2 ALA2        0.0000 
     32 N         156.8700  169.3200  119.7300 N.am      2 ALA2        0.0000 
     33 N         157.8700  168.3000  120.1900 N.am      2 ALA2        0.0000 
     34 N         158.8800  167.2800  120.6600 N.am      2 ALA2        0.0000 
     35 N         159.8800  166.2700  121.1200 N.am      2 ALA2        0.0000 
     36 O         157.9700  170.1100  119.0900 O.2       2 ALA2        0.0000 
     37 N         158.9800  169.1000  119.5600 N.am      2 ALA2        0.0000 
     38 N         159.9800  168.0800  120.0200 N.am      2 ALA2        0.0000 
     39 N         161.9800  166.0500  120.9400 N.am      2 ALA2        0.0000 
     40 N         159.9600  165.2200  123.4900 N.am      2 ALA2        0.0000 
     41 N         160.0600  167.0300  122.4000 N.am      2 ALA2        0.0000 
     42 N         161.0700  166.0200  122.8600 N.am      2 ALA2        0.0000 
     43 N         159.1600  169.8600  120.8300 N.am      2 ALA2        0.0000 
     44 N         160.1600  168.8400  121.3000 N.am      2 ALA2        0.0000 
     45 N         161.1600  167.8300  121.7600 N.am      2 ALA2        0.0000 
     46 N         160.2600  170.6600  120.2000 N.am      2 ALA2        0.0000 
     47 N         161.2600  169.6400  120.6600 N.am      2 ALA2        0.0000 
     48 N         166.4700  168.1800  120.7800 N.am      2 ALA2        0.0000 
     49 N         167.4700  167.1700  121.2400 N.am      2 ALA2        0.0000 
     50 OD1       154.2000  164.3800  119.5500 O.co2     3 ASP3        0.0000 
     51 OD1       157.2100  161.3400  120.9400 O.co2     3 ASP3        0.0000 
     52 OD1       154.3000  166.2000  118.4500 O.co2     3 ASP3        0.0000 
     53 OD1       155.4000  166.9900  117.8100 O.co2     3 ASP3        0.0000 
     54 OD1       155.2900  162.3200  122.3900 O.co2     3 ASP3        0.0000 
     55 OD1       154.3900  165.1500  120.8200 O.co2     3 ASP3        0.0000 
     56 OD1       155.3900  164.1300  121.2900 O.co2     3 ASP3        0.0000 
     57 OD1       156.3900  163.1200  121.7500 O.co2     3 ASP3        0.0000 
     58 OD1       158.8900  170.1400  117.1800 O.co2     3 ASP3        0.0000 
     59 OD1       163.9000  165.0600  119.4900 O.co2     3 ASP3        0.0000 
     60 OD1       166.0000  164.8400  119.3200 O.co2     3 ASP3        0.0000 
     61 OD1       155.3700  161.2700  124.7600 O.co2     3 ASP3        0.0000 
     62 OD1       155.4700  163.0900  123.6600 O.co2     3 ASP3        0.0000 
     63 OD1       156.5700  163.8800  123.0300 O.co2     3 ASP3        0.0000 
     64 OD1       159.0800  170.9100  118.4600 O.co2     3 ASP3        0.0000 
     65 OD1       163.0800  166.8400  120.3100 O.co2     3 ASP3        0.0000 
     66 OD1       164.0800  165.8300  120.7700 O.co2     3 ASP3        0.0000 
     67 OD1       165.1800  166.6200  120.1400 O.co2     3 ASP3        0.0000 
     68 OD1       166.1900  165.6100  120.6000 O.co2     3 ASP3        0.0000 
     69 OD1       162.1700  166.8100  122.2200 O.co2     3 ASP3        0.0000 
     70 OD1       161.3600  171.4500  119.5600 O.co2     3 ASP3        0.0000 
     71 OD1       163.3700  169.4200  120.4900 O.co2     3 ASP3        0.0000 
     72 OD1       164.3700  168.4000  120.9500 O.co2     3 ASP3        0.0000 
     73 OD1       165.3700  167.3900  121.4100 O.co2     3 ASP3        0.0000 
     74 OD1       165.4700  169.2000  120.3100 O.co2     3 ASP3        0.0000 
     75 OD1       166.6600  168.9500  122.0500 O.co2     3 ASP3        0.0000 
     76 NZ        156.7900  170.3600  117.3500 N.4       4 LYS4        0.0000 
     77 NZ        157.8900  171.1600  116.7200 N.4       4 LYS4        0.0000 
     78 CZ        162.7100  165.3100  117.7500 C.ar      5 PHE5        0.0000 
     79 CZ        164.8100  165.0900  117.5800 C.ar      5 PHE5        0.0000 
     80 CZ        162.9000  166.0800  119.0300 C.ar      5 PHE5        0.0000 
     81 CZ        164.0000  166.8700  118.4000 C.ar      5 PHE5        0.0000 
     82 CZ        165.0000  165.8600  118.8600 C.ar      5 PHE5        0.0000 
     83 CZ        163.1800  168.6600  119.2100 C.ar      5 PHE5        0.0000 
     84 CZ        164.1800  167.6400  119.6700 C.ar      5 PHE5        0.0000 
     85 CZ        166.2900  167.4200  119.5000 C.ar      5 PHE5        0.0000 
     86 CA        153.2000  165.4000  119.0800 C.3       6 GLY6        0.0000 
     87 CA        155.3000  165.1800  118.9100 C.3       6 GLY6        0.0000 
     88 CA        156.3000  164.1600  119.3700 C.3       6 GLY6        0.0000 
     89 CA        158.4100  163.9400  119.2000 C.3       6 GLY6        0.0000 
     90 CA        159.5100  164.7400  118.5600 C.3       6 GLY6        0.0000 
     91 CA        155.4900  165.9400  120.1900 C.3       6 GLY6        0.0000 
     92 CA        158.4900  162.9000  121.5800 C.3       6 GLY6        0.0000 
     93 CA        158.5900  164.7100  120.4800 C.3       6 GLY6        0.0000 
     94 CA        159.6900  165.5000  119.8400 C.3       6 GLY6        0.0000 
     95 CA        160.6900  164.4900  120.3000 C.3       6 GLY6        0.0000 
     96 CA        161.8000  165.2800  119.6700 C.3       6 GLY6        0.0000 
     97 CA        155.5700  164.9000  122.5600 C.3       6 GLY6        0.0000 
     98 CA        154.6700  167.7300  121.0000 C.3       6 GLY6        0.0000 
     99 CA        156.6700  165.6900  121.9300 C.3       6 GLY6        0.0000 
    100 CA        157.6800  164.6800  122.3900 C.3       6 GLY6        0.0000 
    101 CA        157.8600  165.4400  123.6700 C.3       6 GLY6        0.0000 
    102 CA        158.9600  166.2400  123.0300 C.3       6 GLY6        0.0000 
    103 CA        162.2700  168.6200  121.1200 C.3       6 GLY6        0.0000 
    104 CA        163.2700  167.6100  121.5900 C.3       6 GLY6        0.0000 
    105 CA        167.7600  169.7400  121.4200 C.3       6 GLY6        0.0000 
    106 DU        154.4900  166.9600  119.7300 H         7 CUB7        0.0000 
    107 DU        156.4900  164.9300  120.6500 H         7 CUB7        0.0000 
    108 DU        157.4900  163.9100  121.1100 H         7 CUB7        0.0000 
    109 DU        155.5900  167.7600  119.0900 H         7 CUB7        0.0000 
    110 DU        160.9800  167.0600  120.4800 H         7 CUB7        0.0000 
@<TRIPOS>BOND
@<TRIPOS>SUBSTRUCTURE
     1 SER1        1 GROUP   
     2 ALA2       19 GROUP   
     3 ASP3       50 GROUP   
     4 LYS4       76 GROUP   
     5 PHE5       78 GROUP   
     6 GLY6       86 GROUP   
     7 CUB7      106 GROUP   
@<TRIPOS>SET

