#    Name: 6n7i_3_TTP
#    Modification time : Fri May 22 19:31:28 2020

@<TRIPOS>MOLECULE
6n7i_3_TTP
   29    30     1     0     0
SMALL
NO_CHARGES


@<TRIPOS>ATOM
      1 PA        158.1440  164.3820  120.1560 P.3       1 TTP700      0.0000 
      2 O1A       158.4190  164.2160  118.6840 O.co2     1 TTP700      0.0000 
      3 O2A       156.7370  164.8860  120.3580 O.co2     1 TTP700      0.0000 
      4 O3A       158.3460  162.9450  120.9330 O.3       1 TTP700      0.0000 
      5 PB        157.3860  161.6300  121.1550 P.3       1 TTP700      0.0000 
      6 O1B       158.1650  160.3920  120.7920 O.co2     1 TTP700      0.0000 
      7 O2B       156.1450  161.7470  120.3050 O.co2     1 TTP700      0.0000 
      8 O3B       156.9180  161.5410  122.7270 O.3       1 TTP700      0.0000 
      9 PG        155.4630  161.5610  123.3800 P.3       1 TTP700      0.0000 
     10 O1G       155.2550  160.3120  124.1980 O.co2     1 TTP700      0.0000 
     11 O2G       154.4360  161.6240  122.2760 O.co2     1 TTP700      0.0000 
     12 O3G       155.3290  162.7680  124.2730 O.co2     1 TTP700      0.0000 
     13 O5'       159.2250  165.4450  120.7880 O.3       1 TTP700      0.0000 
     14 C5'       158.8290  166.7660  120.9850 C.3       1 TTP700      0.0000 
     15 C4'       160.0970  167.6360  121.0120 C.3       1 TTP700      0.0000 
     16 O4'       161.2840  166.8140  121.0150 O.3       1 TTP700      0.0000 
     17 C3'       160.2330  168.4010  119.7050 C.3       1 TTP700      0.0000 
     18 O3'       159.5130  169.6630  119.7900 O.3       1 TTP700      0.0000 
     19 C2'       161.7320  168.6440  119.6570 C.3       1 TTP700      0.0000 
     20 C1'       162.3470  167.6760  120.6530 C.3       1 TTP700      0.0000 
     21 N1        163.4310  166.9050  120.0240 N.am      1 TTP700      0.0000 
     22 C2        164.8500  167.2730  120.2550 C.2       1 TTP700      0.0000 
     23 O2        165.0810  168.1970  120.9540 O.2       1 TTP700      0.0000 
     24 N3        165.9260  166.5920  119.6970 N.am      1 TTP700      0.0000 
     25 C4        165.6350  165.5470  118.9080 C.2       1 TTP700      0.0000 
     26 O4        166.5780  164.9260  118.4010 O.2       1 TTP700      0.0000 
     27 C5        164.2510  165.0860  118.6060 C.2       1 TTP700      0.0000 
     28 C5M       164.0140  163.8880  117.6950 C.3       1 TTP700      0.0000 
     29 C6        163.1970  165.7820  119.1740 C.2       1 TTP700      0.0000 
@<TRIPOS>BOND
     1    1    2 ar   
     2    1    3 ar   
     3    1    4 1    
     4    1   13 1    
     5    4    5 1    
     6    5    6 ar   
     7    5    7 ar   
     8    5    8 1    
     9    8    9 1    
    10    9   10 ar   
    11    9   11 ar   
    12    9   12 ar   
    13   13   14 1    
    14   14   15 1    
    15   15   16 1    
    16   15   17 1    
    17   16   20 1    
    18   17   18 1    
    19   17   19 1    
    20   19   20 1    
    21   20   21 1    
    22   21   22 1    
    23   21   29 1    
    24   22   23 2    
    25   22   24 1    
    26   24   25 1    
    27   25   26 2    
    28   25   27 1    
    29   27   28 1    
    30   27   29 2    
@<TRIPOS>SUBSTRUCTURE
     1 TTP700      1 GROUP   
@<TRIPOS>SET

