#    Name: 6gr2_1_ADP
#    Modification time : Fri May 22 19:26:57 2020

@<TRIPOS>MOLECULE
6gr2_1_ADP
   39    41     1     0     1
SMALL
NO_CHARGES


@<TRIPOS>ATOM
      1 PB        -41.7280    3.5540   41.5410 P.3       1 ADP402      0.0000 
      2 O1B       -41.8080    4.0380   40.1080 O.co2     1 ADP402      0.0000 
      3 O2B       -43.0120    2.9370   42.0310 O.co2     1 ADP402      0.0000 
      4 O3B       -41.1240    4.5770   42.4740 O.co2     1 ADP402      0.0000 
      5 PA        -40.7150    1.0620   42.5070 P.3       1 ADP402      0.0000 
      6 O1A       -39.2890    0.8650   43.0180 O.co2     1 ADP402      0.0000 
      7 O2A       -41.8600    1.3060   43.4930 O.co2     1 ADP402      0.0000 
      8 O3A       -40.6650    2.3450   41.5570 O.3       1 ADP402      0.0000 
      9 O5'       -41.0170   -0.1800   41.4960 O.3       1 ADP402      0.0000 
     10 C5'       -41.6620   -0.0660   40.2050 C.3       1 ADP402      0.0000 
     11 C4'       -41.6050   -1.4550   39.5640 C.3       1 ADP402      0.0000 
     12 O4'       -42.8450   -1.8730   38.9140 O.3       1 ADP402      0.0000 
     13 C3'       -40.4920   -1.6130   38.5060 C.3       1 ADP402      0.0000 
     14 O3'       -39.3650   -2.2860   39.0990 O.3       1 ADP402      0.0000 
     15 C2'       -41.1320   -2.3360   37.3320 C.3       1 ADP402      0.0000 
     16 O2'       -40.6780   -3.6920   37.3600 O.3       1 ADP402      0.0000 
     17 C1'       -42.6380   -2.3710   37.5740 C.3       1 ADP402      0.0000 
     18 N9        -43.6540   -1.5790   36.8350 N.pl3     1 ADP402      0.0000 
     19 C8        -44.2930   -0.4710   37.2780 C.2       1 ADP402      0.0000 
     20 N7        -45.1720    0.0030   36.3440 N.2       1 ADP402      0.0000 
     21 C5        -45.1050   -0.8350   35.2920 C.ar      1 ADP402      0.0000 
     22 C6        -45.7430   -0.9590   33.9600 C.ar      1 ADP402      0.0000 
     23 N6        -46.6650   -0.0580   33.5500 N.pl3     1 ADP402      0.0000 
     24 N1        -45.3730   -1.9980   33.1730 N.ar      1 ADP402      0.0000 
     25 C2        -44.4570   -2.9040   33.5630 C.ar      1 ADP402      0.0000 
     26 N3        -43.8450   -2.8500   34.7560 N.ar      1 ADP402      0.0000 
     27 C4        -44.1110   -1.8640   35.6360 C.ar      1 ADP402      0.0000 
     28 H5'1      -41.1470    0.6670   39.5810 H         1 ADP402      0.0000 
     29 H5'2      -42.6980    0.2610   40.3210 H         1 ADP402      0.0000 
     30 H4'       -41.4060   -2.0950   40.4360 H         1 ADP402      0.0000 
     31 H3'       -40.0810   -0.6630   38.1390 H         1 ADP402      0.0000 
     32 HO3'      -39.6700   -3.0720   39.5720 H         1 ADP402      0.0000 
     33 H2'       -40.8820   -1.8450   36.3810 H         1 ADP402      0.0000 
     34 HO2'      -40.1480   -3.8370   38.1560 H         1 ADP402      0.0000 
     35 H1'       -42.8060   -3.4100   37.2580 H         1 ADP402      0.0000 
     36 H8        -44.1280   -0.0170   38.2480 H         1 ADP402      0.0000 
     37 HN61      -47.0940   -0.1520   32.6400 H         1 ADP402      0.0000 
     38 HN62      -46.9230    0.7100   34.1520 H         1 ADP402      0.0000 
     39 H2        -44.2030   -3.7090   32.8850 H         1 ADP402      0.0000 
@<TRIPOS>BOND
     1    1    2 ar   
     2    1    3 ar   
     3    1    4 ar   
     4    1    8 1    
     5    5    6 ar   
     6    5    7 ar   
     7    5    8 1    
     8    5    9 1    
     9    9   10 1    
    10   10   11 1    
    11   10   28 1    
    12   10   29 1    
    13   11   12 1    
    14   11   13 1    
    15   11   30 1    
    16   12   17 1    
    17   13   14 1    
    18   13   15 1    
    19   13   31 1    
    20   14   32 1    
    21   15   16 1    
    22   15   17 1    
    23   15   33 1    
    24   16   34 1    
    25   17   18 1    
    26   17   35 1    
    27   18   19 1    
    28   18   27 1    
    29   19   20 2    
    30   19   36 1    
    31   20   21 1    
    32   21   22 ar   
    33   21   27 ar   
    34   22   23 1    
    35   22   24 ar   
    36   23   37 1    
    37   23   38 1    
    38   24   25 ar   
    39   25   26 ar   
    40   25   39 1    
    41   26   27 ar   
@<TRIPOS>SUBSTRUCTURE
     1 ADP402      1 GROUP   
@<TRIPOS>SET
ATOM$ORANGE STATIC     ATOMS   COLORGROUP SYSTEM 
20 10 10 11 11 13 13 15 15 17 17 19 19 21 21 22 22 25 \
25 27 27 

