#    Name: 6gr2_3_ADP_CAVITY_N1_4
#    Modification time : Fri May 22 19:27:05 2020

@<TRIPOS>MOLECULE
6gr2_3_ADP_CAVITY_N1_4
   48     0     6     0     0
SMALL
NO_CHARGES


@<TRIPOS>ATOM
      1 OG        -32.6800  -28.6300   39.8200 O.3       1 SER1        0.0000 
      2 OG        -32.8500  -26.0500   39.5400 O.3       1 SER1        0.0000 
      3 OG        -30.8900  -28.4000   40.9300 O.3       1 SER1        0.0000 
      4 OG        -32.1700  -27.6200   40.8000 O.3       1 SER1        0.0000 
      5 OG        -31.7300  -24.2500   39.4000 O.3       1 SER1        0.0000 
      6 OG        -31.0600  -25.8200   40.6600 O.3       1 SER1        0.0000 
      7 OG        -30.3800  -27.3900   41.9100 O.3       1 SER1        0.0000 
      8 OG        -27.9900  -26.3600   41.9000 O.3       1 SER1        0.0000 
      9 OG        -29.2600  -25.5900   41.7700 O.3       1 SER1        0.0000 
     10 O         -31.4900  -29.1900   42.0600 O.2       2 ALA2        0.0000 
     11 O         -32.7600  -28.4100   41.9300 O.2       2 ALA2        0.0000 
     12 O         -30.9700  -28.1800   43.0400 O.2       2 ALA2        0.0000 
     13 O         -33.6000  -26.4000   44.8900 O.2       2 ALA2        0.0000 
     14 OD1       -28.6600  -26.9300   45.1300 O.co2     3 ASP3        0.0000 
     15 NZ        -29.9400  -24.0200   40.5100 N.4       4 LYS4        0.0000 
     16 NZ        -28.5800  -27.1500   43.0200 N.4       4 LYS4        0.0000 
     17 NZ        -28.1500  -23.7800   41.6200 N.4       4 LYS4        0.0000 
     18 NZ        -28.7500  -24.5700   42.7500 N.4       4 LYS4        0.0000 
     19 CA        -31.5700  -26.8300   39.6700 C.3       5 GLY6        0.0000 
     20 CA        -33.4400  -26.8400   40.6700 C.3       5 GLY6        0.0000 
     21 CA        -29.1000  -28.1600   42.0400 C.3       5 GLY6        0.0000 
     22 CA        -32.2500  -27.4000   42.9100 C.3       5 GLY6        0.0000 
     23 CA        -33.5200  -26.6200   42.7800 C.3       5 GLY6        0.0000 
     24 CA        -31.2200  -23.2400   40.3800 C.3       5 GLY6        0.0000 
     25 CA        -29.1800  -27.9400   44.1500 C.3       5 GLY6        0.0000 
     26 CA        -30.4600  -27.1600   44.0200 C.3       5 GLY6        0.0000 
     27 CA        -31.7300  -26.3900   43.8900 C.3       5 GLY6        0.0000 
     28 CA        -29.4300  -23.0100   41.4900 C.3       5 GLY6        0.0000 
     29 CA        -30.0200  -23.8000   42.6200 C.3       5 GLY6        0.0000 
     30 CA        -31.3000  -23.0200   42.4900 C.3       5 GLY6        0.0000 
     31 CA        -33.1700  -23.0300   43.4800 C.3       5 GLY6        0.0000 
     32 CA        -29.9400  -26.1500   45.0000 C.3       5 GLY6        0.0000 
     33 CA        -30.5400  -26.9400   46.1300 C.3       5 GLY6        0.0000 
     34 CA        -31.8100  -26.1700   46.0000 C.3       5 GLY6        0.0000 
     35 CA        -33.0900  -25.3900   45.8700 C.3       5 GLY6        0.0000 
     36 DU        -32.3300  -25.0400   40.5200 H         6 CUB7        0.0000 
     37 DU        -31.6500  -26.6100   41.7800 H         6 CUB7        0.0000 
     38 DU        -32.9300  -25.8300   41.6500 H         6 CUB7        0.0000 
     39 DU        -30.5400  -24.8100   41.6400 H         6 CUB7        0.0000 
     40 DU        -31.8200  -24.0300   41.5100 H         6 CUB7        0.0000 
     41 DU        -29.8600  -26.3800   42.8900 H         6 CUB7        0.0000 
     42 DU        -31.1400  -25.6000   42.7600 H         6 CUB7        0.0000 
     43 DU        -34.2800  -24.8300   43.6300 H         6 CUB7        0.0000 
     44 DU        -29.3400  -25.3600   43.8800 H         6 CUB7        0.0000 
     45 DU        -31.9000  -23.8100   43.6100 H         6 CUB7        0.0000 
     46 DU        -31.2200  -25.3800   44.8700 H         6 CUB7        0.0000 
     47 DU        -32.4900  -24.6000   44.7400 H         6 CUB7        0.0000 
     48 DU        -33.7700  -23.8200   44.6100 H         6 CUB7        0.0000 
@<TRIPOS>BOND
@<TRIPOS>SUBSTRUCTURE
     1 SER1        1 GROUP   
     2 ALA2       10 GROUP   
     3 ASP3       14 GROUP   
     4 LYS4       15 GROUP   
     5 GLY6       19 GROUP   
     6 CUB7       36 GROUP   
@<TRIPOS>SET

