#    Name: 6gr2_7_ADP_CAVITY_N1_4
#    Modification time : Fri May 22 19:27:25 2020

@<TRIPOS>MOLECULE
6gr2_7_ADP_CAVITY_N1_4
   57     0     6     0     0
SMALL
NO_CHARGES


@<TRIPOS>ATOM
      1 OG        -74.9100  -14.4600  -14.5100 O.3       1 SER1        0.0000 
      2 OG        -75.5100  -15.2500  -13.3900 O.3       1 SER1        0.0000 
      3 OG        -74.4000  -13.4500  -13.5300 O.3       1 SER1        0.0000 
      4 OG        -75.6700  -12.6700  -13.6600 O.3       1 SER1        0.0000 
      5 OG        -76.2700  -13.4600  -12.5400 O.3       1 SER1        0.0000 
      6 OG        -78.8200  -11.9000  -12.8000 O.3       1 SER1        0.0000 
      7 OG        -73.2900  -11.6500  -13.6800 O.3       1 SER1        0.0000 
      8 OG        -73.8800  -12.4400  -12.5500 O.3       1 SER1        0.0000 
      9 OG        -77.0300  -11.6700  -11.6900 O.3       1 SER1        0.0000 
     10 OG        -72.7700  -10.6400  -12.7000 O.3       1 SER1        0.0000 
     11 OG        -74.6400  -10.6500  -11.7000 O.3       1 SER1        0.0000 
     12 O         -74.2400  -13.8900  -17.7500 O.2       2 ALA2        0.0000 
     13 O         -73.0400  -14.4500  -15.5100 O.2       2 ALA2        0.0000 
     14 O         -73.8800  -10.3000  -17.0400 O.2       2 ALA2        0.0000 
     15 N         -75.1600   -9.5200  -17.1800 N.am      2 ALA2        0.0000 
     16 O         -73.2000  -11.8700  -15.7900 O.2       2 ALA2        0.0000 
     17 O         -74.4800  -11.0900  -15.9200 O.2       2 ALA2        0.0000 
     18 O         -72.5300  -13.4300  -14.5300 O.2       2 ALA2        0.0000 
     19 O         -72.6900  -10.8600  -14.8100 O.2       2 ALA2        0.0000 
     20 O         -72.0100  -12.4200  -13.5500 O.2       2 ALA2        0.0000 
     21 O         -74.0500   -9.8600  -12.8300 O.2       2 ALA2        0.0000 
     22 OD1       -73.5600  -15.4600  -16.4900 O.co2     3 ASP3        0.0000 
     23 NZ        -75.4300  -15.4700  -15.4900 N.4       4 LYS4        0.0000 
     24 NZ        -76.0300  -16.2600  -14.3700 N.4       4 LYS4        0.0000 
     25 NZ        -77.3000  -15.4800  -14.5000 N.4       4 LYS4        0.0000 
     26 NZ        -76.7900  -14.4700  -13.5200 N.4       4 LYS4        0.0000 
     27 NZ        -77.5500  -12.6800  -12.6700 N.4       4 LYS4        0.0000 
     28 NZ        -78.1400  -13.4700  -11.5400 N.4       4 LYS4        0.0000 
     29 CA        -77.9800  -13.9100  -15.7600 C.3       5 GLY6        0.0000 
     30 CA        -78.5800  -14.7000  -14.6300 C.3       5 GLY6        0.0000 
     31 CA        -74.4000  -11.3100  -18.0300 C.3       5 GLY6        0.0000 
     32 CA        -73.7200  -12.8800  -16.7700 C.3       5 GLY6        0.0000 
     33 CA        -75.0000  -12.1000  -16.9000 C.3       5 GLY6        0.0000 
     34 CA        -73.6400  -15.2300  -14.3800 C.3       5 GLY6        0.0000 
     35 CA        -78.7400  -12.1200  -14.9100 C.3       5 GLY6        0.0000 
     36 CA        -78.0600  -13.6900  -13.6500 C.3       5 GLY6        0.0000 
     37 CA        -79.3400  -12.9100  -13.7800 C.3       5 GLY6        0.0000 
     38 CA        -73.9700  -10.0800  -14.9400 C.3       5 GLY6        0.0000 
     39 CA        -74.5600  -10.8700  -13.8100 C.3       5 GLY6        0.0000 
     40 CA        -75.8400  -10.0900  -13.9400 C.3       5 GLY6        0.0000 
     41 CA        -75.1600  -11.6600  -12.6800 C.3       5 GLY6        0.0000 
     42 CA        -75.7500  -12.4500  -11.5600 C.3       5 GLY6        0.0000 
     43 DU        -74.8300  -14.6800  -16.6200 H         6 CUB7        0.0000 
     44 DU        -76.1100  -13.9000  -16.7500 H         6 CUB7        0.0000 
     45 DU        -76.7000  -14.6900  -15.6300 H         6 CUB7        0.0000 
     46 DU        -74.3200  -13.6700  -15.6400 H         6 CUB7        0.0000 
     47 DU        -75.5900  -12.8900  -15.7700 H         6 CUB7        0.0000 
     48 DU        -76.1900  -13.6800  -14.6400 H         6 CUB7        0.0000 
     49 DU        -77.4700  -12.9000  -14.7700 H         6 CUB7        0.0000 
     50 DU        -75.7600  -10.3100  -16.0500 H         6 CUB7        0.0000 
     51 DU        -73.8000  -12.6600  -14.6600 H         6 CUB7        0.0000 
     52 DU        -75.0800  -11.8800  -14.7900 H         6 CUB7        0.0000 
     53 DU        -76.3500  -11.1000  -14.9200 H         6 CUB7        0.0000 
     54 DU        -76.9500  -11.8900  -13.7900 H         6 CUB7        0.0000 
     55 DU        -78.2300  -11.1100  -13.9200 H         6 CUB7        0.0000 
     56 DU        -76.4300  -10.8800  -12.8100 H         6 CUB7        0.0000 
     57 DU        -75.9200   -9.8700  -11.8300 H         6 CUB7        0.0000 
@<TRIPOS>BOND
@<TRIPOS>SUBSTRUCTURE
     1 SER1        1 GROUP   
     2 ALA2       12 GROUP   
     3 ASP3       22 GROUP   
     4 LYS4       23 GROUP   
     5 GLY6       29 GROUP   
     6 CUB7       43 GROUP   
@<TRIPOS>SET

