#    Name: 6gr2_8_ADP
#    Modification time : Fri May 22 19:27:29 2020

@<TRIPOS>MOLECULE
6gr2_8_ADP
   39    41     1     0     1
SMALL
NO_CHARGES


@<TRIPOS>ATOM
      1 PB        -44.8630   42.4590  -12.3360 P.3       1 ADP402      0.0000 
      2 O1B       -44.7670   42.4390  -13.8440 O.co2     1 ADP402      0.0000 
      3 O2B       -45.2430   41.1260  -11.7470 O.co2     1 ADP402      0.0000 
      4 O3B       -43.6710   43.1050  -11.6600 O.co2     1 ADP402      0.0000 
      5 PA        -47.6070   42.9380  -11.8170 P.3       1 ADP402      0.0000 
      6 O1A       -48.4580   43.8630  -12.6740 O.co2     1 ADP402      0.0000 
      7 O2A       -47.5350   41.4450  -12.1340 O.co2     1 ADP402      0.0000 
      8 O3A       -46.1070   43.4340  -12.0190 O.3       1 ADP402      0.0000 
      9 O5'       -48.0260   43.2460  -10.2740 O.3       1 ADP402      0.0000 
     10 C5'       -47.1140   43.4420   -9.1690 C.3       1 ADP402      0.0000 
     11 C4'       -47.9770   43.7860   -7.9500 C.3       1 ADP402      0.0000 
     12 O4'       -47.5290   43.1630   -6.7130 O.3       1 ADP402      0.0000 
     13 C3'       -48.0520   45.2830   -7.6310 C.3       1 ADP402      0.0000 
     14 O3'       -49.3230   45.7920   -8.0500 O.3       1 ADP402      0.0000 
     15 C2'       -47.8820   45.4600   -6.1330 C.3       1 ADP402      0.0000 
     16 O2'       -49.1320   45.7220   -5.4850 O.3       1 ADP402      0.0000 
     17 C1'       -47.4250   44.1020   -5.6140 C.3       1 ADP402      0.0000 
     18 N9        -46.0420   43.8770   -5.1410 N.pl3     1 ADP402      0.0000 
     19 C8        -45.0740   43.2330   -5.8250 C.2       1 ADP402      0.0000 
     20 N7        -43.9160   43.1890   -5.1070 N.2       1 ADP402      0.0000 
     21 C5        -44.1540   43.8070   -3.9360 C.ar      1 ADP402      0.0000 
     22 C6        -43.3910   44.1280   -2.7070 C.ar      1 ADP402      0.0000 
     23 N6        -42.0930   43.7680   -2.5770 N.pl3     1 ADP402      0.0000 
     24 N1        -44.0370   44.7910   -1.7200 N.ar      1 ADP402      0.0000 
     25 C2        -45.3270   45.1600   -1.8220 C.ar      1 ADP402      0.0000 
     26 N3        -46.0710   44.8980   -2.9080 N.ar      1 ADP402      0.0000 
     27 C4        -45.5560   44.2470   -3.9720 C.ar      1 ADP402      0.0000 
     28 H5'1      -46.4150   44.2520   -9.3870 H         1 ADP402      0.0000 
     29 H5'2      -46.5320   42.5370   -8.9850 H         1 ADP402      0.0000 
     30 H4'       -48.9570   43.3970   -8.2590 H         1 ADP402      0.0000 
     31 H3'       -47.2640   45.8350   -8.1620 H         1 ADP402      0.0000 
     32 HO3'      -49.3710   45.7840   -9.0160 H         1 ADP402      0.0000 
     33 H2'       -47.1940   46.2930   -5.9340 H         1 ADP402      0.0000 
     34 HO2'      -49.7970   45.0960   -5.8030 H         1 ADP402      0.0000 
     35 H1'       -48.0740   44.0130   -4.7320 H         1 ADP402      0.0000 
     36 H8        -45.2010   42.8060   -6.8120 H         1 ADP402      0.0000 
     37 HN61      -41.5870   43.9960   -1.7330 H         1 ADP402      0.0000 
     38 HN62      -41.6290   43.2720   -3.3250 H         1 ADP402      0.0000 
     39 H2        -45.7840   45.6890   -0.9950 H         1 ADP402      0.0000 
@<TRIPOS>BOND
     1    1    2 ar   
     2    1    3 ar   
     3    1    4 ar   
     4    1    8 1    
     5    5    6 ar   
     6    5    7 ar   
     7    5    8 1    
     8    5    9 1    
     9    9   10 1    
    10   10   11 1    
    11   10   28 1    
    12   10   29 1    
    13   11   12 1    
    14   11   13 1    
    15   11   30 1    
    16   12   17 1    
    17   13   14 1    
    18   13   15 1    
    19   13   31 1    
    20   14   32 1    
    21   15   16 1    
    22   15   17 1    
    23   15   33 1    
    24   16   34 1    
    25   17   18 1    
    26   17   35 1    
    27   18   19 1    
    28   18   27 1    
    29   19   20 2    
    30   19   36 1    
    31   20   21 1    
    32   21   22 ar   
    33   21   27 ar   
    34   22   23 1    
    35   22   24 ar   
    36   23   37 1    
    37   23   38 1    
    38   24   25 ar   
    39   25   26 ar   
    40   25   39 1    
    41   26   27 ar   
@<TRIPOS>SUBSTRUCTURE
     1 ADP402      1 GROUP   
@<TRIPOS>SET
ATOM$ORANGE STATIC     ATOMS   COLORGROUP SYSTEM 
20 10 10 11 11 13 13 15 15 17 17 19 19 21 21 22 22 25 \
25 27 27 

