#    Name: 6gr2_3_ADP_CAVITY_N1_12
#    Modification time : Fri May 22 19:27:05 2020

@<TRIPOS>MOLECULE
6gr2_3_ADP_CAVITY_N1_12
   86     0     6     0     0
SMALL
NO_CHARGES


@<TRIPOS>ATOM
      1 OG        -32.6800  -28.6300   39.8200 O.3       1 SER1        0.0000 
      2 OG        -32.8500  -26.0500   39.5400 O.3       1 SER1        0.0000 
      3 OG        -30.8900  -28.4000   40.9300 O.3       1 SER1        0.0000 
      4 OG        -32.1700  -27.6200   40.8000 O.3       1 SER1        0.0000 
      5 OG        -31.7300  -24.2500   39.4000 O.3       1 SER1        0.0000 
      6 OG        -31.0600  -25.8200   40.6600 O.3       1 SER1        0.0000 
      7 OG        -30.3800  -27.3900   41.9100 O.3       1 SER1        0.0000 
      8 OG        -27.9900  -26.3600   41.9000 O.3       1 SER1        0.0000 
      9 OG        -29.2600  -25.5900   41.7700 O.3       1 SER1        0.0000 
     10 OG        -35.0500  -23.0400   44.4800 O.3       1 SER1        0.0000 
     11 O         -31.4900  -29.1900   42.0600 O.2       2 ALA2        0.0000 
     12 O         -32.7600  -28.4100   41.9300 O.2       2 ALA2        0.0000 
     13 O         -30.9700  -28.1800   43.0400 O.2       2 ALA2        0.0000 
     14 O         -33.6000  -26.4000   44.8900 O.2       2 ALA2        0.0000 
     15 N         -34.8800  -25.6200   44.7600 N.am      2 ALA2        0.0000 
     16 O         -34.9600  -25.4000   46.8700 O.2       2 ALA2        0.0000 
     17 O         -29.4300  -25.1400   45.9800 O.2       2 ALA2        0.0000 
     18 O         -30.7000  -24.3700   45.8500 O.2       2 ALA2        0.0000 
     19 O         -35.8100  -21.2600   45.3300 O.2       2 ALA2        0.0000 
     20 O         -30.0200  -25.9300   47.1100 O.2       2 ALA2        0.0000 
     21 O         -31.3000  -25.1600   46.9800 O.2       2 ALA2        0.0000 
     22 N         -32.5700  -24.3800   46.8500 N.am      2 ALA2        0.0000 
     23 N         -33.8500  -23.6000   46.7200 N.am      2 ALA2        0.0000 
     24 N         -35.1300  -22.8200   46.5900 N.am      2 ALA2        0.0000 
     25 N         -36.4000  -22.0400   46.4600 N.am      2 ALA2        0.0000 
     26 N         -33.1700  -25.1700   47.9800 N.am      2 ALA2        0.0000 
     27 N         -34.4500  -24.3900   47.8500 N.am      2 ALA2        0.0000 
     28 N         -35.7200  -23.6100   47.7200 N.am      2 ALA2        0.0000 
     29 OD1       -28.6600  -26.9300   45.1300 O.co2     3 ASP3        0.0000 
     30 OD1       -28.1500  -25.9200   46.1100 O.co2     3 ASP3        0.0000 
     31 NZ        -29.9400  -24.0200   40.5100 N.4       4 LYS4        0.0000 
     32 NZ        -28.5800  -27.1500   43.0200 N.4       4 LYS4        0.0000 
     33 NZ        -26.8800  -24.5600   41.7500 N.4       4 LYS4        0.0000 
     34 NZ        -28.1500  -23.7800   41.6200 N.4       4 LYS4        0.0000 
     35 NZ        -27.4700  -25.3500   42.8800 N.4       4 LYS4        0.0000 
     36 NZ        -28.7500  -24.5700   42.7500 N.4       4 LYS4        0.0000 
     37 NZ        -28.0700  -26.1400   44.0100 N.4       4 LYS4        0.0000 
     38 NZ        -26.9600  -24.3400   43.8600 N.4       4 LYS4        0.0000 
     39 NZ        -27.5500  -25.1300   44.9900 N.4       4 LYS4        0.0000 
     40 CA        -31.5700  -26.8300   39.6700 C.3       5 GLY6        0.0000 
     41 CA        -33.4400  -26.8400   40.6700 C.3       5 GLY6        0.0000 
     42 CA        -29.1000  -28.1600   42.0400 C.3       5 GLY6        0.0000 
     43 CA        -32.2500  -27.4000   42.9100 C.3       5 GLY6        0.0000 
     44 CA        -33.5200  -26.6200   42.7800 C.3       5 GLY6        0.0000 
     45 CA        -31.2200  -23.2400   40.3800 C.3       5 GLY6        0.0000 
     46 CA        -29.1800  -27.9400   44.1500 C.3       5 GLY6        0.0000 
     47 CA        -30.4600  -27.1600   44.0200 C.3       5 GLY6        0.0000 
     48 CA        -31.7300  -26.3900   43.8900 C.3       5 GLY6        0.0000 
     49 CA        -29.4300  -23.0100   41.4900 C.3       5 GLY6        0.0000 
     50 CA        -30.7000  -22.2300   41.3600 C.3       5 GLY6        0.0000 
     51 CA        -30.0200  -23.8000   42.6200 C.3       5 GLY6        0.0000 
     52 CA        -31.3000  -23.0200   42.4900 C.3       5 GLY6        0.0000 
     53 CA        -33.1700  -23.0300   43.4800 C.3       5 GLY6        0.0000 
     54 CA        -29.9400  -26.1500   45.0000 C.3       5 GLY6        0.0000 
     55 CA        -30.5400  -26.9400   46.1300 C.3       5 GLY6        0.0000 
     56 CA        -31.8100  -26.1700   46.0000 C.3       5 GLY6        0.0000 
     57 CA        -33.0900  -25.3900   45.8700 C.3       5 GLY6        0.0000 
     58 CA        -33.6900  -26.1800   47.0000 C.3       5 GLY6        0.0000 
     59 CA        -36.2400  -24.6200   46.7300 C.3       5 GLY6        0.0000 
     60 CA        -27.6400  -22.7700   42.6000 C.3       5 GLY6        0.0000 
     61 CA        -28.2300  -23.5600   43.7300 C.3       5 GLY6        0.0000 
     62 CA        -29.5100  -22.7900   43.6000 C.3       5 GLY6        0.0000 
     63 CA        -30.7800  -22.0100   43.4700 C.3       5 GLY6        0.0000 
     64 CA        -31.3800  -22.8000   44.6000 C.3       5 GLY6        0.0000 
     65 CA        -32.6600  -22.0200   44.4600 C.3       5 GLY6        0.0000 
     66 CA        -33.2500  -22.8100   45.5900 C.3       5 GLY6        0.0000 
     67 CA        -34.5300  -22.0300   45.4600 C.3       5 GLY6        0.0000 
     68 CA        -31.8900  -25.9400   48.1100 C.3       5 GLY6        0.0000 
     69 DU        -32.3300  -25.0400   40.5200 H         6 CUB7        0.0000 
     70 DU        -31.6500  -26.6100   41.7800 H         6 CUB7        0.0000 
     71 DU        -32.9300  -25.8300   41.6500 H         6 CUB7        0.0000 
     72 DU        -30.5400  -24.8100   41.6400 H         6 CUB7        0.0000 
     73 DU        -31.8200  -24.0300   41.5100 H         6 CUB7        0.0000 
     74 DU        -29.8600  -26.3800   42.8900 H         6 CUB7        0.0000 
     75 DU        -31.1400  -25.6000   42.7600 H         6 CUB7        0.0000 
     76 DU        -34.2800  -24.8300   43.6300 H         6 CUB7        0.0000 
     77 DU        -29.3400  -25.3600   43.8800 H         6 CUB7        0.0000 
     78 DU        -31.9000  -23.8100   43.6100 H         6 CUB7        0.0000 
     79 DU        -31.2200  -25.3800   44.8700 H         6 CUB7        0.0000 
     80 DU        -32.4900  -24.6000   44.7400 H         6 CUB7        0.0000 
     81 DU        -33.7700  -23.8200   44.6100 H         6 CUB7        0.0000 
     82 DU        -34.3700  -24.6100   45.7400 H         6 CUB7        0.0000 
     83 DU        -35.6400  -23.8300   45.6100 H         6 CUB7        0.0000 
     84 DU        -28.8300  -24.3500   44.8600 H         6 CUB7        0.0000 
     85 DU        -30.1000  -23.5800   44.7300 H         6 CUB7        0.0000 
     86 DU        -31.9800  -23.5900   45.7200 H         6 CUB7        0.0000 
@<TRIPOS>BOND
@<TRIPOS>SUBSTRUCTURE
     1 SER1        1 GROUP   
     2 ALA2       11 GROUP   
     3 ASP3       29 GROUP   
     4 LYS4       31 GROUP   
     5 GLY6       40 GROUP   
     6 CUB7       69 GROUP   
@<TRIPOS>SET

