#    Name: 6gr2_3_ADP
#    Modification time : Fri May 22 19:27:04 2020

@<TRIPOS>MOLECULE
6gr2_3_ADP
   39    41     1     0     1
SMALL
NO_CHARGES


@<TRIPOS>ATOM
      1 PB        -31.8670  -28.7950   42.2610 P.3       1 ADP402      0.0000 
      2 O1B       -30.5970  -28.7700   41.4470 O.co2     1 ADP402      0.0000 
      3 O2B       -32.5570  -30.1480   42.2590 O.co2     1 ADP402      0.0000 
      4 O3B       -31.7070  -28.1980   43.6450 O.co2     1 ADP402      0.0000 
      5 PA        -32.4270  -26.5440   40.5710 P.3       1 ADP402      0.0000 
      6 O1A       -30.9180  -26.4160   40.7580 O.co2     1 ADP402      0.0000 
      7 O2A       -33.3600  -25.4180   40.9950 O.co2     1 ADP402      0.0000 
      8 O3A       -32.8620  -27.7970   41.4690 O.3       1 ADP402      0.0000 
      9 O5'       -32.8600  -26.8950   39.0470 O.3       1 ADP402      0.0000 
     10 C5'       -33.0490  -28.2280   38.5480 C.3       1 ADP402      0.0000 
     11 C4'       -33.5800  -28.1300   37.1170 C.3       1 ADP402      0.0000 
     12 O4'       -33.0090  -29.0750   36.1740 O.3       1 ADP402      0.0000 
     13 C3'       -35.0950  -28.3430   37.0860 C.3       1 ADP402      0.0000 
     14 O3'       -35.7810  -27.0930   36.9400 O.3       1 ADP402      0.0000 
     15 C2'       -35.3600  -29.2790   35.9260 C.3       1 ADP402      0.0000 
     16 O2'       -35.8800  -28.5190   34.8400 O.3       1 ADP402      0.0000 
     17 C1'       -34.0160  -29.7980   35.4380 C.3       1 ADP402      0.0000 
     18 N9        -33.5620  -31.1900   35.6290 N.pl3     1 ADP402      0.0000 
     19 C8        -32.6640  -31.6250   36.5400 C.2       1 ADP402      0.0000 
     20 N7        -32.4750  -32.9730   36.4380 N.2       1 ADP402      0.0000 
     21 C5        -33.2570  -33.4010   35.4310 C.ar      1 ADP402      0.0000 
     22 C6        -33.5620  -34.6890   34.7710 C.ar      1 ADP402      0.0000 
     23 N6        -32.9710  -35.8360   35.1810 N.pl3     1 ADP402      0.0000 
     24 N1        -34.4470  -34.6740   33.7470 N.ar      1 ADP402      0.0000 
     25 C2        -35.0490  -33.5480   33.3230 C.ar      1 ADP402      0.0000 
     26 N3        -34.8140  -32.3510   33.8790 N.ar      1 ADP402      0.0000 
     27 C4        -33.9560  -32.2180   34.9100 C.ar      1 ADP402      0.0000 
     28 H5'1      -33.7580  -28.7690   39.1780 H         1 ADP402      0.0000 
     29 H5'2      -32.1030  -28.7730   38.5620 H         1 ADP402      0.0000 
     30 H4'       -33.2830  -27.1210   36.7980 H         1 ADP402      0.0000 
     31 H3'       -35.4700  -28.7740   38.0250 H         1 ADP402      0.0000 
     32 HO3'      -35.1370  -26.3720   36.9290 H         1 ADP402      0.0000 
     33 H2'       -36.0480  -30.0780   36.2350 H         1 ADP402      0.0000 
     34 HO2'      -35.5630  -27.6080   34.9030 H         1 ADP402      0.0000 
     35 H1'       -34.1690  -29.6790   34.3560 H         1 ADP402      0.0000 
     36 H8        -32.1600  -30.9880   37.2570 H         1 ADP402      0.0000 
     37 HN61      -33.1890  -36.7090   34.7220 H         1 ADP402      0.0000 
     38 HN62      -32.3130  -35.8190   35.9470 H         1 ADP402      0.0000 
     39 H2        -35.7500  -33.6110   32.5000 H         1 ADP402      0.0000 
@<TRIPOS>BOND
     1    1    2 ar   
     2    1    3 ar   
     3    1    4 ar   
     4    1    8 1    
     5    5    6 ar   
     6    5    7 ar   
     7    5    8 1    
     8    5    9 1    
     9    9   10 1    
    10   10   11 1    
    11   10   28 1    
    12   10   29 1    
    13   11   12 1    
    14   11   13 1    
    15   11   30 1    
    16   12   17 1    
    17   13   14 1    
    18   13   15 1    
    19   13   31 1    
    20   14   32 1    
    21   15   16 1    
    22   15   17 1    
    23   15   33 1    
    24   16   34 1    
    25   17   18 1    
    26   17   35 1    
    27   18   19 1    
    28   18   27 1    
    29   19   20 2    
    30   19   36 1    
    31   20   21 1    
    32   21   22 ar   
    33   21   27 ar   
    34   22   23 1    
    35   22   24 ar   
    36   23   37 1    
    37   23   38 1    
    38   24   25 ar   
    39   25   26 ar   
    40   25   39 1    
    41   26   27 ar   
@<TRIPOS>SUBSTRUCTURE
     1 ADP402      1 GROUP   
@<TRIPOS>SET
ATOM$ORANGE STATIC     ATOMS   COLORGROUP SYSTEM 
20 10 10 11 11 13 13 15 15 17 17 19 19 21 21 22 22 25 \
25 27 27 

