#    Name: 6gr2_7_ADP
#    Modification time : Fri May 22 19:27:23 2020

@<TRIPOS>MOLECULE
6gr2_7_ADP
   39    41     1     0     1
SMALL
NO_CHARGES


@<TRIPOS>ATOM
      1 PB        -72.8150  -11.9030  -13.5330 P.3       1 ADP402      0.0000 
      2 O1B       -72.8500  -12.1290  -15.0250 O.co2     1 ADP402      0.0000 
      3 O2B       -73.1360  -13.1350  -12.7320 O.co2     1 ADP402      0.0000 
      4 O3B       -71.5670  -11.1830  -13.0620 O.co2     1 ADP402      0.0000 
      5 PA        -75.5230  -11.3410  -12.8730 P.3       1 ADP402      0.0000 
      6 O1A       -76.4490  -10.5420  -13.7770 O.co2     1 ADP402      0.0000 
      7 O2A       -75.5140  -12.8680  -12.9620 O.co2     1 ADP402      0.0000 
      8 O3A       -74.0440  -10.8980  -13.2660 O.3       1 ADP402      0.0000 
      9 O5'       -75.8040  -10.7870  -11.3690 O.3       1 ADP402      0.0000 
     10 C5'       -74.7830  -10.4890  -10.3960 C.3       1 ADP402      0.0000 
     11 C4'       -75.5110   -9.9200   -9.1750 C.3       1 ADP402      0.0000 
     12 O4'       -74.9630  -10.4500   -7.9310 O.3       1 ADP402      0.0000 
     13 C3'       -75.4740   -8.3950   -9.0390 C.3       1 ADP402      0.0000 
     14 O3'       -76.7420   -7.8090   -9.3720 O.3       1 ADP402      0.0000 
     15 C2'       -75.1360   -8.0920   -7.5870 C.3       1 ADP402      0.0000 
     16 O2'       -76.3050   -7.6980   -6.8580 O.3       1 ADP402      0.0000 
     17 C1'       -74.6870   -9.4140   -6.9640 C.3       1 ADP402      0.0000 
     18 N9        -73.2590   -9.6130   -6.6300 N.pl3     1 ADP402      0.0000 
     19 C8        -72.3790  -10.3450   -7.3430 C.2       1 ADP402      0.0000 
     20 N7        -71.1460  -10.3240   -6.7650 N.2       1 ADP402      0.0000 
     21 C5        -71.2400   -9.5710   -5.6540 C.ar      1 ADP402      0.0000 
     22 C6        -70.3310   -9.1240   -4.5730 C.ar      1 ADP402      0.0000 
     23 N6        -69.0270   -9.4870   -4.5540 N.pl3     1 ADP402      0.0000 
     24 N1        -70.8510   -8.3410   -3.6010 N.ar      1 ADP402      0.0000 
     25 C2        -72.1430   -7.9650   -3.5920 C.ar      1 ADP402      0.0000 
     26 N3        -73.0160   -8.3350   -4.5420 N.ar      1 ADP402      0.0000 
     27 C4        -72.6360   -9.1140   -5.5770 C.ar      1 ADP402      0.0000 
     28 H5'1      -74.0700   -9.7630  -10.7930 H         1 ADP402      0.0000 
     29 H5'2      -74.2280  -11.3910  -10.1290 H         1 ADP402      0.0000 
     30 H4'       -76.5510  -10.2340   -9.3410 H         1 ADP402      0.0000 
     31 H3'       -74.7320   -7.9710   -9.7310 H         1 ADP402      0.0000 
     32 HO3'      -77.1880   -8.3580  -10.0310 H         1 ADP402      0.0000 
     33 H2'       -74.3860   -7.2900   -7.5460 H         1 ADP402      0.0000 
     34 HO2'      -77.0790   -8.1460   -7.2240 H         1 ADP402      0.0000 
     35 H1'       -75.2330   -9.4130   -6.0110 H         1 ADP402      0.0000 
     36 H8        -72.6210  -10.8790   -8.2540 H         1 ADP402      0.0000 
     37 HN61      -68.4260   -9.1720   -3.8050 H         1 ADP402      0.0000 
     38 HN62      -68.6550  -10.0720   -5.2880 H         1 ADP402      0.0000 
     39 H2        -72.4930   -7.3360   -2.7830 H         1 ADP402      0.0000 
@<TRIPOS>BOND
     1    1    2 ar   
     2    1    3 ar   
     3    1    4 ar   
     4    1    8 1    
     5    5    6 ar   
     6    5    7 ar   
     7    5    8 1    
     8    5    9 1    
     9    9   10 1    
    10   10   11 1    
    11   10   28 1    
    12   10   29 1    
    13   11   12 1    
    14   11   13 1    
    15   11   30 1    
    16   12   17 1    
    17   13   14 1    
    18   13   15 1    
    19   13   31 1    
    20   14   32 1    
    21   15   16 1    
    22   15   17 1    
    23   15   33 1    
    24   16   34 1    
    25   17   18 1    
    26   17   35 1    
    27   18   19 1    
    28   18   27 1    
    29   19   20 2    
    30   19   36 1    
    31   20   21 1    
    32   21   22 ar   
    33   21   27 ar   
    34   22   23 1    
    35   22   24 ar   
    36   23   37 1    
    37   23   38 1    
    38   24   25 ar   
    39   25   26 ar   
    40   25   39 1    
    41   26   27 ar   
@<TRIPOS>SUBSTRUCTURE
     1 ADP402      1 GROUP   
@<TRIPOS>SET
ATOM$ORANGE STATIC     ATOMS   COLORGROUP SYSTEM 
20 10 10 11 11 13 13 15 15 17 17 19 19 21 21 22 22 25 \
25 27 27 

