#    Name: 6gr2_6_ADP_CAVITY_N1_4
#    Modification time : Fri May 22 19:27:18 2020

@<TRIPOS>MOLECULE
6gr2_6_ADP_CAVITY_N1_4
   47     0     6     0     0
SMALL
NO_CHARGES


@<TRIPOS>ATOM
      1 OG        -85.3600   23.9800   40.8200 O.3       1 SER1        0.0000 
      2 OG        -85.2800   21.6300   43.2000 O.3       1 SER1        0.0000 
      3 OG        -84.8400   24.9900   41.8000 O.3       1 SER1        0.0000 
      4 OG        -86.1200   25.7700   41.6700 O.3       1 SER1        0.0000 
      5 OG        -84.1700   23.4300   43.0600 O.3       1 SER1        0.0000 
      6 OG        -84.7600   22.6400   44.1900 O.3       1 SER1        0.0000 
      7 OG        -82.3700   23.6600   44.1700 O.3       1 SER1        0.0000 
      8 OG        -83.6500   24.4400   44.0400 O.3       1 SER1        0.0000 
      9 OG        -87.5600   26.9900   45.7600 O.3       1 SER1        0.0000 
     10 O         -86.5500   22.4000   43.0700 O.2       2 ALA2        0.0000 
     11 O         -85.3600   21.8500   45.3100 O.2       2 ALA2        0.0000 
     12 O         -83.5700   22.0800   46.4200 O.2       2 ALA2        0.0000 
     13 O         -86.1200   23.6400   46.1600 O.2       2 ALA2        0.0000 
     14 N         -87.3900   24.4100   46.0300 N.am      2 ALA2        0.0000 
     15 N         -88.6700   25.1900   45.9000 N.am      2 ALA2        0.0000 
     16 O         -86.7200   22.8500   47.2900 O.2       2 ALA2        0.0000 
     17 N         -87.9900   23.6200   47.1600 N.am      2 ALA2        0.0000 
     18 OD1       -83.0500   23.0900   47.4000 O.co2     3 ASP3        0.0000 
     19 NZ        -84.3300   26.0000   42.7800 N.4       4 LYS4        0.0000 
     20 NZ        -81.8600   24.6700   45.1500 N.4       4 LYS4        0.0000 
     21 NZ        -83.1300   25.4500   45.0200 N.4       4 LYS4        0.0000 
     22 NZ        -82.4500   23.8800   46.2800 N.4       4 LYS4        0.0000 
     23 CA        -84.6800   22.4200   42.0800 C.3       5 GLY6        0.0000 
     24 CA        -85.9600   23.1900   41.9500 C.3       5 GLY6        0.0000 
     25 CA        -83.4900   21.8600   44.3200 C.3       5 GLY6        0.0000 
     26 CA        -86.0400   23.4100   44.0500 C.3       5 GLY6        0.0000 
     27 CA        -86.6300   22.6200   45.1800 C.3       5 GLY6        0.0000 
     28 CA        -87.9100   23.4000   45.0500 C.3       5 GLY6        0.0000 
     29 CA        -82.9700   22.8700   45.3000 C.3       5 GLY6        0.0000 
     30 CA        -84.8400   22.8600   46.2900 C.3       5 GLY6        0.0000 
     31 CA        -83.8100   27.0200   43.7600 C.3       5 GLY6        0.0000 
     32 CA        -85.0900   27.7900   43.6300 C.3       5 GLY6        0.0000 
     33 CA        -84.3300   23.8700   47.2700 C.3       5 GLY6        0.0000 
     34 CA        -86.2000   23.8600   48.2700 C.3       5 GLY6        0.0000 
     35 DU        -85.4400   24.2000   42.9300 H         6 CUB7        0.0000 
     36 DU        -85.6100   26.7800   42.6500 H         6 CUB7        0.0000 
     37 DU        -84.9300   25.2100   43.9100 H         6 CUB7        0.0000 
     38 DU        -84.2500   23.6500   45.1700 H         6 CUB7        0.0000 
     39 DU        -85.5200   24.4200   45.0400 H         6 CUB7        0.0000 
     40 DU        -86.8000   25.2000   44.9100 H         6 CUB7        0.0000 
     41 DU        -84.4100   26.2300   44.8900 H         6 CUB7        0.0000 
     42 DU        -85.6900   27.0000   44.7600 H         6 CUB7        0.0000 
     43 DU        -83.7300   24.6600   46.1500 H         6 CUB7        0.0000 
     44 DU        -86.2800   26.2100   45.8900 H         6 CUB7        0.0000 
     45 DU        -85.6000   24.6500   47.1400 H         6 CUB7        0.0000 
     46 DU        -86.8800   25.4200   47.0100 H         6 CUB7        0.0000 
     47 DU        -88.1600   26.2000   46.8800 H         6 CUB7        0.0000 
@<TRIPOS>BOND
@<TRIPOS>SUBSTRUCTURE
     1 SER1        1 GROUP   
     2 ALA2       10 GROUP   
     3 ASP3       18 GROUP   
     4 LYS4       19 GROUP   
     5 GLY6       23 GROUP   
     6 CUB7       35 GROUP   
@<TRIPOS>SET

