#    Name: 6gr2_8_ADP_CAVITY_N1_6
#    Modification time : Fri May 22 19:27:31 2020

@<TRIPOS>MOLECULE
6gr2_8_ADP_CAVITY_N1_6
   72     0     6     0     0
SMALL
NO_CHARGES


@<TRIPOS>ATOM
      1 OG        -51.6800   43.4200  -17.5600 O.3       1 SER1        0.0000 
      2 OG        -51.1600   44.4300  -16.5800 O.3       1 SER1        0.0000 
      3 OG        -47.2500   39.7400  -13.8000 O.3       1 SER1        0.0000 
      4 OG        -46.7300   40.7500  -12.8200 O.3       1 SER1        0.0000 
      5 OG        -46.2200   41.7600  -11.8400 O.3       1 SER1        0.0000 
      6 OG        -45.7000   42.7800  -10.8600 O.3       1 SER1        0.0000 
      7 O         -47.0900   39.3000  -18.0200 O.2       2 ALA2        0.0000 
      8 O         -45.3000   39.5300  -16.9100 O.2       2 ALA2        0.0000 
      9 O         -46.5700   40.3100  -17.0400 O.2       2 ALA2        0.0000 
     10 N         -46.1400   43.6800  -18.4400 N.am      2 ALA2        0.0000 
     11 O         -45.4600   42.1100  -17.1800 O.2       2 ALA2        0.0000 
     12 O         -46.7400   42.8900  -17.3200 O.2       2 ALA2        0.0000 
     13 N         -48.0100   43.6700  -17.4500 N.am      2 ALA2        0.0000 
     14 N         -46.9000   45.4700  -17.5900 N.am      2 ALA2        0.0000 
     15 O         -46.2200   43.9000  -16.3300 O.2       2 ALA2        0.0000 
     16 O         -44.8600   40.7700  -13.8200 O.2       2 ALA2        0.0000 
     17 N         -46.9800   45.6900  -15.4800 N.am      2 ALA2        0.0000 
     18 O         -45.0200   43.3400  -14.1000 O.2       2 ALA2        0.0000 
     19 O         -44.3400   41.7800  -12.8400 O.2       2 ALA2        0.0000 
     20 O         -44.9400   40.9900  -11.7100 O.2       2 ALA2        0.0000 
     21 O         -45.1100   43.5700  -11.9900 O.2       2 ALA2        0.0000 
     22 NZ        -46.4100   37.7300  -16.7600 N.4       3 LYS4        0.0000 
     23 NZ        -45.8900   38.7400  -15.7800 N.4       3 LYS4        0.0000 
     24 NZ        -47.7600   38.7300  -14.7800 N.4       3 LYS4        0.0000 
     25 NZ        -45.3800   39.7500  -14.8000 N.4       3 LYS4        0.0000 
     26 NZ        -45.9700   38.9700  -13.6700 N.4       3 LYS4        0.0000 
     27 NZ        -47.8400   38.9500  -12.6800 N.4       3 LYS4        0.0000 
     28 CZ        -47.6800   38.5100  -16.8900 C.ar      4 PHE5        0.0000 
     29 CZ        -48.9600   39.2900  -17.0200 C.ar      4 PHE5        0.0000 
     30 CA        -50.2400   40.0700  -17.1500 C.3       5 GLY6        0.0000 
     31 CA        -48.2800   37.7200  -15.7600 C.3       5 GLY6        0.0000 
     32 CA        -49.5600   38.5000  -15.9000 C.3       5 GLY6        0.0000 
     33 CA        -47.2500   41.8800  -18.3000 C.3       5 GLY6        0.0000 
     34 CA        -48.5300   42.6600  -18.4300 C.3       5 GLY6        0.0000 
     35 CA        -47.8500   41.0900  -17.1700 C.3       5 GLY6        0.0000 
     36 CA        -50.4000   42.6400  -17.4300 C.3       5 GLY6        0.0000 
     37 CA        -48.4400   40.3000  -16.0400 C.3       5 GLY6        0.0000 
     38 CA        -49.7200   41.0800  -16.1700 C.3       5 GLY6        0.0000 
     39 CA        -51.0000   41.8500  -16.3000 C.3       5 GLY6        0.0000 
     40 CA        -52.2700   42.6300  -16.4300 C.3       5 GLY6        0.0000 
     41 CA        -49.0400   39.5100  -14.9100 C.3       5 GLY6        0.0000 
     42 CA        -44.7800   40.5400  -15.9300 C.3       5 GLY6        0.0000 
     43 CA        -46.0600   41.3200  -16.0600 C.3       5 GLY6        0.0000 
     44 CA        -49.2000   42.0900  -15.1900 C.3       5 GLY6        0.0000 
     45 CA        -50.4800   42.8700  -15.3200 C.3       5 GLY6        0.0000 
     46 CA        -51.7600   43.6400  -15.4500 C.3       5 GLY6        0.0000 
     47 CA        -48.5200   40.5200  -13.9300 C.3       5 GLY6        0.0000 
     48 CA        -49.8000   41.3000  -14.0600 C.3       5 GLY6        0.0000 
     49 CA        -52.3500   42.8500  -14.3300 C.3       5 GLY6        0.0000 
     50 CA        -45.5400   42.3300  -15.0800 C.3       5 GLY6        0.0000 
     51 CA        -45.4600   39.9800  -12.6900 C.3       5 GLY6        0.0000 
     52 CA        -46.3000   44.1200  -14.2300 C.3       5 GLY6        0.0000 
     53 CA        -45.6200   42.5500  -12.9700 C.3       5 GLY6        0.0000 
     54 CA        -46.9000   43.3300  -13.1000 C.3       5 GLY6        0.0000 
     55 DU        -49.1200   41.8700  -17.3000 H         6 CUB7        0.0000 
     56 DU        -47.1700   39.5200  -15.9100 H         6 CUB7        0.0000 
     57 DU        -49.2900   44.4400  -17.5800 H         6 CUB7        0.0000 
     58 DU        -47.3300   42.1000  -16.1900 H         6 CUB7        0.0000 
     59 DU        -48.6100   42.8800  -16.3200 H         6 CUB7        0.0000 
     60 DU        -49.8800   43.6500  -16.4500 H         6 CUB7        0.0000 
     61 DU        -46.6500   40.5300  -14.9300 H         6 CUB7        0.0000 
     62 DU        -47.9300   41.3100  -15.0600 H         6 CUB7        0.0000 
     63 DU        -47.5000   44.6800  -16.4600 H         6 CUB7        0.0000 
     64 DU        -46.8200   43.1100  -15.2100 H         6 CUB7        0.0000 
     65 DU        -48.0900   43.8900  -15.3400 H         6 CUB7        0.0000 
     66 DU        -46.1400   41.5400  -13.9500 H         6 CUB7        0.0000 
     67 DU        -47.4100   42.3200  -14.0800 H         6 CUB7        0.0000 
     68 DU        -48.6900   43.1000  -14.2100 H         6 CUB7        0.0000 
     69 DU        -48.0100   41.5300  -12.9500 H         6 CUB7        0.0000 
     70 DU        -49.2900   42.3100  -13.0800 H         6 CUB7        0.0000 
     71 DU        -47.4900   42.5400  -11.9700 H         6 CUB7        0.0000 
     72 DU        -48.7700   43.3200  -12.1000 H         6 CUB7        0.0000 
@<TRIPOS>BOND
@<TRIPOS>SUBSTRUCTURE
     1 SER1        1 GROUP   
     2 ALA2        7 GROUP   
     3 LYS4       22 GROUP   
     4 PHE5       28 GROUP   
     5 GLY6       30 GROUP   
     6 CUB7       55 GROUP   
@<TRIPOS>SET

