#    Name: 6gr2_6_ADP
#    Modification time : Fri May 22 19:27:17 2020

@<TRIPOS>MOLECULE
6gr2_6_ADP
   39    41     1     0     1
SMALL
NO_CHARGES


@<TRIPOS>ATOM
      1 PB        -85.0800   21.5210   44.1830 P.3       1 ADP402      0.0000 
      2 O1B       -83.8870   21.8980   43.3440 O.co2     1 ADP402      0.0000 
      3 O2B       -85.5470   20.1010   43.9880 O.co2     1 ADP402      0.0000 
      4 O3B       -84.9630   21.9460   45.6240 O.co2     1 ADP402      0.0000 
      5 PA        -86.0510   23.8730   42.8860 P.3       1 ADP402      0.0000 
      6 O1A       -84.6210   24.2870   43.0000 O.co2     1 ADP402      0.0000 
      7 O2A       -87.0970   24.7880   43.4540 O.co2     1 ADP402      0.0000 
      8 O3A       -86.2850   22.4200   43.5960 O.3       1 ADP402      0.0000 
      9 O5'       -86.3900   23.6230   41.3410 O.3       1 ADP402      0.0000 
     10 C5'       -86.4780   22.2950   40.8050 C.3       1 ADP402      0.0000 
     11 C4'       -87.0620   22.6350   39.4220 C.3       1 ADP402      0.0000 
     12 O4'       -86.0370   22.3780   38.4190 O.3       1 ADP402      0.0000 
     13 C3'       -88.4750   22.1050   39.0480 C.3       1 ADP402      0.0000 
     14 O3'       -89.4630   23.1750   39.1000 O.3       1 ADP402      0.0000 
     15 C2'       -88.1210   21.6130   37.6320 C.3       1 ADP402      0.0000 
     16 O2'       -88.7960   22.4030   36.6640 O.3       1 ADP402      0.0000 
     17 C1'       -86.6020   21.6960   37.3130 C.3       1 ADP402      0.0000 
     18 N9        -86.1920   20.2800   37.2410 N.pl3     1 ADP402      0.0000 
     19 C8        -85.5530   19.6780   38.2540 C.2       1 ADP402      0.0000 
     20 N7        -85.3280   18.3670   37.9800 N.2       1 ADP402      0.0000 
     21 C5        -85.8350   18.0940   36.7680 C.ar      1 ADP402      0.0000 
     22 C6        -85.9160   16.8820   35.9110 C.ar      1 ADP402      0.0000 
     23 N6        -85.3940   15.7000   36.3300 N.pl3     1 ADP402      0.0000 
     24 N1        -86.5250   17.0010   34.7110 N.ar      1 ADP402      0.0000 
     25 C2        -87.0410   18.1760   34.2970 C.ar      1 ADP402      0.0000 
     26 N3        -86.9940   19.3120   35.0370 N.ar      1 ADP402      0.0000 
     27 C4        -86.4110   19.3580   36.2680 C.ar      1 ADP402      0.0000 
     28 H5'1      -87.1370   21.6510   41.3910 H         1 ADP402      0.0000 
     29 H5'2      -85.5030   21.8060   40.7390 H         1 ADP402      0.0000 
     30 H4'       -87.3090   23.7050   39.4620 H         1 ADP402      0.0000 
     31 H3'       -88.9410   21.3490   39.6950 H         1 ADP402      0.0000 
     32 HO3'      -89.1950   23.8910   38.5080 H         1 ADP402      0.0000 
     33 H2'       -88.4330   20.5600   37.5920 H         1 ADP402      0.0000 
     34 HO2'      -88.6160   23.3390   36.8290 H         1 ADP402      0.0000 
     35 H1'       -86.3190   22.2210   36.3900 H         1 ADP402      0.0000 
     36 H8        -85.2560   20.1720   39.1710 H         1 ADP402      0.0000 
     37 HN61      -85.4560   14.8830   35.7380 H         1 ADP402      0.0000 
     38 HN62      -84.9440   15.6370   37.2320 H         1 ADP402      0.0000 
     39 H2        -87.5160   18.2150   33.3250 H         1 ADP402      0.0000 
@<TRIPOS>BOND
     1    1    2 ar   
     2    1    3 ar   
     3    1    4 ar   
     4    1    8 1    
     5    5    6 ar   
     6    5    7 ar   
     7    5    8 1    
     8    5    9 1    
     9    9   10 1    
    10   10   11 1    
    11   10   28 1    
    12   10   29 1    
    13   11   12 1    
    14   11   13 1    
    15   11   30 1    
    16   12   17 1    
    17   13   14 1    
    18   13   15 1    
    19   13   31 1    
    20   14   32 1    
    21   15   16 1    
    22   15   17 1    
    23   15   33 1    
    24   16   34 1    
    25   17   18 1    
    26   17   35 1    
    27   18   19 1    
    28   18   27 1    
    29   19   20 2    
    30   19   36 1    
    31   20   21 1    
    32   21   22 ar   
    33   21   27 ar   
    34   22   23 1    
    35   22   24 ar   
    36   23   37 1    
    37   23   38 1    
    38   24   25 ar   
    39   25   26 ar   
    40   25   39 1    
    41   26   27 ar   
@<TRIPOS>SUBSTRUCTURE
     1 ADP402      1 GROUP   
@<TRIPOS>SET
ATOM$ORANGE STATIC     ATOMS   COLORGROUP SYSTEM 
20 10 10 11 11 13 13 15 15 17 17 19 19 21 21 22 22 25 \
25 27 27 

