#    Name: 6gr2_4_ADP
#    Modification time : Fri May 22 19:27:10 2020

@<TRIPOS>MOLECULE
6gr2_4_ADP
   39    41     1     0     1
SMALL
NO_CHARGES


@<TRIPOS>ATOM
      1 PB        -50.3580  -50.2120    0.7990 P.3       1 ADP402      0.0000 
      2 O1B       -50.9720  -51.1010   -0.2680 O.co2     1 ADP402      0.0000 
      3 O2B       -49.7980  -48.9270    0.2660 O.co2     1 ADP402      0.0000 
      4 O3B       -51.1280  -49.9780    2.0700 O.co2     1 ADP402      0.0000 
      5 PA        -47.6090  -50.8270    0.6650 P.3       1 ADP402      0.0000 
      6 O1A       -47.6830  -50.2050   -0.7100 O.co2     1 ADP402      0.0000 
      7 O2A       -46.6970  -51.9970    1.0190 O.co2     1 ADP402      0.0000 
      8 O3A       -49.0410  -50.9210    1.3870 O.3       1 ADP402      0.0000 
      9 O5'       -47.1280  -49.5990    1.5510 O.3       1 ADP402      0.0000 
     10 C5'       -47.2810  -49.6540    2.9650 C.3       1 ADP402      0.0000 
     11 C4'       -45.9890  -49.1260    3.5780 C.3       1 ADP402      0.0000 
     12 O4'       -46.0490  -47.6740    3.6680 O.3       1 ADP402      0.0000 
     13 C3'       -45.6400  -49.7380    4.9290 C.3       1 ADP402      0.0000 
     14 O3'       -44.4870  -50.5890    4.7950 O.3       1 ADP402      0.0000 
     15 C2'       -45.3290  -48.4550    5.7080 C.3       1 ADP402      0.0000 
     16 O2'       -43.9450  -48.4780    6.0290 O.3       1 ADP402      0.0000 
     17 C1'       -45.6700  -47.1510    4.9470 C.3       1 ADP402      0.0000 
     18 N9        -46.7900  -46.4190    5.5730 N.pl3     1 ADP402      0.0000 
     19 C8        -48.0080  -46.1730    5.0530 C.2       1 ADP402      0.0000 
     20 N7        -48.7590  -45.4430    5.9290 N.2       1 ADP402      0.0000 
     21 C5        -47.9930  -45.1840    7.0100 C.ar      1 ADP402      0.0000 
     22 C6        -48.1480  -44.4660    8.3000 C.ar      1 ADP402      0.0000 
     23 N6        -49.3200  -43.8600    8.6160 N.pl3     1 ADP402      0.0000 
     24 N1        -47.0890  -44.4370    9.1490 N.ar      1 ADP402      0.0000 
     25 C2        -45.9180  -45.0350    8.8510 C.ar      1 ADP402      0.0000 
     26 N3        -45.7170  -45.7020    7.6970 N.ar      1 ADP402      0.0000 
     27 C4        -46.6840  -45.7940    6.7470 C.ar      1 ADP402      0.0000 
     28 H5'1      -47.4650  -50.6800    3.2900 H         1 ADP402      0.0000 
     29 H5'2      -48.1300  -49.0450    3.2810 H         1 ADP402      0.0000 
     30 H4'       -45.1750  -49.4260    2.9030 H         1 ADP402      0.0000 
     31 H3'       -46.4000  -50.3810    5.3940 H         1 ADP402      0.0000 
     32 HO3'      -44.2770  -50.7030    3.8580 H         1 ADP402      0.0000 
     33 H2'       -45.9620  -48.4420    6.6070 H         1 ADP402      0.0000 
     34 HO2'      -43.7460  -49.2720    6.5440 H         1 ADP402      0.0000 
     35 H1'       -44.8400  -46.4300    4.9300 H         1 ADP402      0.0000 
     36 H8        -48.3440  -46.5060    4.0790 H         1 ADP402      0.0000 
     37 HN61      -49.4160  -43.3740    9.4960 H         1 ADP402      0.0000 
     38 HN62      -50.0960  -43.8940    7.9710 H         1 ADP402      0.0000 
     39 H2        -45.1070  -44.9760    9.5670 H         1 ADP402      0.0000 
@<TRIPOS>BOND
     1    1    2 ar   
     2    1    3 ar   
     3    1    4 ar   
     4    1    8 1    
     5    5    6 ar   
     6    5    7 ar   
     7    5    8 1    
     8    5    9 1    
     9    9   10 1    
    10   10   11 1    
    11   10   28 1    
    12   10   29 1    
    13   11   12 1    
    14   11   13 1    
    15   11   30 1    
    16   12   17 1    
    17   13   14 1    
    18   13   15 1    
    19   13   31 1    
    20   14   32 1    
    21   15   16 1    
    22   15   17 1    
    23   15   33 1    
    24   16   34 1    
    25   17   18 1    
    26   17   35 1    
    27   18   19 1    
    28   18   27 1    
    29   19   20 2    
    30   19   36 1    
    31   20   21 1    
    32   21   22 ar   
    33   21   27 ar   
    34   22   23 1    
    35   22   24 ar   
    36   23   37 1    
    37   23   38 1    
    38   24   25 ar   
    39   25   26 ar   
    40   25   39 1    
    41   26   27 ar   
@<TRIPOS>SUBSTRUCTURE
     1 ADP402      1 GROUP   
@<TRIPOS>SET
ATOM$ORANGE STATIC     ATOMS   COLORGROUP SYSTEM 
20 10 10 11 11 13 13 15 15 17 17 19 19 21 21 22 22 25 \
25 27 27 

