#    Name: 6gr2_8_ADP_CAVITY_N1_4
#    Modification time : Fri May 22 19:27:31 2020

@<TRIPOS>MOLECULE
6gr2_8_ADP_CAVITY_N1_4
   42     0     5     0     0
SMALL
NO_CHARGES


@<TRIPOS>ATOM
      1 OG        -47.2500   39.7400  -13.8000 O.3       1 SER1        0.0000 
      2 OG        -46.7300   40.7500  -12.8200 O.3       1 SER1        0.0000 
      3 OG        -46.2200   41.7600  -11.8400 O.3       1 SER1        0.0000 
      4 OG        -45.7000   42.7800  -10.8600 O.3       1 SER1        0.0000 
      5 O         -45.4600   42.1100  -17.1800 O.2       2 ALA2        0.0000 
      6 O         -46.2200   43.9000  -16.3300 O.2       2 ALA2        0.0000 
      7 O         -44.8600   40.7700  -13.8200 O.2       2 ALA2        0.0000 
      8 N         -46.9800   45.6900  -15.4800 N.am      2 ALA2        0.0000 
      9 O         -45.0200   43.3400  -14.1000 O.2       2 ALA2        0.0000 
     10 O         -44.3400   41.7800  -12.8400 O.2       2 ALA2        0.0000 
     11 O         -44.9400   40.9900  -11.7100 O.2       2 ALA2        0.0000 
     12 O         -45.1100   43.5700  -11.9900 O.2       2 ALA2        0.0000 
     13 NZ        -47.7600   38.7300  -14.7800 N.4       3 LYS4        0.0000 
     14 NZ        -45.3800   39.7500  -14.8000 N.4       3 LYS4        0.0000 
     15 NZ        -45.9700   38.9700  -13.6700 N.4       3 LYS4        0.0000 
     16 NZ        -47.8400   38.9500  -12.6800 N.4       3 LYS4        0.0000 
     17 CA        -49.0400   39.5100  -14.9100 C.3       4 GLY6        0.0000 
     18 CA        -44.7800   40.5400  -15.9300 C.3       4 GLY6        0.0000 
     19 CA        -46.0600   41.3200  -16.0600 C.3       4 GLY6        0.0000 
     20 CA        -49.2000   42.0900  -15.1900 C.3       4 GLY6        0.0000 
     21 CA        -50.4800   42.8700  -15.3200 C.3       4 GLY6        0.0000 
     22 CA        -48.5200   40.5200  -13.9300 C.3       4 GLY6        0.0000 
     23 CA        -49.8000   41.3000  -14.0600 C.3       4 GLY6        0.0000 
     24 CA        -45.5400   42.3300  -15.0800 C.3       4 GLY6        0.0000 
     25 CA        -45.4600   39.9800  -12.6900 C.3       4 GLY6        0.0000 
     26 CA        -46.3000   44.1200  -14.2300 C.3       4 GLY6        0.0000 
     27 CA        -45.6200   42.5500  -12.9700 C.3       4 GLY6        0.0000 
     28 CA        -46.9000   43.3300  -13.1000 C.3       4 GLY6        0.0000 
     29 DU        -47.3300   42.1000  -16.1900 H         5 CUB7        0.0000 
     30 DU        -48.6100   42.8800  -16.3200 H         5 CUB7        0.0000 
     31 DU        -46.6500   40.5300  -14.9300 H         5 CUB7        0.0000 
     32 DU        -47.9300   41.3100  -15.0600 H         5 CUB7        0.0000 
     33 DU        -47.5000   44.6800  -16.4600 H         5 CUB7        0.0000 
     34 DU        -46.8200   43.1100  -15.2100 H         5 CUB7        0.0000 
     35 DU        -48.0900   43.8900  -15.3400 H         5 CUB7        0.0000 
     36 DU        -46.1400   41.5400  -13.9500 H         5 CUB7        0.0000 
     37 DU        -47.4100   42.3200  -14.0800 H         5 CUB7        0.0000 
     38 DU        -48.6900   43.1000  -14.2100 H         5 CUB7        0.0000 
     39 DU        -48.0100   41.5300  -12.9500 H         5 CUB7        0.0000 
     40 DU        -49.2900   42.3100  -13.0800 H         5 CUB7        0.0000 
     41 DU        -47.4900   42.5400  -11.9700 H         5 CUB7        0.0000 
     42 DU        -48.7700   43.3200  -12.1000 H         5 CUB7        0.0000 
@<TRIPOS>BOND
@<TRIPOS>SUBSTRUCTURE
     1 SER1        1 GROUP   
     2 ALA2        5 GROUP   
     3 LYS4       13 GROUP   
     4 GLY6       17 GROUP   
     5 CUB7       29 GROUP   
@<TRIPOS>SET

