#    Name: 6gr2_7_ADP_CAVITY_N1_ALL
#    Modification time : Fri May 22 19:27:25 2020

@<TRIPOS>MOLECULE
6gr2_7_ADP_CAVITY_N1_ALL
   87     0     7     0     0
SMALL
NO_CHARGES


@<TRIPOS>ATOM
      1 OG        -74.9100  -14.4600  -14.5100 O.3       1 SER1        0.0000 
      2 OG        -75.5100  -15.2500  -13.3900 O.3       1 SER1        0.0000 
      3 OG        -74.4000  -13.4500  -13.5300 O.3       1 SER1        0.0000 
      4 OG        -75.6700  -12.6700  -13.6600 O.3       1 SER1        0.0000 
      5 OG        -76.2700  -13.4600  -12.5400 O.3       1 SER1        0.0000 
      6 OG        -78.8200  -11.9000  -12.8000 O.3       1 SER1        0.0000 
      7 OG        -79.4200  -12.6900  -11.6700 O.3       1 SER1        0.0000 
      8 OG        -73.2900  -11.6500  -13.6800 O.3       1 SER1        0.0000 
      9 OG        -73.8800  -12.4400  -12.5500 O.3       1 SER1        0.0000 
     10 OG        -77.0300  -11.6700  -11.6900 O.3       1 SER1        0.0000 
     11 OG        -72.7700  -10.6400  -12.7000 O.3       1 SER1        0.0000 
     12 OG        -74.6400  -10.6500  -11.7000 O.3       1 SER1        0.0000 
     13 O         -75.3500  -15.6900  -17.6000 O.2       2 ALA2        0.0000 
     14 N         -74.3200  -11.5300  -20.1300 N.am      2 ALA2        0.0000 
     15 O         -74.9200  -12.3200  -19.0100 O.2       2 ALA2        0.0000 
     16 N         -76.1900  -11.5400  -19.1400 N.am      2 ALA2        0.0000 
     17 N         -77.4700  -10.7700  -19.2700 N.am      2 ALA2        0.0000 
     18 O         -74.2400  -13.8900  -17.7500 O.2       2 ALA2        0.0000 
     19 O         -75.5100  -13.1100  -17.8800 O.2       2 ALA2        0.0000 
     20 N         -75.0800   -9.7400  -19.2800 N.am      2 ALA2        0.0000 
     21 N         -76.3600   -8.9700  -19.4100 N.am      2 ALA2        0.0000 
     22 O         -73.0400  -14.4500  -15.5100 O.2       2 ALA2        0.0000 
     23 N         -73.2900   -9.5100  -18.1700 N.am      2 ALA2        0.0000 
     24 N         -74.5600   -8.7300  -18.3000 N.am      2 ALA2        0.0000 
     25 O         -73.8800  -10.3000  -17.0400 O.2       2 ALA2        0.0000 
     26 N         -75.1600   -9.5200  -17.1800 N.am      2 ALA2        0.0000 
     27 O         -73.2000  -11.8700  -15.7900 O.2       2 ALA2        0.0000 
     28 O         -74.4800  -11.0900  -15.9200 O.2       2 ALA2        0.0000 
     29 O         -72.5300  -13.4300  -14.5300 O.2       2 ALA2        0.0000 
     30 O         -72.6900  -10.8600  -14.8100 O.2       2 ALA2        0.0000 
     31 O         -72.0100  -12.4200  -13.5500 O.2       2 ALA2        0.0000 
     32 O         -74.0500   -9.8600  -12.8300 O.2       2 ALA2        0.0000 
     33 OD1       -73.5600  -15.4600  -16.4900 O.co2     3 ASP3        0.0000 
     34 NZ        -75.9400  -16.4800  -16.4800 N.4       4 LYS4        0.0000 
     35 NZ        -75.4300  -15.4700  -15.4900 N.4       4 LYS4        0.0000 
     36 NZ        -76.0300  -16.2600  -14.3700 N.4       4 LYS4        0.0000 
     37 NZ        -77.3000  -15.4800  -14.5000 N.4       4 LYS4        0.0000 
     38 NZ        -76.7900  -14.4700  -13.5200 N.4       4 LYS4        0.0000 
     39 NZ        -77.5500  -12.6800  -12.6700 N.4       4 LYS4        0.0000 
     40 NZ        -78.1400  -13.4700  -11.5400 N.4       4 LYS4        0.0000 
     41 CZ        -79.1800  -13.3600  -17.9900 C.ar      5 PHE5        0.0000 
     42 CA        -77.3000  -13.3400  -18.9900 C.3       6 GLY6        0.0000 
     43 CA        -76.6200  -14.9100  -17.7300 C.3       6 GLY6        0.0000 
     44 CA        -77.9000  -14.1300  -17.8600 C.3       6 GLY6        0.0000 
     45 CA        -80.4500  -12.5800  -18.1200 C.3       6 GLY6        0.0000 
     46 CA        -77.2200  -15.7000  -16.6100 C.3       6 GLY6        0.0000 
     47 CA        -78.5000  -14.9200  -16.7400 C.3       6 GLY6        0.0000 
     48 CA        -77.8200  -16.4900  -15.4800 C.3       6 GLY6        0.0000 
     49 CA        -73.6400  -13.1000  -18.8800 C.3       6 GLY6        0.0000 
     50 CA        -77.9800  -13.9100  -15.7600 C.3       6 GLY6        0.0000 
     51 CA        -79.2600  -13.1400  -15.8900 C.3       6 GLY6        0.0000 
     52 CA        -78.5800  -14.7000  -14.6300 C.3       6 GLY6        0.0000 
     53 CA        -73.8000  -10.5200  -19.1500 C.3       6 GLY6        0.0000 
     54 CA        -74.4000  -11.3100  -18.0300 C.3       6 GLY6        0.0000 
     55 CA        -73.7200  -12.8800  -16.7700 C.3       6 GLY6        0.0000 
     56 CA        -75.0000  -12.1000  -16.9000 C.3       6 GLY6        0.0000 
     57 CA        -73.6400  -15.2300  -14.3800 C.3       6 GLY6        0.0000 
     58 CA        -78.7400  -12.1200  -14.9100 C.3       6 GLY6        0.0000 
     59 CA        -78.0600  -13.6900  -13.6500 C.3       6 GLY6        0.0000 
     60 CA        -79.3400  -12.9100  -13.7800 C.3       6 GLY6        0.0000 
     61 CA        -80.6100  -12.1400  -13.9100 C.3       6 GLY6        0.0000 
     62 CA        -80.6900  -11.9200  -11.8000 C.3       6 GLY6        0.0000 
     63 CA        -73.9700  -10.0800  -14.9400 C.3       6 GLY6        0.0000 
     64 CA        -74.5600  -10.8700  -13.8100 C.3       6 GLY6        0.0000 
     65 CA        -75.8400  -10.0900  -13.9400 C.3       6 GLY6        0.0000 
     66 CA        -75.1600  -11.6600  -12.6800 C.3       6 GLY6        0.0000 
     67 CA        -75.7500  -12.4500  -11.5600 C.3       6 GLY6        0.0000 
     68 DU        -76.7900  -12.3300  -18.0100 H         7 CUB7        0.0000 
     69 DU        -78.0600  -11.5600  -18.1400 H         7 CUB7        0.0000 
     70 DU        -74.8300  -14.6800  -16.6200 H         7 CUB7        0.0000 
     71 DU        -76.1100  -13.9000  -16.7500 H         7 CUB7        0.0000 
     72 DU        -77.3800  -13.1200  -16.8800 H         7 CUB7        0.0000 
     73 DU        -78.6600  -12.3500  -17.0100 H         7 CUB7        0.0000 
     74 DU        -76.7000  -14.6900  -15.6300 H         7 CUB7        0.0000 
     75 DU        -75.6800  -10.5300  -18.1600 H         7 CUB7        0.0000 
     76 DU        -74.3200  -13.6700  -15.6400 H         7 CUB7        0.0000 
     77 DU        -75.5900  -12.8900  -15.7700 H         7 CUB7        0.0000 
     78 DU        -76.1900  -13.6800  -14.6400 H         7 CUB7        0.0000 
     79 DU        -77.4700  -12.9000  -14.7700 H         7 CUB7        0.0000 
     80 DU        -75.7600  -10.3100  -16.0500 H         7 CUB7        0.0000 
     81 DU        -73.8000  -12.6600  -14.6600 H         7 CUB7        0.0000 
     82 DU        -75.0800  -11.8800  -14.7900 H         7 CUB7        0.0000 
     83 DU        -76.3500  -11.1000  -14.9200 H         7 CUB7        0.0000 
     84 DU        -76.9500  -11.8900  -13.7900 H         7 CUB7        0.0000 
     85 DU        -78.2300  -11.1100  -13.9200 H         7 CUB7        0.0000 
     86 DU        -76.4300  -10.8800  -12.8100 H         7 CUB7        0.0000 
     87 DU        -75.9200   -9.8700  -11.8300 H         7 CUB7        0.0000 
@<TRIPOS>BOND
@<TRIPOS>SUBSTRUCTURE
     1 SER1        1 GROUP   
     2 ALA2       13 GROUP   
     3 ASP3       33 GROUP   
     4 LYS4       34 GROUP   
     5 PHE5       41 GROUP   
     6 GLY6       42 GROUP   
     7 CUB7       68 GROUP   
@<TRIPOS>SET

