#    Name: 6muj_2_IMD_CAVITY_N1_12
#    Modification time : Fri May 22 19:24:29 2020

@<TRIPOS>MOLECULE
6muj_2_IMD_CAVITY_N1_12
   91     0     7     0     0
SMALL
NO_CHARGES


@<TRIPOS>ATOM
      1 OG         29.8900  -68.1000  -44.6800 O.3       1 SER1        0.0000 
      2 OG         29.9500  -68.8900  -42.7100 O.3       1 SER1        0.0000 
      3 OG         30.9500  -69.6900  -41.9200 O.3       1 SER1        0.0000 
      4 OG         28.5800  -66.0300  -43.8000 O.3       1 SER1        0.0000 
      5 OG         29.5800  -66.8300  -43.0100 O.3       1 SER1        0.0000 
      6 OG         28.6500  -66.8200  -41.8300 O.3       1 SER1        0.0000 
      7 OG         31.5100  -67.6200  -43.4000 O.3       1 SER1        0.0000 
      8 OG         30.5800  -67.6200  -42.2200 O.3       1 SER1        0.0000 
      9 OG         29.6500  -67.6200  -41.0400 O.3       1 SER1        0.0000 
     10 OG         28.7200  -67.6100  -39.8700 O.3       1 SER1        0.0000 
     11 OG         31.5800  -68.4100  -41.4300 O.3       1 SER1        0.0000 
     12 OG         30.6500  -68.4100  -40.2500 O.3       1 SER1        0.0000 
     13 N          25.1700  -67.2900  -40.7600 N.am      2 ALA2        0.0000 
     14 N          21.8700  -63.6400  -41.4600 N.am      2 ALA2        0.0000 
     15 N          22.8700  -64.4300  -40.6700 N.am      2 ALA2        0.0000 
     16 N          21.9400  -64.4300  -39.5000 N.am      2 ALA2        0.0000 
     17 O          22.9400  -65.2200  -38.7100 O.2       2 ALA2        0.0000 
     18 N          33.5000  -69.2100  -41.8200 N.am      2 ALA2        0.0000 
     19 N          32.5700  -69.2100  -40.6400 N.am      2 ALA2        0.0000 
     20 N          33.2000  -67.9300  -40.1500 N.am      2 ALA2        0.0000 
     21 O          24.1200  -61.8900  -39.6900 O.2       2 ALA2        0.0000 
     22 N          25.1200  -62.6800  -38.9000 N.am      2 ALA2        0.0000 
     23 N          24.1900  -62.6800  -37.7300 N.am      2 ALA2        0.0000 
     24 N          27.9700  -63.4800  -40.4700 N.am      2 ALA2        0.0000 
     25 N          26.1100  -63.4700  -38.1100 N.am      2 ALA2        0.0000 
     26 N          25.1800  -63.4700  -36.9400 N.am      2 ALA2        0.0000 
     27 OD1        22.8000  -63.6400  -42.6400 O.co2     3 ASP3        0.0000 
     28 OD1        24.7300  -64.4400  -43.0300 O.co2     3 ASP3        0.0000 
     29 OD1        26.6600  -65.2400  -43.4100 O.co2     3 ASP3        0.0000 
     30 OD1        24.8600  -66.0200  -39.0900 O.co2     3 ASP3        0.0000 
     31 OD1        25.8600  -66.8100  -38.3000 O.co2     3 ASP3        0.0000 
     32 OD1        23.4300  -62.3700  -42.1500 O.co2     3 ASP3        0.0000 
     33 OD1        26.2800  -63.1700  -43.7100 O.co2     3 ASP3        0.0000 
     34 OD1        25.3500  -63.1700  -42.5400 O.co2     3 ASP3        0.0000 
     35 OD1        24.4200  -63.1600  -41.3600 O.co2     3 ASP3        0.0000 
     36 OD1        25.4900  -64.7500  -38.6000 O.co2     3 ASP3        0.0000 
     37 OD1        24.5600  -64.7400  -37.4300 O.co2     3 ASP3        0.0000 
     38 OD1        23.6300  -64.7400  -36.2500 O.co2     3 ASP3        0.0000 
     39 OD1        28.3500  -65.5500  -40.1700 O.co2     3 ASP3        0.0000 
     40 OD1        27.4200  -65.5400  -38.9900 O.co2     3 ASP3        0.0000 
     41 OD1        26.4900  -65.5400  -37.8100 O.co2     3 ASP3        0.0000 
     42 OD1        26.9100  -61.9000  -43.2300 O.co2     3 ASP3        0.0000 
     43 OD1        24.2500  -63.4700  -35.7600 O.co2     3 ASP3        0.0000 
     44 OD1        26.1800  -64.2600  -36.1500 O.co2     3 ASP3        0.0000 
     45 NZ         22.1200  -60.3000  -41.2700 N.4       4 LYS4        0.0000 
     46 NZ         24.0500  -61.1000  -41.6600 N.4       4 LYS4        0.0000 
     47 NZ         23.1200  -61.0900  -40.4800 N.4       4 LYS4        0.0000 
     48 NZ         25.9800  -61.8900  -42.0500 N.4       4 LYS4        0.0000 
     49 NZ         25.0500  -61.8900  -40.8700 N.4       4 LYS4        0.0000 
     50 CZ         30.2600  -70.1700  -44.3800 C.ar      5 PHE5        0.0000 
     51 CZ         27.1000  -68.0900  -41.1500 C.ar      5 PHE5        0.0000 
     52 CZ         27.6500  -66.0300  -42.6200 C.ar      5 PHE5        0.0000 
     53 CZ         27.7200  -66.8200  -40.6600 C.ar      5 PHE5        0.0000 
     54 CZ         26.7900  -66.8200  -39.4800 C.ar      5 PHE5        0.0000 
     55 CZ         27.7900  -67.6100  -38.6900 C.ar      5 PHE5        0.0000 
     56 CZ         32.5100  -68.4200  -42.6100 C.ar      5 PHE5        0.0000 
     57 CZ         27.2800  -63.9600  -42.9200 C.ar      5 PHE5        0.0000 
     58 CZ         28.2800  -64.7600  -42.1300 C.ar      5 PHE5        0.0000 
     59 CZ         27.3500  -64.7500  -40.9600 C.ar      5 PHE5        0.0000 
     60 CZ         33.1300  -67.1400  -42.1200 C.ar      5 PHE5        0.0000 
     61 CZ         27.9000  -62.6900  -42.4300 C.ar      5 PHE5        0.0000 
     62 CA         29.3300  -70.1600  -43.2000 C.3       6 GLY6        0.0000 
     63 CA         27.0300  -67.3000  -43.1100 C.3       6 GLY6        0.0000 
     64 CA         26.1000  -67.3000  -41.9400 C.3       6 GLY6        0.0000 
     65 CA         28.9600  -68.1000  -43.5000 C.3       6 GLY6        0.0000 
     66 CA         28.0300  -68.1000  -42.3200 C.3       6 GLY6        0.0000 
     67 CA         30.8800  -68.9000  -43.8900 C.3       6 GLY6        0.0000 
     68 CA         31.8800  -69.6900  -43.1000 C.3       6 GLY6        0.0000 
     69 CA         23.8700  -65.2200  -39.8800 C.3       6 GLY6        0.0000 
     70 CA         21.5000  -61.5700  -41.7600 C.3       6 GLY6        0.0000 
     71 CA         29.2800  -65.5500  -41.3400 C.3       6 GLY6        0.0000 
     72 CA         32.2000  -67.1400  -40.9400 C.3       6 GLY6        0.0000 
     73 CA         31.2700  -67.1400  -39.7600 C.3       6 GLY6        0.0000 
     74 CA         26.9700  -62.6900  -41.2600 C.3       6 GLY6        0.0000 
     75 CA         26.0500  -62.6800  -40.0800 C.3       6 GLY6        0.0000 
     76 CA         27.0400  -63.4800  -39.2900 C.3       6 GLY6        0.0000 
     77 DU         23.8000  -64.4300  -41.8500 H         7 CUB7        0.0000 
     78 DU         25.7300  -65.2300  -42.2400 H         7 CUB7        0.0000 
     79 DU         24.8000  -65.2300  -41.0600 H         7 CUB7        0.0000 
     80 DU         26.7200  -66.0300  -41.4500 H         7 CUB7        0.0000 
     81 DU         25.7900  -66.0200  -40.2700 H         7 CUB7        0.0000 
     82 DU         22.5000  -62.3600  -40.9700 H         7 CUB7        0.0000 
     83 DU         23.4900  -63.1600  -40.1800 H         7 CUB7        0.0000 
     84 DU         22.5600  -63.1600  -39.0100 H         7 CUB7        0.0000 
     85 DU         26.3500  -63.9600  -41.7500 H         7 CUB7        0.0000 
     86 DU         25.4200  -63.9600  -40.5700 H         7 CUB7        0.0000 
     87 DU         24.4900  -63.9500  -39.3900 H         7 CUB7        0.0000 
     88 DU         23.5600  -63.9500  -38.2200 H         7 CUB7        0.0000 
     89 DU         22.6300  -63.9500  -37.0400 H         7 CUB7        0.0000 
     90 DU         26.4200  -64.7500  -39.7800 H         7 CUB7        0.0000 
     91 DU         23.2600  -62.6700  -36.5500 H         7 CUB7        0.0000 
@<TRIPOS>BOND
@<TRIPOS>SUBSTRUCTURE
     1 SER1        1 GROUP   
     2 ALA2       13 GROUP   
     3 ASP3       27 GROUP   
     4 LYS4       45 GROUP   
     5 PHE5       50 GROUP   
     6 GLY6       62 GROUP   
     7 CUB7       77 GROUP   
@<TRIPOS>SET

