#    Name: 6muj_2_IMD_CAVITY_N1_6
#    Modification time : Fri May 22 19:24:29 2020

@<TRIPOS>MOLECULE
6muj_2_IMD_CAVITY_N1_6
   54     0     6     0     0
SMALL
NO_CHARGES


@<TRIPOS>ATOM
      1 OG         29.8900  -68.1000  -44.6800 O.3       1 SER1        0.0000 
      2 OG         29.9500  -68.8900  -42.7100 O.3       1 SER1        0.0000 
      3 OG         30.9500  -69.6900  -41.9200 O.3       1 SER1        0.0000 
      4 OG         28.5800  -66.0300  -43.8000 O.3       1 SER1        0.0000 
      5 OG         29.5800  -66.8300  -43.0100 O.3       1 SER1        0.0000 
      6 OG         28.6500  -66.8200  -41.8300 O.3       1 SER1        0.0000 
      7 OG         31.5100  -67.6200  -43.4000 O.3       1 SER1        0.0000 
      8 OG         30.5800  -67.6200  -42.2200 O.3       1 SER1        0.0000 
      9 OG         29.6500  -67.6200  -41.0400 O.3       1 SER1        0.0000 
     10 OG         28.7200  -67.6100  -39.8700 O.3       1 SER1        0.0000 
     11 OG         31.5800  -68.4100  -41.4300 O.3       1 SER1        0.0000 
     12 OG         30.6500  -68.4100  -40.2500 O.3       1 SER1        0.0000 
     13 N          25.1700  -67.2900  -40.7600 N.am      2 ALA2        0.0000 
     14 N          33.5000  -69.2100  -41.8200 N.am      2 ALA2        0.0000 
     15 N          32.5700  -69.2100  -40.6400 N.am      2 ALA2        0.0000 
     16 N          33.2000  -67.9300  -40.1500 N.am      2 ALA2        0.0000 
     17 N          27.9700  -63.4800  -40.4700 N.am      2 ALA2        0.0000 
     18 OD1        26.6600  -65.2400  -43.4100 O.co2     3 ASP3        0.0000 
     19 OD1        25.8600  -66.8100  -38.3000 O.co2     3 ASP3        0.0000 
     20 OD1        26.2800  -63.1700  -43.7100 O.co2     3 ASP3        0.0000 
     21 OD1        28.3500  -65.5500  -40.1700 O.co2     3 ASP3        0.0000 
     22 OD1        27.4200  -65.5400  -38.9900 O.co2     3 ASP3        0.0000 
     23 OD1        26.4900  -65.5400  -37.8100 O.co2     3 ASP3        0.0000 
     24 CZ         30.2600  -70.1700  -44.3800 C.ar      4 PHE5        0.0000 
     25 CZ         27.1000  -68.0900  -41.1500 C.ar      4 PHE5        0.0000 
     26 CZ         27.6500  -66.0300  -42.6200 C.ar      4 PHE5        0.0000 
     27 CZ         27.7200  -66.8200  -40.6600 C.ar      4 PHE5        0.0000 
     28 CZ         26.7900  -66.8200  -39.4800 C.ar      4 PHE5        0.0000 
     29 CZ         27.7900  -67.6100  -38.6900 C.ar      4 PHE5        0.0000 
     30 CZ         32.5100  -68.4200  -42.6100 C.ar      4 PHE5        0.0000 
     31 CZ         27.2800  -63.9600  -42.9200 C.ar      4 PHE5        0.0000 
     32 CZ         28.2800  -64.7600  -42.1300 C.ar      4 PHE5        0.0000 
     33 CZ         27.3500  -64.7500  -40.9600 C.ar      4 PHE5        0.0000 
     34 CZ         33.1300  -67.1400  -42.1200 C.ar      4 PHE5        0.0000 
     35 CZ         27.9000  -62.6900  -42.4300 C.ar      4 PHE5        0.0000 
     36 CA         29.3300  -70.1600  -43.2000 C.3       5 GLY6        0.0000 
     37 CA         27.0300  -67.3000  -43.1100 C.3       5 GLY6        0.0000 
     38 CA         26.1000  -67.3000  -41.9400 C.3       5 GLY6        0.0000 
     39 CA         28.9600  -68.1000  -43.5000 C.3       5 GLY6        0.0000 
     40 CA         28.0300  -68.1000  -42.3200 C.3       5 GLY6        0.0000 
     41 CA         30.8800  -68.9000  -43.8900 C.3       5 GLY6        0.0000 
     42 CA         31.8800  -69.6900  -43.1000 C.3       5 GLY6        0.0000 
     43 CA         29.2800  -65.5500  -41.3400 C.3       5 GLY6        0.0000 
     44 CA         32.2000  -67.1400  -40.9400 C.3       5 GLY6        0.0000 
     45 CA         31.2700  -67.1400  -39.7600 C.3       5 GLY6        0.0000 
     46 CA         26.9700  -62.6900  -41.2600 C.3       5 GLY6        0.0000 
     47 CA         27.0400  -63.4800  -39.2900 C.3       5 GLY6        0.0000 
     48 DU         25.7300  -65.2300  -42.2400 H         6 CUB7        0.0000 
     49 DU         24.8000  -65.2300  -41.0600 H         6 CUB7        0.0000 
     50 DU         26.7200  -66.0300  -41.4500 H         6 CUB7        0.0000 
     51 DU         25.7900  -66.0200  -40.2700 H         6 CUB7        0.0000 
     52 DU         26.3500  -63.9600  -41.7500 H         6 CUB7        0.0000 
     53 DU         25.4200  -63.9600  -40.5700 H         6 CUB7        0.0000 
     54 DU         26.4200  -64.7500  -39.7800 H         6 CUB7        0.0000 
@<TRIPOS>BOND
@<TRIPOS>SUBSTRUCTURE
     1 SER1        1 GROUP   
     2 ALA2       13 GROUP   
     3 ASP3       18 GROUP   
     4 PHE5       24 GROUP   
     5 GLY6       36 GROUP   
     6 CUB7       48 GROUP   
@<TRIPOS>SET

