#    Name: 6muj_2_IMD
#    Modification time : Fri May 22 19:24:29 2020

@<TRIPOS>MOLECULE
6muj_2_IMD
    5     5     1     0     0
SMALL
NO_CHARGES


@<TRIPOS>ATOM
      1 N1         29.8770  -67.5980  -42.2620 N.pl3     1 IMD501      0.0000 
      2 C2         30.4720  -67.5210  -43.4790 C.2       1 IMD501      0.0000 
      3 N3         31.4470  -68.4680  -43.5470 N.2       1 IMD501      0.0000 
      4 C4         31.4650  -69.1370  -42.3640 C.2       1 IMD501      0.0000 
      5 C5         30.4710  -68.5880  -41.5510 C.2       1 IMD501      0.0000 
@<TRIPOS>BOND
     1    1    2 1    
     2    1    5 1    
     3    2    3 2    
     4    3    4 1    
     5    4    5 2    
@<TRIPOS>SUBSTRUCTURE
     1 IMD501      1 GROUP   
@<TRIPOS>SET

