#    Name: 6n9x_2_TTP
#    Modification time : Fri May 22 19:38:12 2020

@<TRIPOS>MOLECULE
6n9x_2_TTP
   29    30     1     0     0
SMALL
NO_CHARGES


@<TRIPOS>ATOM
      1 PA        133.3380  170.2300  183.5220 P.3       1 TTP700      0.0000 
      2 O1A       133.7450  171.5120  182.8410 O.co2     1 TTP700      0.0000 
      3 O2A       133.9670  169.0530  182.8190 O.co2     1 TTP700      0.0000 
      4 O3A       133.8170  170.2620  185.0920 O.3       1 TTP700      0.0000 
      5 PB        135.0320  171.0690  185.8390 P.3       1 TTP700      0.0000 
      6 O1B       135.9520  171.6420  184.7920 O.co2     1 TTP700      0.0000 
      7 O2B       134.4520  172.1600  186.7020 O.co2     1 TTP700      0.0000 
      8 O3B       135.8940  170.0420  186.7770 O.3       1 TTP700      0.0000 
      9 PG        137.4690  169.8450  186.8830 P.3       1 TTP700      0.0000 
     10 O1G       138.0760  170.1310  185.5320 O.co2     1 TTP700      0.0000 
     11 O2G       137.7720  168.4290  187.2990 O.co2     1 TTP700      0.0000 
     12 O3G       138.0190  170.8090  187.9020 O.co2     1 TTP700      0.0000 
     13 O5'       131.7030  170.0850  183.5040 O.3       1 TTP700      0.0000 
     14 C5'       131.0600  170.0390  184.7420 C.3       1 TTP700      0.0000 
     15 C4'       130.0340  168.8900  184.7420 C.3       1 TTP700      0.0000 
     16 O4'       128.8780  169.2710  185.5290 O.3       1 TTP700      0.0000 
     17 C3'       129.5010  168.6740  183.3280 C.3       1 TTP700      0.0000 
     18 O3'       129.0060  167.3100  183.1960 O.3       1 TTP700      0.0000 
     19 C2'       128.3430  169.6460  183.2650 C.3       1 TTP700      0.0000 
     20 C1'       127.7870  169.5840  184.6740 C.3       1 TTP700      0.0000 
     21 N1        127.2570  170.8910  185.0850 N.am      1 TTP700      0.0000 
     22 C2        125.8420  171.0460  185.5030 C.2       1 TTP700      0.0000 
     23 O2        125.1600  170.0790  185.4860 O.2       1 TTP700      0.0000 
     24 N3        125.2540  172.2420  185.9110 N.am      1 TTP700      0.0000 
     25 C4        126.0950  173.2940  185.9030 C.2       1 TTP700      0.0000 
     26 O4        125.6300  174.3850  186.2560 O.2       1 TTP700      0.0000 
     27 C5        127.5290  173.2720  185.5100 C.2       1 TTP700      0.0000 
     28 C5M       128.3730  174.5430  185.5450 C.3       1 TTP700      0.0000 
     29 C6        128.0630  172.0640  185.1130 C.2       1 TTP700      0.0000 
@<TRIPOS>BOND
     1    1    2 ar   
     2    1    3 ar   
     3    1    4 1    
     4    1   13 1    
     5    4    5 1    
     6    5    6 ar   
     7    5    7 ar   
     8    5    8 1    
     9    8    9 1    
    10    9   10 ar   
    11    9   11 ar   
    12    9   12 ar   
    13   13   14 1    
    14   14   15 1    
    15   15   16 1    
    16   15   17 1    
    17   16   20 1    
    18   17   18 1    
    19   17   19 1    
    20   19   20 1    
    21   20   21 1    
    22   21   22 1    
    23   21   29 1    
    24   22   23 2    
    25   22   24 1    
    26   24   25 1    
    27   25   26 2    
    28   25   27 1    
    29   27   28 1    
    30   27   29 2    
@<TRIPOS>SUBSTRUCTURE
     1 TTP700      1 GROUP   
@<TRIPOS>SET

