#    Name: 6n9x_1_TTP
#    Modification time : Fri May 22 19:38:04 2020

@<TRIPOS>MOLECULE
6n9x_1_TTP
   29    30     1     0     0
SMALL
NO_CHARGES


@<TRIPOS>ATOM
      1 PA        134.9340  146.6300  206.9500 P.3       1 TTP602      0.0000 
      2 O1A       133.8030  146.7760  205.9620 O.co2     1 TTP602      0.0000 
      3 O2A       136.0890  145.9160  206.2920 O.co2     1 TTP602      0.0000 
      4 O3A       135.4240  148.1250  207.4240 O.3       1 TTP602      0.0000 
      5 PB        135.8200  149.4560  206.5490 P.3       1 TTP602      0.0000 
      6 O1B       136.4330  149.0120  205.2440 O.co2     1 TTP602      0.0000 
      7 O2B       134.5800  150.2750  206.2930 O.co2     1 TTP602      0.0000 
      8 O3B       136.9190  150.3500  207.3750 O.3       1 TTP602      0.0000 
      9 PG        138.4980  150.1830  207.5090 P.3       1 TTP602      0.0000 
     10 O1G       138.9750  149.2460  206.4270 O.co2     1 TTP602      0.0000 
     11 O2G       138.8330  149.6150  208.8660 O.co2     1 TTP602      0.0000 
     12 O3G       139.1620  151.5260  207.3540 O.co2     1 TTP602      0.0000 
     13 O5'       134.4230  145.7700  208.2580 O.3       1 TTP602      0.0000 
     14 C5'       133.4830  146.3560  209.1130 C.3       1 TTP602      0.0000 
     15 C4'       132.3210  145.3700  209.3500 C.3       1 TTP602      0.0000 
     16 O4'       131.1010  146.0840  209.6090 O.3       1 TTP602      0.0000 
     17 C3'       131.9980  144.6260  208.0630 C.3       1 TTP602      0.0000 
     18 O3'       132.8420  143.4410  207.9560 O.3       1 TTP602      0.0000 
     19 C2'       130.5400  144.2200  208.2570 C.3       1 TTP602      0.0000 
     20 C1'       130.0310  145.2070  209.3070 C.3       1 TTP602      0.0000 
     21 N1        128.9310  146.0190  208.7700 N.am      1 TTP602      0.0000 
     22 C2        127.7960  146.4340  209.6310 C.2       1 TTP602      0.0000 
     23 O2        127.8190  146.0810  210.7590 O.2       1 TTP602      0.0000 
     24 N3        126.7080  147.2050  209.2150 N.am      1 TTP602      0.0000 
     25 C4        126.7600  147.5650  207.9180 C.2       1 TTP602      0.0000 
     26 O4        125.8230  148.2510  207.4860 O.2       1 TTP602      0.0000 
     27 C5        127.8390  147.2160  206.9520 C.2       1 TTP602      0.0000 
     28 C5M       127.7790  147.6890  205.5030 C.3       1 TTP602      0.0000 
     29 C6        128.8920  146.4520  207.4140 C.2       1 TTP602      0.0000 
@<TRIPOS>BOND
     1    1    2 ar   
     2    1    3 ar   
     3    1    4 1    
     4    1   13 1    
     5    4    5 1    
     6    5    6 ar   
     7    5    7 ar   
     8    5    8 1    
     9    8    9 1    
    10    9   10 ar   
    11    9   11 ar   
    12    9   12 ar   
    13   13   14 1    
    14   14   15 1    
    15   15   16 1    
    16   15   17 1    
    17   16   20 1    
    18   17   18 1    
    19   17   19 1    
    20   19   20 1    
    21   20   21 1    
    22   21   22 1    
    23   21   29 1    
    24   22   23 2    
    25   22   24 1    
    26   24   25 1    
    27   25   26 2    
    28   25   27 1    
    29   27   28 1    
    30   27   29 2    
@<TRIPOS>SUBSTRUCTURE
     1 TTP602      1 GROUP   
@<TRIPOS>SET

