#    Name: 6n9x_5_TTP_CAVITY_N1_4
#    Modification time : Fri May 22 19:38:34 2020

@<TRIPOS>MOLECULE
6n9x_5_TTP_CAVITY_N1_4
  129     0     7     0     0
SMALL
NO_CHARGES


@<TRIPOS>ATOM
      1 OG        158.0600  163.9600  102.7000 O.3       1 SER1        0.0000 
      2 OG        150.4500  166.4700  103.6900 O.3       1 SER1        0.0000 
      3 OG        151.9000  166.5400  103.3200 O.3       1 SER1        0.0000 
      4 OG        159.8500  164.4800  103.7300 O.3       1 SER1        0.0000 
      5 OG        161.3000  164.5500  103.3600 O.3       1 SER1        0.0000 
      6 OG        159.6700  165.9100  103.3000 O.3       1 SER1        0.0000 
      7 OG        161.1200  165.9800  102.9400 O.3       1 SER1        0.0000 
      8 OG        162.5800  166.0500  102.5700 O.3       1 SER1        0.0000 
      9 OG        150.7800  166.9200  105.0800 O.3       1 SER1        0.0000 
     10 OG        152.5600  167.4500  106.1100 O.3       1 SER1        0.0000 
     11 OG        154.0100  167.5200  105.7400 O.3       1 SER1        0.0000 
     12 O         156.1100  164.8700  101.2500 O.2       2 ALA2        0.0000 
     13 O         154.4800  166.2300  101.2000 O.2       2 ALA2        0.0000 
     14 O         156.4400  165.3200  102.6500 O.2       2 ALA2        0.0000 
     15 O         157.8900  165.3900  102.2800 O.2       2 ALA2        0.0000 
     16 O         159.5000  167.3400  102.8800 O.2       2 ALA2        0.0000 
     17 O         160.9500  167.4100  102.5200 O.2       2 ALA2        0.0000 
     18 N         165.0400  164.1600  105.8400 N.am      2 ALA2        0.0000 
     19 N         163.2200  170.2600  105.9000 N.am      2 ALA2        0.0000 
     20 OD1       153.2000  164.7300  101.9900 O.co2     3 ASP3        0.0000 
     21 OD1       155.1600  163.8200  103.4400 O.co2     3 ASP3        0.0000 
     22 OD1       152.0800  165.1100  103.7500 O.co2     3 ASP3        0.0000 
     23 OD1       153.5300  165.1800  103.3800 O.co2     3 ASP3        0.0000 
     24 OD1       154.9800  165.2500  103.0100 O.co2     3 ASP3        0.0000 
     25 OD1       155.6600  162.8500  105.2500 O.co2     3 ASP3        0.0000 
     26 OD1       151.1300  164.0700  105.9300 O.co2     3 ASP3        0.0000 
     27 OD1       152.5800  164.1400  105.5600 O.co2     3 ASP3        0.0000 
     28 OD1       154.0300  164.2100  105.1900 O.co2     3 ASP3        0.0000 
     29 OD1       155.4900  164.2700  104.8300 O.co2     3 ASP3        0.0000 
     30 OD1       152.4100  165.5700  105.1400 O.co2     3 ASP3        0.0000 
     31 OD1       153.8600  165.6300  104.7700 O.co2     3 ASP3        0.0000 
     32 OD1       155.3100  165.7000  104.4000 O.co2     3 ASP3        0.0000 
     33 OD1       156.7600  165.7700  104.0400 O.co2     3 ASP3        0.0000 
     34 OD1       158.2200  165.8400  103.6700 O.co2     3 ASP3        0.0000 
     35 OD1       153.0800  163.1600  107.3800 O.co2     3 ASP3        0.0000 
     36 OD1       154.5400  163.2300  107.0100 O.co2     3 ASP3        0.0000 
     37 OD1       158.9000  163.4400  105.9100 O.co2     3 ASP3        0.0000 
     38 OD1       152.9100  164.5900  106.9500 O.co2     3 ASP3        0.0000 
     39 OD1       154.3600  164.6600  106.5900 O.co2     3 ASP3        0.0000 
     40 OD1       155.8200  164.7300  106.2200 O.co2     3 ASP3        0.0000 
     41 OD1       157.2700  164.8000  105.8500 O.co2     3 ASP3        0.0000 
     42 OD1       158.7200  164.8600  105.4900 O.co2     3 ASP3        0.0000 
     43 OD1       155.6400  166.1600  105.8000 O.co2     3 ASP3        0.0000 
     44 OD1       154.8700  163.6800  108.4000 O.co2     3 ASP3        0.0000 
     45 OD1       156.3200  163.7500  108.0300 O.co2     3 ASP3        0.0000 
     46 OD1       159.2300  163.8900  107.3000 O.co2     3 ASP3        0.0000 
     47 OD1       160.6800  163.9600  106.9300 O.co2     3 ASP3        0.0000 
     48 OD1       157.6000  165.2500  107.2400 O.co2     3 ASP3        0.0000 
     49 OD1       159.0500  165.3200  106.8800 O.co2     3 ASP3        0.0000 
     50 OD1       156.6500  164.2000  109.4300 O.co2     3 ASP3        0.0000 
     51 OD1       158.1000  164.2700  109.0600 O.co2     3 ASP3        0.0000 
     52 OD1       165.0200  167.4700  106.3800 O.co2     3 ASP3        0.0000 
     53 OD1       164.8400  168.9000  105.9600 O.co2     3 ASP3        0.0000 
     54 NZ        151.5700  166.0900  101.9300 N.4       4 LYS4        0.0000 
     55 NZ        165.8300  163.3300  102.6900 N.4       4 LYS4        0.0000 
     56 NZ        164.2000  164.6900  102.6300 N.4       4 LYS4        0.0000 
     57 NZ        166.1600  163.7800  104.0800 N.4       4 LYS4        0.0000 
     58 NZ        167.6100  163.8500  103.7100 N.4       4 LYS4        0.0000 
     59 NZ        164.5300  165.1400  104.0200 N.4       4 LYS4        0.0000 
     60 NZ        165.9900  165.2100  103.6500 N.4       4 LYS4        0.0000 
     61 NZ        154.1900  166.0900  106.1600 N.4       4 LYS4        0.0000 
     62 NZ        160.0000  166.3600  104.7000 N.4       4 LYS4        0.0000 
     63 NZ        161.4500  166.4300  104.3300 N.4       4 LYS4        0.0000 
     64 NZ        164.3600  166.5700  103.6000 N.4       4 LYS4        0.0000 
     65 NZ        154.6900  165.1100  107.9800 N.4       4 LYS4        0.0000 
     66 NZ        156.1500  165.1800  107.6100 N.4       4 LYS4        0.0000 
     67 NZ        160.5000  165.3900  106.5100 N.4       4 LYS4        0.0000 
     68 NZ        166.3200  165.6600  105.0500 N.4       4 LYS4        0.0000 
     69 NZ        153.0700  166.4700  107.9200 N.4       4 LYS4        0.0000 
     70 NZ        161.7800  166.8800  105.7200 N.4       4 LYS4        0.0000 
     71 NZ        164.6900  167.0200  104.9900 N.4       4 LYS4        0.0000 
     72 NZ        152.8900  167.9000  107.5000 N.4       4 LYS4        0.0000 
     73 NZ        161.6100  168.3100  105.3000 N.4       4 LYS4        0.0000 
     74 NZ        164.5100  168.4500  104.5700 N.4       4 LYS4        0.0000 
     75 NZ        165.7900  169.9500  103.7800 N.4       4 LYS4        0.0000 
     76 NZ        155.0200  165.5600  109.3700 N.4       4 LYS4        0.0000 
     77 NZ        156.4700  165.6300  109.0000 N.4       4 LYS4        0.0000 
     78 NZ        157.9300  165.7000  108.6400 N.4       4 LYS4        0.0000 
     79 NZ        158.4300  164.7300  110.4500 N.4       4 LYS4        0.0000 
     80 NZ        158.2600  166.1500  110.0300 N.4       4 LYS4        0.0000 
     81 CZ        154.6500  164.8000  101.6200 C.ar      5 PHE5        0.0000 
     82 CZ        156.6100  163.8900  103.0700 C.ar      5 PHE5        0.0000 
     83 CZ        161.6500  161.6900  104.2100 C.ar      5 PHE5        0.0000 
     84 CZ        164.5500  161.8300  103.4800 C.ar      5 PHE5        0.0000 
     85 CZ        161.4700  163.1200  103.7900 C.ar      5 PHE5        0.0000 
     86 CZ        162.9300  163.1900  103.4200 C.ar      5 PHE5        0.0000 
     87 CZ        164.3800  163.2600  103.0500 C.ar      5 PHE5        0.0000 
     88 CZ        162.7500  164.6200  103.0000 C.ar      5 PHE5        0.0000 
     89 CZ        163.4300  162.2100  105.2300 C.ar      5 PHE5        0.0000 
     90 CA        154.3200  164.3400  100.2300 C.3       6 GLY6        0.0000 
     91 CA        153.0300  166.1600  101.5600 C.3       6 GLY6        0.0000 
     92 CA        160.0200  163.0500  104.1500 C.3       6 GLY6        0.0000 
     93 CA        156.9400  164.3400  104.4600 C.3       6 GLY6        0.0000 
     94 CA        158.3900  164.4100  104.0900 C.3       6 GLY6        0.0000 
     95 CA        160.5200  162.0800  105.9700 C.3       6 GLY6        0.0000 
     96 CA        161.9800  162.1500  105.6000 C.3       6 GLY6        0.0000 
     97 CA        160.3500  163.5100  105.5400 C.3       6 GLY6        0.0000 
     98 CA        161.2800  167.8600  103.9100 C.3       6 GLY6        0.0000 
     99 CA        162.7300  167.9300  103.5400 C.3       6 GLY6        0.0000 
    100 CA        164.1800  168.0000  103.1700 C.3       6 GLY6        0.0000 
    101 CA        162.1300  164.0300  106.5700 C.3       6 GLY6        0.0000 
    102 CA        163.5800  164.1000  106.2000 C.3       6 GLY6        0.0000 
    103 CA        161.9600  165.4600  106.1500 C.3       6 GLY6        0.0000 
    104 CA        163.4100  165.5200  105.7800 C.3       6 GLY6        0.0000 
    105 CA        164.8600  165.5900  105.4100 C.3       6 GLY6        0.0000 
    106 CA        163.2400  166.9500  105.3600 C.3       6 GLY6        0.0000 
    107 CA        163.0600  168.3800  104.9300 C.3       6 GLY6        0.0000 
    108 CA        162.8900  169.8100  104.5100 C.3       6 GLY6        0.0000 
    109 CA        164.3400  169.8800  104.1400 C.3       6 GLY6        0.0000 
    110 CA        159.3800  165.7700  108.2700 C.3       6 GLY6        0.0000 
    111 CA        165.1900  166.0500  106.8000 C.3       6 GLY6        0.0000 
    112 CA        162.1100  167.3400  107.1100 C.3       6 GLY6        0.0000 
    113 CA        163.5700  167.4100  106.7500 C.3       6 GLY6        0.0000 
    114 CA        163.3900  168.8300  106.3200 C.3       6 GLY6        0.0000 
    115 DU        150.9500  165.5000  105.5000 H         7 CUB7        0.0000 
    116 DU        164.8800  162.2800  104.8700 H         7 CUB7        0.0000 
    117 DU        166.3400  162.3500  104.5000 H         7 CUB7        0.0000 
    118 DU        161.8000  163.5700  105.1800 H         7 CUB7        0.0000 
    119 DU        163.2500  163.6400  104.8100 H         7 CUB7        0.0000 
    120 DU        164.7100  163.7100  104.4400 H         7 CUB7        0.0000 
    121 DU        151.4600  164.5200  107.3200 H         7 CUB7        0.0000 
    122 DU        160.1700  164.9300  105.1200 H         7 CUB7        0.0000 
    123 DU        161.6300  165.0000  104.7500 H         7 CUB7        0.0000 
    124 DU        163.0800  165.0700  104.3900 H         7 CUB7        0.0000 
    125 DU        152.7400  166.0200  106.5300 H         7 CUB7        0.0000 
    126 DU        162.9100  166.5000  103.9600 H         7 CUB7        0.0000 
    127 DU        153.4100  163.6100  108.7700 H         7 CUB7        0.0000 
    128 DU        153.2400  165.0400  108.3400 H         7 CUB7        0.0000 
    129 DU        155.2000  164.1400  109.7900 H         7 CUB7        0.0000 
@<TRIPOS>BOND
@<TRIPOS>SUBSTRUCTURE
     1 SER1        1 GROUP   
     2 ALA2       12 GROUP   
     3 ASP3       20 GROUP   
     4 LYS4       54 GROUP   
     5 PHE5       81 GROUP   
     6 GLY6       90 GROUP   
     7 CUB7      115 GROUP   
@<TRIPOS>SET

