#    Name: 6n9x_4_TTP
#    Modification time : Fri May 22 19:38:25 2020

@<TRIPOS>MOLECULE
6n9x_4_TTP
   29    30     1     0     0
SMALL
NO_CHARGES


@<TRIPOS>ATOM
      1 PA        167.5070  204.4680  212.9500 P.3       1 TTP700      0.0000 
      2 O1A       168.5650  204.6970  214.0020 O.co2     1 TTP700      0.0000 
      3 O2A       167.9900  205.0040  211.6240 O.co2     1 TTP700      0.0000 
      4 O3A       167.2110  202.8520  212.8120 O.3       1 TTP700      0.0000 
      5 PB        168.1160  201.5980  212.2430 P.3       1 TTP700      0.0000 
      6 O1B       168.0010  200.4250  213.1880 O.co2     1 TTP700      0.0000 
      7 O2B       169.5610  202.0240  212.1440 O.co2     1 TTP700      0.0000 
      8 O3B       167.5690  201.1570  210.7530 O.3       1 TTP700      0.0000 
      9 PG        167.9260  201.6560  209.2750 P.3       1 TTP700      0.0000 
     10 O1G       168.2280  200.4630  208.4000 O.co2     1 TTP700      0.0000 
     11 O2G       169.1340  202.5600  209.3270 O.co2     1 TTP700      0.0000 
     12 O3G       166.7540  202.4160  208.7020 O.co2     1 TTP700      0.0000 
     13 O5'       166.1220  205.2470  213.3860 O.3       1 TTP700      0.0000 
     14 C5'       166.1960  206.6070  213.7050 C.3       1 TTP700      0.0000 
     15 C4'       165.0330  207.3600  213.0220 C.3       1 TTP700      0.0000 
     16 O4'       163.8090  207.1770  213.7790 O.3       1 TTP700      0.0000 
     17 C3'       165.3090  208.8650  213.0220 C.3       1 TTP700      0.0000 
     18 O3'       164.6790  209.4880  211.8620 O.3       1 TTP700      0.0000 
     19 C2'       164.6270  209.3300  214.2960 C.3       1 TTP700      0.0000 
     20 C1'       163.4290  208.4010  214.3940 C.3       1 TTP700      0.0000 
     21 N1        163.1220  208.1190  215.8050 N.am      1 TTP700      0.0000 
     22 C2        161.9030  208.6600  216.4640 C.2       1 TTP700      0.0000 
     23 O2        161.1820  209.3330  215.8070 O.2       1 TTP700      0.0000 
     24 N3        161.5410  208.4400  217.7960 N.am      1 TTP700      0.0000 
     25 C4        162.4110  207.6660  218.4780 C.2       1 TTP700      0.0000 
     26 O4        162.1440  207.4330  219.6660 O.2       1 TTP700      0.0000 
     27 C5        163.6640  207.0630  217.9360 C.2       1 TTP700      0.0000 
     28 C5M       164.5700  206.2010  218.8140 C.3       1 TTP700      0.0000 
     29 C6        163.9760  207.3120  216.6140 C.2       1 TTP700      0.0000 
@<TRIPOS>BOND
     1    1    2 ar   
     2    1    3 ar   
     3    1    4 1    
     4    1   13 1    
     5    4    5 1    
     6    5    6 ar   
     7    5    7 ar   
     8    5    8 1    
     9    8    9 1    
    10    9   10 ar   
    11    9   11 ar   
    12    9   12 ar   
    13   13   14 1    
    14   14   15 1    
    15   15   16 1    
    16   15   17 1    
    17   16   20 1    
    18   17   18 1    
    19   17   19 1    
    20   19   20 1    
    21   20   21 1    
    22   21   22 1    
    23   21   29 1    
    24   22   23 2    
    25   22   24 1    
    26   24   25 1    
    27   25   26 2    
    28   25   27 1    
    29   27   28 1    
    30   27   29 2    
@<TRIPOS>SUBSTRUCTURE
     1 TTP700      1 GROUP   
@<TRIPOS>SET

