#    Name: 6n9x_5_TTP
#    Modification time : Fri May 22 19:38:33 2020

@<TRIPOS>MOLECULE
6n9x_5_TTP
   29    30     1     0     0
SMALL
NO_CHARGES


@<TRIPOS>ATOM
      1 PA        159.9190  164.6540  106.2380 P.3       1 TTP801      0.0000 
      2 O1A       159.8660  163.5150  107.2270 O.co2     1 TTP801      0.0000 
      3 O2A       159.3180  165.8900  106.8620 O.co2     1 TTP801      0.0000 
      4 O3A       159.0670  164.2490  104.8870 O.3       1 TTP801      0.0000 
      5 PB        158.1520  165.1310  103.8380 P.3       1 TTP801      0.0000 
      6 O1B       158.6760  164.9450  102.4340 O.co2     1 TTP801      0.0000 
      7 O2B       158.2230  166.5930  104.2120 O.co2     1 TTP801      0.0000 
      8 O3B       156.5860  164.6210  103.9130 O.3       1 TTP801      0.0000 
      9 PG        155.3320  165.0940  104.7860 P.3       1 TTP801      0.0000 
     10 O1G       155.6640  166.3930  105.4810 O.co2     1 TTP801      0.0000 
     11 O2G       154.1380  165.2970  103.8850 O.co2     1 TTP801      0.0000 
     12 O3G       155.0100  164.0400  105.8180 O.co2     1 TTP801      0.0000 
     13 O5'       161.4880  164.9520  105.8290 O.3       1 TTP801      0.0000 
     14 C5'       162.0380  166.1950  106.1600 C.3       1 TTP801      0.0000 
     15 C4'       163.0770  166.6000  105.0900 C.3       1 TTP801      0.0000 
     16 O4'       164.2670  165.7790  105.2150 O.3       1 TTP801      0.0000 
     17 C3'       162.5240  166.3280  103.6900 C.3       1 TTP801      0.0000 
     18 O3'       163.0960  167.2700  102.7350 O.3       1 TTP801      0.0000 
     19 C2'       163.0240  164.9230  103.4000 C.3       1 TTP801      0.0000 
     20 C1'       164.3660  164.8900  104.1110 C.3       1 TTP801      0.0000 
     21 N1        164.6240  163.5410  104.6410 N.am      1 TTP801      0.0000 
     22 C2        165.9640  162.9020  104.5400 C.2       1 TTP801      0.0000 
     23 O2        166.8250  163.5220  104.0130 O.2       1 TTP801      0.0000 
     24 N3        166.2870  161.6280  105.0170 N.am      1 TTP801      0.0000 
     25 C4        165.2550  160.9860  105.6030 C.2       1 TTP801      0.0000 
     26 O4        165.4800  159.8500  106.0470 O.2       1 TTP801      0.0000 
     27 C5        163.8690  161.5140  105.7670 C.2       1 TTP801      0.0000 
     28 C5M       162.7840  160.6850  106.4520 C.3       1 TTP801      0.0000 
     29 C6        163.6020  162.7780  105.2790 C.2       1 TTP801      0.0000 
@<TRIPOS>BOND
     1    1    2 ar   
     2    1    3 ar   
     3    1    4 1    
     4    1   13 1    
     5    4    5 1    
     6    5    6 ar   
     7    5    7 ar   
     8    5    8 1    
     9    8    9 1    
    10    9   10 ar   
    11    9   11 ar   
    12    9   12 ar   
    13   13   14 1    
    14   14   15 1    
    15   15   16 1    
    16   15   17 1    
    17   16   20 1    
    18   17   18 1    
    19   17   19 1    
    20   19   20 1    
    21   20   21 1    
    22   21   22 1    
    23   21   29 1    
    24   22   23 2    
    25   22   24 1    
    26   24   25 1    
    27   25   26 2    
    28   25   27 1    
    29   27   28 1    
    30   27   29 2    
@<TRIPOS>SUBSTRUCTURE
     1 TTP801      1 GROUP   
@<TRIPOS>SET

