#    Name: 6n9x_3_TTP
#    Modification time : Fri May 22 19:38:19 2020

@<TRIPOS>MOLECULE
6n9x_3_TTP
   29    30     1     0     0
SMALL
NO_CHARGES


@<TRIPOS>ATOM
      1 PA        147.7630  198.8060  188.2200 P.3       1 TTP700      0.0000 
      2 O1A       148.6330  200.0230  188.4030 O.co2     1 TTP700      0.0000 
      3 O2A       148.0760  198.1630  186.8940 O.co2     1 TTP700      0.0000 
      4 O3A       148.0790  197.7360  189.4230 O.3       1 TTP700      0.0000 
      5 PB        149.5180  197.1510  189.9540 P.3       1 TTP700      0.0000 
      6 O1B       149.7800  197.6290  191.3590 O.co2     1 TTP700      0.0000 
      7 O2B       150.6160  197.6150  189.0280 O.co2     1 TTP700      0.0000 
      8 O3B       149.5060  195.5150  189.9210 O.3       1 TTP700      0.0000 
      9 PG        150.5110  194.5380  189.1690 P.3       1 TTP700      0.0000 
     10 O1G       151.4860  193.9690  190.1680 O.co2     1 TTP700      0.0000 
     11 O2G       151.2630  195.3460  188.1420 O.co2     1 TTP700      0.0000 
     12 O3G       149.7370  193.4290  188.5020 O.co2     1 TTP700      0.0000 
     13 O5'       146.1860  199.2610  188.2510 O.3       1 TTP700      0.0000 
     14 C5'       145.7430  200.0410  187.1820 C.3       1 TTP700      0.0000 
     15 C4'       144.2180  199.8950  187.0440 C.3       1 TTP700      0.0000 
     16 O4'       143.6300  199.7300  188.3480 O.3       1 TTP700      0.0000 
     17 C3'       143.6210  201.2040  186.5530 C.3       1 TTP700      0.0000 
     18 O3'       143.6070  201.2220  185.0950 O.3       1 TTP700      0.0000 
     19 C2'       142.2000  201.1440  187.0900 C.3       1 TTP700      0.0000 
     20 C1'       142.3450  200.3340  188.3750 C.3       1 TTP700      0.0000 
     21 N1        142.2830  201.2050  189.5570 N.am      1 TTP700      0.0000 
     22 C2        140.9940  201.5130  190.2250 C.2       1 TTP700      0.0000 
     23 O2        140.0150  201.0360  189.7670 O.2       1 TTP700      0.0000 
     24 N3        140.8420  202.3220  191.3500 N.am      1 TTP700      0.0000 
     25 C4        141.9990  202.8290  191.8140 C.2       1 TTP700      0.0000 
     26 O4        141.9320  203.5580  192.8110 O.2       1 TTP700      0.0000 
     27 C5        143.3540  202.5980  191.2410 C.2       1 TTP700      0.0000 
     28 C5M       144.5920  203.2350  191.8640 C.3       1 TTP700      0.0000 
     29 C6        143.4490  201.7900  190.1290 C.2       1 TTP700      0.0000 
@<TRIPOS>BOND
     1    1    2 ar   
     2    1    3 ar   
     3    1    4 1    
     4    1   13 1    
     5    4    5 1    
     6    5    6 ar   
     7    5    7 ar   
     8    5    8 1    
     9    8    9 1    
    10    9   10 ar   
    11    9   11 ar   
    12    9   12 ar   
    13   13   14 1    
    14   14   15 1    
    15   15   16 1    
    16   15   17 1    
    17   16   20 1    
    18   17   18 1    
    19   17   19 1    
    20   19   20 1    
    21   20   21 1    
    22   21   22 1    
    23   21   29 1    
    24   22   23 2    
    25   22   24 1    
    26   24   25 1    
    27   25   26 2    
    28   25   27 1    
    29   27   28 1    
    30   27   29 2    
@<TRIPOS>SUBSTRUCTURE
     1 TTP700      1 GROUP   
@<TRIPOS>SET

