#    Name: 6ijj_16_XAT
#    Modification time : Fri May 22 19:29:34 2020

@<TRIPOS>MOLECULE
6ijj_16_XAT
   44    47     1     0     0
SMALL
NO_CHARGES


@<TRIPOS>ATOM
      1 C1          4.7320   31.4340  -33.8380 C.3       1 XAT620      0.0000 
      2 C2          3.9240   32.4020  -34.6800 C.3       1 XAT620      0.0000 
      3 C3          4.1690   33.8200  -34.2240 C.3       1 XAT620      0.0000 
      4 C4          5.5540   34.1600  -34.7270 C.3       1 XAT620      0.0000 
      5 C5          6.6080   33.2940  -34.0390 C.3       1 XAT620      0.0000 
      6 C6          6.1860   31.8800  -33.5740 C.3       1 XAT620      0.0000 
      7 C7          7.2670   30.8130  -33.6820 C.2       1 XAT620      0.0000 
      8 C8          7.7310   30.3800  -32.5130 C.2       1 XAT620      0.0000 
      9 C9          8.7470   29.3330  -32.3110 C.2       1 XAT620      0.0000 
     10 C10         9.0800   29.0800  -31.0450 C.2       1 XAT620      0.0000 
     11 C11        10.0180   28.0530  -30.6290 C.2       1 XAT620      0.0000 
     12 C12         9.8890   27.7630  -29.3430 C.2       1 XAT620      0.0000 
     13 C13        10.6320   26.7380  -28.6000 C.2       1 XAT620      0.0000 
     14 C14        10.5860   26.7700  -27.2620 C.2       1 XAT620      0.0000 
     15 C15        11.2520   25.7470  -26.4690 C.2       1 XAT620      0.0000 
     16 C16         4.6890   30.0760  -34.5240 C.3       1 XAT620      0.0000 
     17 C17         4.0420   31.3010  -32.4890 C.3       1 XAT620      0.0000 
     18 C18         8.0230   33.3530  -34.6080 C.3       1 XAT620      0.0000 
     19 C19         9.3550   28.5690  -33.4470 C.3       1 XAT620      0.0000 
     20 C20        11.3830   25.6650  -29.3290 C.3       1 XAT620      0.0000 
     21 O3          3.2070   34.6950  -34.8100 O.3       1 XAT620      0.0000 
     22 O4          6.4080   32.9570  -32.6660 O.3       1 XAT620      0.0000 
     23 C21        14.6900   18.7390  -16.0670 C.3       1 XAT620      0.0000 
     24 C22        15.7060   18.0010  -15.2150 C.3       1 XAT620      0.0000 
     25 C23        16.4700   17.0160  -16.0650 C.3       1 XAT620      0.0000 
     26 C24        17.4030   17.8510  -16.9090 C.3       1 XAT620      0.0000 
     27 C25        16.6360   18.7780  -17.8550 C.3       1 XAT620      0.0000 
     28 C26        15.2420   19.2650  -17.4060 C.3       1 XAT620      0.0000 
     29 C27        14.8920   20.7010  -17.7760 C.2       1 XAT620      0.0000 
     30 C28        14.0060   20.8430  -18.7550 C.2       1 XAT620      0.0000 
     31 C29        13.5070   22.1390  -19.2390 C.2       1 XAT620      0.0000 
     32 C30        13.0010   22.2010  -20.4730 C.2       1 XAT620      0.0000 
     33 C31        12.4340   23.4140  -21.0470 C.2       1 XAT620      0.0000 
     34 C32        12.2820   23.4650  -22.3640 C.2       1 XAT620      0.0000 
     35 C33        11.6740   24.6220  -23.0390 C.2       1 XAT620      0.0000 
     36 C34        11.6760   24.6470  -24.3750 C.2       1 XAT620      0.0000 
     37 C35        11.0600   25.7110  -25.1540 C.2       1 XAT620      0.0000 
     38 C36        14.1130   19.8630  -15.2150 C.3       1 XAT620      0.0000 
     39 C37        13.5670   17.7820  -16.4280 C.3       1 XAT620      0.0000 
     40 C38        17.4600   19.8560  -18.5430 C.3       1 XAT620      0.0000 
     41 C39        13.5330   23.3420  -18.3510 C.3       1 XAT620      0.0000 
     42 C40        11.0470   25.7170  -22.2390 C.3       1 XAT620      0.0000 
     43 O23        17.2380   16.1430  -15.2380 O.3       1 XAT620      0.0000 
     44 O24        15.4250   18.3310  -18.4690 O.3       1 XAT620      0.0000 
@<TRIPOS>BOND
     1    1    2 1    
     2    1    6 1    
     3    1   16 1    
     4    1   17 1    
     5    2    3 1    
     6    3    4 1    
     7    3   21 1    
     8    4    5 1    
     9    5    6 1    
    10    5   18 1    
    11    5   22 1    
    12    6    7 1    
    13    6   22 1    
    14    7    8 2    
    15    8    9 1    
    16    9   10 2    
    17    9   19 1    
    18   10   11 1    
    19   11   12 2    
    20   12   13 1    
    21   13   14 2    
    22   13   20 1    
    23   14   15 1    
    24   15   37 2    
    25   23   24 1    
    26   23   28 1    
    27   23   38 1    
    28   23   39 1    
    29   24   25 1    
    30   25   26 1    
    31   25   43 1    
    32   26   27 1    
    33   27   28 1    
    34   27   40 1    
    35   27   44 1    
    36   28   29 1    
    37   28   44 1    
    38   29   30 2    
    39   30   31 1    
    40   31   32 2    
    41   31   41 1    
    42   32   33 1    
    43   33   34 2    
    44   34   35 1    
    45   35   36 2    
    46   35   42 1    
    47   36   37 1    
@<TRIPOS>SUBSTRUCTURE
     1 XAT620      1 GROUP   
@<TRIPOS>SET

