#    Name: 6ijj_16_XAT_CAVITY_N1_12
#    Modification time : Fri May 22 19:29:36 2020

@<TRIPOS>MOLECULE
6ijj_16_XAT_CAVITY_N1_12
   78     0     7     0     0
SMALL
NO_CHARGES


@<TRIPOS>ATOM
      1 OG         13.2800   23.0600  -25.7700 O.3       1 SER1        0.0000 
      2 N          16.4900   17.5400  -24.3600 N.am      2 ALA2        0.0000 
      3 N          17.9000   17.0800  -24.6000 N.am      2 ALA2        0.0000 
      4 O          16.6600   18.6000  -25.4100 O.2       2 ALA2        0.0000 
      5 N          15.4300   20.1200  -26.2300 N.am      2 ALA2        0.0000 
      6 N          18.3900   18.0400  -23.5600 N.am      2 ALA2        0.0000 
      7 N          20.4500   17.3800  -19.6100 N.am      2 ALA2        0.0000 
      8 N          19.3600   17.7600  -17.2800 N.am      2 ALA2        0.0000 
      9 N          19.5400   18.8100  -18.3300 N.am      2 ALA2        0.0000 
     10 N          19.7100   19.8600  -19.3800 N.am      2 ALA2        0.0000 
     11 N          21.1100   19.4000  -19.6200 N.am      2 ALA2        0.0000 
     12 N          21.6100   20.3600  -18.5800 N.am      2 ALA2        0.0000 
     13 OD1        21.7800   21.4100  -19.6400 O.co2     3 ASP3        0.0000 
     14 NZ         19.7800   15.3700  -19.5900 N.4       4 LYS4        0.0000 
     15 NZ         18.8900   19.0000  -22.5200 N.4       4 LYS4        0.0000 
     16 NZ         20.2900   18.5300  -22.7600 N.4       4 LYS4        0.0000 
     17 NZ         18.8700   16.8000  -18.3200 N.4       4 LYS4        0.0000 
     18 NZ         20.2700   16.3300  -18.5500 N.4       4 LYS4        0.0000 
     19 NZ         17.9800   20.4200  -21.2400 N.4       4 LYS4        0.0000 
     20 NZ         19.3800   19.9600  -21.4800 N.4       4 LYS4        0.0000 
     21 NZ         16.7400   21.9400  -22.0500 N.4       4 LYS4        0.0000 
     22 NZ         18.1500   21.4800  -22.2900 N.4       4 LYS4        0.0000 
     23 NZ         18.4700   21.3900  -20.2000 N.4       4 LYS4        0.0000 
     24 NZ         19.8800   20.9200  -20.4400 N.4       4 LYS4        0.0000 
     25 NZ         21.2800   20.4500  -20.6800 N.4       4 LYS4        0.0000 
     26 NZ         17.2400   22.9100  -21.0100 N.4       4 LYS4        0.0000 
     27 NZ         20.3700   21.8800  -19.4000 N.4       4 LYS4        0.0000 
     28 CZ         16.1500   15.4400  -22.2500 C.ar      5 PHE5        0.0000 
     29 CZ         16.3200   16.4900  -23.3100 C.ar      5 PHE5        0.0000 
     30 CZ         15.2600   19.0600  -25.1800 C.ar      5 PHE5        0.0000 
     31 CZ         18.0500   15.9300  -21.4500 C.ar      5 PHE5        0.0000 
     32 CZ         13.1100   22.0100  -24.7100 C.ar      5 PHE5        0.0000 
     33 CZ         17.9600   18.2200  -17.0400 C.ar      5 PHE5        0.0000 
     34 CZ         18.1300   19.2800  -18.0900 C.ar      5 PHE5        0.0000 
     35 CZ         18.3000   20.3300  -19.1500 C.ar      5 PHE5        0.0000 
     36 CZ         18.8000   21.2900  -18.1100 C.ar      5 PHE5        0.0000 
     37 CZ         20.2000   20.8300  -18.3400 C.ar      5 PHE5        0.0000 
     38 CZ         18.9700   22.3500  -19.1600 C.ar      5 PHE5        0.0000 
     39 CA         15.9900   16.5800  -25.4000 C.3       6 GLY6        0.0000 
     40 CA         14.7600   18.1000  -26.2200 C.3       6 GLY6        0.0000 
     41 CA         17.8800   14.8800  -20.4000 C.3       6 GLY6        0.0000 
     42 CA         15.2400   16.8600  -20.9700 C.3       6 GLY6        0.0000 
     43 CA         16.6400   16.4000  -21.2100 C.3       6 GLY6        0.0000 
     44 CA         19.4500   15.4600  -21.6900 C.3       6 GLY6        0.0000 
     45 CA         18.2200   16.9800  -22.5000 C.3       6 GLY6        0.0000 
     46 CA         19.6300   16.5200  -22.7400 C.3       6 GLY6        0.0000 
     47 CA         17.1600   19.5600  -24.3700 C.3       6 GLY6        0.0000 
     48 CA         14.5200   21.5400  -24.9500 C.3       6 GLY6        0.0000 
     49 CA         15.9200   21.0800  -25.1900 C.3       6 GLY6        0.0000 
     50 CA         16.9700   16.3000  -19.1200 C.3       6 GLY6        0.0000 
     51 CA         18.3700   15.8400  -19.3600 C.3       6 GLY6        0.0000 
     52 CA         15.7300   17.8200  -19.9300 C.3       6 GLY6        0.0000 
     53 CA         17.1400   17.3600  -20.1700 C.3       6 GLY6        0.0000 
     54 CA         17.6500   20.5200  -23.3300 C.3       6 GLY6        0.0000 
     55 CA         13.6100   22.9700  -23.6700 C.3       6 GLY6        0.0000 
     56 CA         15.0100   22.5000  -23.9100 C.3       6 GLY6        0.0000 
     57 CA         16.4200   22.0400  -24.1500 C.3       6 GLY6        0.0000 
     58 CA         17.4600   17.2600  -18.0800 C.3       6 GLY6        0.0000 
     59 CA         15.5100   23.4700  -22.8700 C.3       6 GLY6        0.0000 
     60 CA         16.9100   23.0000  -23.1100 C.3       6 GLY6        0.0000 
     61 DU         14.9100   16.9600  -23.0700 H         7 CUB7        0.0000 
     62 DU         16.8100   17.4500  -22.2700 H         7 CUB7        0.0000 
     63 DU         16.9900   18.5000  -23.3200 H         7 CUB7        0.0000 
     64 DU         15.7500   20.0200  -24.1400 H         7 CUB7        0.0000 
     65 DU         18.5400   16.8900  -20.4100 H         7 CUB7        0.0000 
     66 DU         19.9500   16.4200  -20.6500 H         7 CUB7        0.0000 
     67 DU         18.7200   17.9400  -21.4600 H         7 CUB7        0.0000 
     68 DU         20.1200   17.4800  -21.7000 H         7 CUB7        0.0000 
     69 DU         17.4800   19.4600  -22.2800 H         7 CUB7        0.0000 
     70 DU         14.8400   21.4500  -22.8600 H         7 CUB7        0.0000 
     71 DU         16.2500   20.9800  -23.1000 H         7 CUB7        0.0000 
     72 DU         16.2300   18.7800  -18.8900 H         7 CUB7        0.0000 
     73 DU         17.6300   18.3200  -19.1300 H         7 CUB7        0.0000 
     74 DU         19.0400   17.8500  -19.3700 H         7 CUB7        0.0000 
     75 DU         17.8100   19.3700  -20.1900 H         7 CUB7        0.0000 
     76 DU         19.2100   18.9000  -20.4200 H         7 CUB7        0.0000 
     77 DU         20.6200   18.4400  -20.6600 H         7 CUB7        0.0000 
     78 DU         17.0700   21.8500  -19.9600 H         7 CUB7        0.0000 
@<TRIPOS>BOND
@<TRIPOS>SUBSTRUCTURE
     1 SER1        1 GROUP   
     2 ALA2        2 GROUP   
     3 ASP3       13 GROUP   
     4 LYS4       14 GROUP   
     5 PHE5       28 GROUP   
     6 GLY6       39 GROUP   
     7 CUB7       61 GROUP   
@<TRIPOS>SET

