#    Name: 6ijj_16_XAT_CAVITY_N1_4
#    Modification time : Fri May 22 19:29:36 2020

@<TRIPOS>MOLECULE
6ijj_16_XAT_CAVITY_N1_4
   41     0     6     0     0
SMALL
NO_CHARGES


@<TRIPOS>ATOM
      1 OG         13.2800   23.0600  -25.7700 O.3       1 SER1        0.0000 
      2 N          19.3600   17.7600  -17.2800 N.am      2 ALA2        0.0000 
      3 N          19.5400   18.8100  -18.3300 N.am      2 ALA2        0.0000 
      4 N          19.7100   19.8600  -19.3800 N.am      2 ALA2        0.0000 
      5 N          21.1100   19.4000  -19.6200 N.am      2 ALA2        0.0000 
      6 NZ         18.8700   16.8000  -18.3200 N.4       3 LYS4        0.0000 
      7 NZ         20.2700   16.3300  -18.5500 N.4       3 LYS4        0.0000 
      8 NZ         17.9800   20.4200  -21.2400 N.4       3 LYS4        0.0000 
      9 NZ         19.3800   19.9600  -21.4800 N.4       3 LYS4        0.0000 
     10 NZ         18.4700   21.3900  -20.2000 N.4       3 LYS4        0.0000 
     11 NZ         19.8800   20.9200  -20.4400 N.4       3 LYS4        0.0000 
     12 NZ         17.2400   22.9100  -21.0100 N.4       3 LYS4        0.0000 
     13 NZ         20.3700   21.8800  -19.4000 N.4       3 LYS4        0.0000 
     14 CZ         13.1100   22.0100  -24.7100 C.ar      4 PHE5        0.0000 
     15 CZ         17.9600   18.2200  -17.0400 C.ar      4 PHE5        0.0000 
     16 CZ         18.1300   19.2800  -18.0900 C.ar      4 PHE5        0.0000 
     17 CZ         18.3000   20.3300  -19.1500 C.ar      4 PHE5        0.0000 
     18 CZ         18.8000   21.2900  -18.1100 C.ar      4 PHE5        0.0000 
     19 CZ         20.2000   20.8300  -18.3400 C.ar      4 PHE5        0.0000 
     20 CZ         18.9700   22.3500  -19.1600 C.ar      4 PHE5        0.0000 
     21 CA         15.2400   16.8600  -20.9700 C.3       5 GLY6        0.0000 
     22 CA         16.6400   16.4000  -21.2100 C.3       5 GLY6        0.0000 
     23 CA         14.5200   21.5400  -24.9500 C.3       5 GLY6        0.0000 
     24 CA         16.9700   16.3000  -19.1200 C.3       5 GLY6        0.0000 
     25 CA         18.3700   15.8400  -19.3600 C.3       5 GLY6        0.0000 
     26 CA         15.7300   17.8200  -19.9300 C.3       5 GLY6        0.0000 
     27 CA         17.1400   17.3600  -20.1700 C.3       5 GLY6        0.0000 
     28 CA         13.6100   22.9700  -23.6700 C.3       5 GLY6        0.0000 
     29 CA         15.0100   22.5000  -23.9100 C.3       5 GLY6        0.0000 
     30 CA         17.4600   17.2600  -18.0800 C.3       5 GLY6        0.0000 
     31 CA         15.5100   23.4700  -22.8700 C.3       5 GLY6        0.0000 
     32 DU         18.5400   16.8900  -20.4100 H         6 CUB7        0.0000 
     33 DU         18.7200   17.9400  -21.4600 H         6 CUB7        0.0000 
     34 DU         17.4800   19.4600  -22.2800 H         6 CUB7        0.0000 
     35 DU         14.8400   21.4500  -22.8600 H         6 CUB7        0.0000 
     36 DU         16.2300   18.7800  -18.8900 H         6 CUB7        0.0000 
     37 DU         17.6300   18.3200  -19.1300 H         6 CUB7        0.0000 
     38 DU         19.0400   17.8500  -19.3700 H         6 CUB7        0.0000 
     39 DU         17.8100   19.3700  -20.1900 H         6 CUB7        0.0000 
     40 DU         19.2100   18.9000  -20.4200 H         6 CUB7        0.0000 
     41 DU         17.0700   21.8500  -19.9600 H         6 CUB7        0.0000 
@<TRIPOS>BOND
@<TRIPOS>SUBSTRUCTURE
     1 SER1        1 GROUP   
     2 ALA2        2 GROUP   
     3 LYS4        6 GROUP   
     4 PHE5       14 GROUP   
     5 GLY6       21 GROUP   
     6 CUB7       32 GROUP   
@<TRIPOS>SET

