#    Name: 6ijj_9_NEX
#    Modification time : Fri May 22 19:29:22 2020

@<TRIPOS>MOLECULE
6ijj_9_NEX
   44    46     1     0     0
SMALL
NO_CHARGES


@<TRIPOS>ATOM
      1 C1          6.1860   61.0570   38.5920 C.3       1 NEX624      0.0000 
      2 C2          6.5580   61.7360   37.2810 C.3       1 NEX624      0.0000 
      3 C3          5.8810   63.0850   37.1560 C.3       1 NEX624      0.0000 
      4 C4          6.5240   63.9760   38.2020 C.3       1 NEX624      0.0000 
      5 C5          6.1470   63.4950   39.5960 C.3       1 NEX624      0.0000 
      6 C6          6.4710   62.0090   39.7420 C.2       1 NEX624      0.0000 
      7 C7          6.8160   61.5890   40.8930 C.1       1 NEX624      0.0000 
      8 C8          7.1110   61.0880   42.0140 C.2       1 NEX624      0.0000 
      9 C9          8.2210   60.1830   42.2960 C.2       1 NEX624      0.0000 
     10 C10         8.0990   59.3360   43.3140 C.2       1 NEX624      0.0000 
     11 C11         9.1370   58.3920   43.6980 C.2       1 NEX624      0.0000 
     12 C12         8.8200   57.4940   44.6270 C.2       1 NEX624      0.0000 
     13 C13         9.7800   56.4910   45.1090 C.2       1 NEX624      0.0000 
     14 C14         9.3770   55.6030   46.0230 C.2       1 NEX624      0.0000 
     15 C15        10.2850   54.6000   46.5620 C.2       1 NEX624      0.0000 
     16 C16         7.0190   59.7910   38.7170 C.3       1 NEX624      0.0000 
     17 C17         4.7060   60.6620   38.5820 C.3       1 NEX624      0.0000 
     18 C18         6.9260   64.3480   40.6000 C.3       1 NEX624      0.0000 
     19 C19         9.4590   60.1970   41.4530 C.3       1 NEX624      0.0000 
     20 C20        11.1870   56.5050   44.6020 C.3       1 NEX624      0.0000 
     21 O3          6.1080   63.6170   35.8490 O.3       1 NEX624      0.0000 
     22 O4          4.7410   63.7440   39.7860 O.3       1 NEX624      0.0000 
     23 C21         9.4000   45.2130   53.3840 C.3       1 NEX624      0.0000 
     24 C22         8.2940   44.2290   53.7230 C.3       1 NEX624      0.0000 
     25 C23         7.2210   44.2200   52.6620 C.3       1 NEX624      0.0000 
     26 C24         7.8850   43.6140   51.4490 C.3       1 NEX624      0.0000 
     27 C25         8.8580   44.6350   50.8680 C.3       1 NEX624      0.0000 
     28 C26         9.6090   45.5180   51.8860 C.3       1 NEX624      0.0000 
     29 C27        11.0090   45.9270   51.4790 C.2       1 NEX624      0.0000 
     30 C28        11.1690   47.2000   51.1410 C.2       1 NEX624      0.0000 
     31 C29        12.4840   47.7050   50.7420 C.2       1 NEX624      0.0000 
     32 C30        12.5840   48.8600   50.0840 C.2       1 NEX624      0.0000 
     33 C31        11.3990   49.6290   49.7320 C.2       1 NEX624      0.0000 
     34 C32        11.5790   50.6640   48.9230 C.2       1 NEX624      0.0000 
     35 C33        10.4740   51.5220   48.4730 C.2       1 NEX624      0.0000 
     36 C34        10.7970   52.6300   47.8010 C.2       1 NEX624      0.0000 
     37 C35         9.8250   53.5830   47.2850 C.2       1 NEX624      0.0000 
     38 C36        10.6890   44.6680   53.9820 C.3       1 NEX624      0.0000 
     39 C37         9.0770   46.5230   54.0750 C.3       1 NEX624      0.0000 
     40 C38         9.7370   44.1760   49.7000 C.3       1 NEX624      0.0000 
     41 C39        13.7130   46.9270   51.0860 C.3       1 NEX624      0.0000 
     42 C40         9.0490   51.1480   48.7430 C.3       1 NEX624      0.0000 
     43 O23         6.1190   43.4090   53.0600 O.3       1 NEX624      0.0000 
     44 O24         8.5490   46.0160   51.0670 O.3       1 NEX624      0.0000 
@<TRIPOS>BOND
     1    1    2 1    
     2    1    6 1    
     3    1   16 1    
     4    1   17 1    
     5    2    3 1    
     6    3    4 1    
     7    3   21 1    
     8    4    5 1    
     9    5    6 1    
    10    5   18 1    
    11    5   22 1    
    12    6    7 2    
    13    7    8 2    
    14    8    9 1    
    15    9   10 2    
    16    9   19 1    
    17   10   11 1    
    18   11   12 2    
    19   12   13 1    
    20   13   14 2    
    21   13   20 1    
    22   14   15 1    
    23   15   37 2    
    24   23   24 1    
    25   23   28 1    
    26   23   38 1    
    27   23   39 1    
    28   24   25 1    
    29   25   26 1    
    30   25   43 1    
    31   26   27 1    
    32   27   28 1    
    33   27   40 1    
    34   27   44 1    
    35   28   29 1    
    36   28   44 1    
    37   29   30 2    
    38   30   31 1    
    39   31   32 2    
    40   31   41 1    
    41   32   33 1    
    42   33   34 2    
    43   34   35 1    
    44   35   36 2    
    45   35   42 1    
    46   36   37 1    
@<TRIPOS>SUBSTRUCTURE
     1 NEX624      1 GROUP   
@<TRIPOS>SET

