#    Name: 6dhl_5_XEG
#    Modification time : Fri May 22 19:31:43 2020

@<TRIPOS>MOLECULE
6dhl_5_XEG
   32    35     1     0     0
SMALL
NO_CHARGES


@<TRIPOS>ATOM
      1 OAA         8.3500  -55.9290    1.7020 O.2       1 XEG601      0.0000 
      2 OAB        15.8600  -61.0250   -2.5340 O.3       1 XEG601      0.0000 
      3 OAC        16.4270  -55.1990    3.5860 O.3       1 XEG601      0.0000 
      4 OAD        16.4220  -53.9560    1.0630 O.3       1 XEG601      0.0000 
      5 OAE         7.4210  -61.4860    1.2770 O.3       1 XEG601      0.0000 
      6 OAF        10.0460  -60.1420    5.0370 O.3       1 XEG601      0.0000 
      7 OAG        12.0740  -61.7730    0.0150 O.3       1 XEG601      0.0000 
      8 OAH         8.6060  -62.0900    3.7230 O.3       1 XEG601      0.0000 
      9 CAI        14.4140  -56.4460    2.9390 C.ar      1 XEG601      0.0000 
     10 CAJ        13.4220  -56.7560    2.0060 C.ar      1 XEG601      0.0000 
     11 CAK        13.8910  -61.2170   -1.2410 C.ar      1 XEG601      0.0000 
     12 CAL         8.2810  -59.2240    1.3910 C.ar      1 XEG601      0.0000 
     13 CAM         9.6040  -58.5320    3.2700 C.ar      1 XEG601      0.0000 
     14 CAN        14.4510  -58.9660   -2.0020 C.ar      1 XEG601      0.0000 
     15 CAO        14.4270  -55.2090    0.4440 C.ar      1 XEG601      0.0000 
     16 CAP        11.2450  -58.7480    0.0070 C.3       1 XEG601      0.0000 
     17 OAQ         9.9710  -56.7320    0.2780 O.3       1 XEG601      0.0000 
     18 OAR        12.9530  -57.0290   -1.3860 O.3       1 XEG601      0.0000 
     19 CAS         9.0850  -56.8830    1.3340 C.2       1 XEG601      0.0000 
     20 CAT        14.7410  -60.3210   -1.9450 C.ar      1 XEG601      0.0000 
     21 CAU        15.4060  -55.5200    2.6240 C.ar      1 XEG601      0.0000 
     22 CAV        15.4100  -54.8970    1.3720 C.ar      1 XEG601      0.0000 
     23 CAW         8.1550  -60.4950    1.9480 C.ar      1 XEG601      0.0000 
     24 CAX         9.4760  -59.7980    3.8280 C.ar      1 XEG601      0.0000 
     25 CAY        12.7590  -60.7060   -0.6110 C.ar      1 XEG601      0.0000 
     26 CAZ         9.0050  -58.2530    2.0640 C.ar      1 XEG601      0.0000 
     27 CBA        13.4320  -56.1350    0.7660 C.ar      1 XEG601      0.0000 
     28 CBB         8.7500  -60.7760    3.1620 C.ar      1 XEG601      0.0000 
     29 CBC        13.3230  -58.4740   -1.3660 C.ar      1 XEG601      0.0000 
     30 CBD        12.4550  -59.3580   -0.6510 C.ar      1 XEG601      0.0000 
     31 CBE        11.2910  -57.3620    0.4600 C.3       1 XEG601      0.0000 
     32 CBF        12.3520  -56.4760   -0.2280 C.3       1 XEG601      0.0000 
@<TRIPOS>BOND
     1    1   19 2    
     2    2   20 1    
     3    3   21 1    
     4    4   22 1    
     5    5   23 1    
     6    6   24 1    
     7    7   25 1    
     8    8   28 1    
     9    9   10 ar   
    10    9   21 ar   
    11   10   27 ar   
    12   11   20 ar   
    13   11   25 ar   
    14   12   23 ar   
    15   12   26 ar   
    16   13   24 ar   
    17   13   26 ar   
    18   14   20 ar   
    19   14   29 ar   
    20   15   22 ar   
    21   15   27 ar   
    22   16   30 1    
    23   16   31 1    
    24   17   19 1    
    25   17   31 1    
    26   18   29 1    
    27   18   32 1    
    28   19   26 1    
    29   21   22 ar   
    30   23   28 ar   
    31   24   28 ar   
    32   25   30 ar   
    33   27   32 1    
    34   29   30 ar   
    35   31   32 1    
@<TRIPOS>SUBSTRUCTURE
     1 XEG601      1 GROUP   
@<TRIPOS>SET

