#    Name: 6dhl_2_XEG
#    Modification time : Fri May 22 19:30:38 2020

@<TRIPOS>MOLECULE
6dhl_2_XEG
   32    35     1     0     0
SMALL
NO_CHARGES


@<TRIPOS>ATOM
      1 OAA        21.1350   -5.5240   14.7930 O.2       1 XEG601      0.0000 
      2 OAB        30.3540   -4.4650   18.5430 O.3       1 XEG601      0.0000 
      3 OAC        27.8590  -10.4040   12.6350 O.3       1 XEG601      0.0000 
      4 OAD        27.9770  -11.0070   15.3700 O.3       1 XEG601      0.0000 
      5 OAE        23.5660   -0.4950   14.8200 O.3       1 XEG601      0.0000 
      6 OAF        24.6620   -3.1560   11.0080 O.3       1 XEG601      0.0000 
      7 OAG        27.1940   -2.2390   16.0130 O.3       1 XEG601      0.0000 
      8 OAH        24.6850   -0.7180   12.2730 O.3       1 XEG601      0.0000 
      9 CAI        26.4370   -8.4600   13.1570 C.ar      1 XEG601      0.0000 
     10 CAJ        25.7700   -7.6580   14.0880 C.ar      1 XEG601      0.0000 
     11 CAK        28.6310   -3.4860   17.2690 C.ar      1 XEG601      0.0000 
     12 CAL        22.9910   -2.8410   14.7800 C.ar      1 XEG601      0.0000 
     13 CAM        23.5340   -4.2060   12.8850 C.ar      1 XEG601      0.0000 
     14 CAN        28.1870   -5.7420   18.0880 C.ar      1 XEG601      0.0000 
     15 CAO        26.5680   -9.0810   15.8760 C.ar      1 XEG601      0.0000 
     16 CAP        25.1730   -4.5970   16.1240 C.3       1 XEG601      0.0000 
     17 OAQ        23.1000   -5.8140   15.9600 O.3       1 XEG601      0.0000 
     18 OAR        25.9810   -6.8640   17.5380 O.3       1 XEG601      0.0000 
     19 CAS        22.3350   -5.1930   14.9820 C.2       1 XEG601      0.0000 
     20 CAT        29.0270   -4.6420   17.9900 C.ar      1 XEG601      0.0000 
     21 CAU        27.1680   -9.5690   13.5870 C.ar      1 XEG601      0.0000 
     22 CAV        27.2320   -9.8780   14.9510 C.ar      1 XEG601      0.0000 
     23 CAW        23.5610   -1.7360   14.1630 C.ar      1 XEG601      0.0000 
     24 CAX        24.0970   -3.0990   12.2630 C.ar      1 XEG601      0.0000 
     25 CAY        27.3780   -3.4780   16.6660 C.ar      1 XEG601      0.0000 
     26 CAZ        22.9830   -4.0640   14.1350 C.ar      1 XEG601      0.0000 
     27 CBA        25.8400   -7.9730   15.4390 C.ar      1 XEG601      0.0000 
     28 CBB        24.1080   -1.8690   12.9050 C.ar      1 XEG601      0.0000 
     29 CBC        26.9420   -5.7200   17.4790 C.ar      1 XEG601      0.0000 
     30 CBD        26.5330   -4.5640   16.7520 C.ar      1 XEG601      0.0000 
     31 CBE        24.5580   -5.8580   15.7270 C.3       1 XEG601      0.0000 
     32 CBF        25.1180   -7.1080   16.4370 C.3       1 XEG601      0.0000 
@<TRIPOS>BOND
     1    1   19 2    
     2    2   20 1    
     3    3   21 1    
     4    4   22 1    
     5    5   23 1    
     6    6   24 1    
     7    7   25 1    
     8    8   28 1    
     9    9   10 ar   
    10    9   21 ar   
    11   10   27 ar   
    12   11   20 ar   
    13   11   25 ar   
    14   12   23 ar   
    15   12   26 ar   
    16   13   24 ar   
    17   13   26 ar   
    18   14   20 ar   
    19   14   29 ar   
    20   15   22 ar   
    21   15   27 ar   
    22   16   30 1    
    23   16   31 1    
    24   17   19 1    
    25   17   31 1    
    26   18   29 1    
    27   18   32 1    
    28   19   26 1    
    29   21   22 ar   
    30   23   28 ar   
    31   24   28 ar   
    32   25   30 ar   
    33   27   32 1    
    34   29   30 ar   
    35   31   32 1    
@<TRIPOS>SUBSTRUCTURE
     1 XEG601      1 GROUP   
@<TRIPOS>SET

