#    Name: 6dhl_8_XEG
#    Modification time : Fri May 22 19:32:42 2020

@<TRIPOS>MOLECULE
6dhl_8_XEG
   32    35     1     0     0
SMALL
NO_CHARGES


@<TRIPOS>ATOM
      1 OAA       -44.6160  102.6940   38.5350 O.2       1 XEG601      0.0000 
      2 OAB       -47.8290  103.8090   47.9170 O.3       1 XEG601      0.0000 
      3 OAC       -42.1770   97.9000   45.2610 O.3       1 XEG601      0.0000 
      4 OAD       -44.8020   96.9420   44.9460 O.3       1 XEG601      0.0000 
      5 OAE       -44.5590  107.8230   40.6870 O.3       1 XEG601      0.0000 
      6 OAF       -40.8090  105.1650   41.9910 O.3       1 XEG601      0.0000 
      7 OAG       -45.6080  106.0230   44.5210 O.3       1 XEG601      0.0000 
      8 OAH       -42.0360  107.6280   41.8500 O.3       1 XEG601      0.0000 
      9 CAI       -42.8300   99.9650   44.0910 C.ar      1 XEG601      0.0000 
     10 CAJ       -43.7910  100.7460   43.4420 C.ar      1 XEG601      0.0000 
     11 CAK       -46.7210  104.7820   46.0800 C.ar      1 XEG601      0.0000 
     12 CAL       -44.5610  105.4420   40.2530 C.ar      1 XEG601      0.0000 
     13 CAM       -42.6920  104.0870   40.9040 C.ar      1 XEG601      0.0000 
     14 CAN       -47.5400  102.5030   45.7430 C.ar      1 XEG601      0.0000 
     15 CAO       -45.4290   99.0000   43.7900 C.ar      1 XEG601      0.0000 
     16 CAP       -45.8590  103.6250   42.5570 C.3       1 XEG601      0.0000 
     17 OAQ       -45.7090  102.3860   40.5330 O.3       1 XEG601      0.0000 
     18 OAR       -47.1620  101.3600   43.5110 O.3       1 XEG601      0.0000 
     19 CAS       -44.7760  103.0400   39.7360 C.2       1 XEG601      0.0000 
     20 CAT       -47.3870  103.6200   46.5530 C.ar      1 XEG601      0.0000 
     21 CAU       -43.1670   98.7060   44.5900 C.ar      1 XEG601      0.0000 
     22 CAV       -44.4720   98.2240   44.4370 C.ar      1 XEG601      0.0000 
     23 CAW       -43.9280  106.5710   40.7620 C.ar      1 XEG601      0.0000 
     24 CAX       -42.0570  105.2140   41.4080 C.ar      1 XEG601      0.0000 
     25 CAY       -46.2260  104.7790   44.7810 C.ar      1 XEG601      0.0000 
     26 CAZ       -43.9350  104.2100   40.3270 C.ar      1 XEG601      0.0000 
     27 CBA       -45.0820  100.2600   43.2940 C.ar      1 XEG601      0.0000 
     28 CBB       -42.6790  106.4520   41.3350 C.ar      1 XEG601      0.0000 
     29 CBC       -47.0390  102.5160   44.4510 C.ar      1 XEG601      0.0000 
     30 CBD       -46.3680  103.6770   43.9640 C.ar      1 XEG601      0.0000 
     31 CBE       -45.4390  102.3570   41.9830 C.3       1 XEG601      0.0000 
     32 CBF       -46.1110  101.1060   42.5930 C.3       1 XEG601      0.0000 
@<TRIPOS>BOND
     1    1   19 2    
     2    2   20 1    
     3    3   21 1    
     4    4   22 1    
     5    5   23 1    
     6    6   24 1    
     7    7   25 1    
     8    8   28 1    
     9    9   10 ar   
    10    9   21 ar   
    11   10   27 ar   
    12   11   20 ar   
    13   11   25 ar   
    14   12   23 ar   
    15   12   26 ar   
    16   13   24 ar   
    17   13   26 ar   
    18   14   20 ar   
    19   14   29 ar   
    20   15   22 ar   
    21   15   27 ar   
    22   16   30 1    
    23   16   31 1    
    24   17   19 1    
    25   17   31 1    
    26   18   29 1    
    27   18   32 1    
    28   19   26 1    
    29   21   22 ar   
    30   23   28 ar   
    31   24   28 ar   
    32   25   30 ar   
    33   27   32 1    
    34   29   30 ar   
    35   31   32 1    
@<TRIPOS>SUBSTRUCTURE
     1 XEG601      1 GROUP   
@<TRIPOS>SET

