#    Name: 6dhl_9_XEG
#    Modification time : Fri May 22 19:32:59 2020

@<TRIPOS>MOLECULE
6dhl_9_XEG
   32    35     1     0     0
SMALL
NO_CHARGES


@<TRIPOS>ATOM
      1 OAA       -36.9870   59.5110    1.7340 O.2       1 XEG601      0.0000 
      2 OAB       -32.1920   58.3640   -6.9190 O.3       1 XEG601      0.0000 
      3 OAC       -28.5840   61.4480    0.6750 O.3       1 XEG601      0.0000 
      4 OAD       -29.7040   63.4100   -0.9970 O.3       1 XEG601      0.0000 
      5 OAE       -37.0600   54.5760   -1.0580 O.3       1 XEG601      0.0000 
      6 OAF       -33.7440   54.9470    2.3620 O.3       1 XEG601      0.0000 
      7 OAG       -33.9220   55.8520   -3.4410 O.3       1 XEG601      0.0000 
      8 OAH       -35.1360   53.3780    0.5750 O.3       1 XEG601      0.0000 
      9 CAI       -30.6660   60.1450    0.4820 C.ar      1 XEG601      0.0000 
     10 CAJ       -31.9620   59.9870   -0.0220 C.ar      1 XEG601      0.0000 
     11 CAK       -33.1040   57.2420   -5.0510 C.ar      1 XEG601      0.0000 
     12 CAL       -36.6010   56.7230   -0.0470 C.ar      1 XEG601      0.0000 
     13 CAM       -34.9340   56.9410    1.6640 C.ar      1 XEG601      0.0000 
     14 CAN       -33.0140   59.6800   -4.8880 C.ar      1 XEG601      0.0000 
     15 CAO       -31.7600   62.1030   -1.1790 C.ar      1 XEG601      0.0000 
     16 CAP       -34.5410   58.3380   -1.6880 C.3       1 XEG601      0.0000 
     17 OAQ       -35.8350   59.7860   -0.2460 O.3       1 XEG601      0.0000 
     18 OAR       -33.8750   60.8480   -2.8030 O.3       1 XEG601      0.0000 
     19 CAS       -36.2790   59.0080    0.8190 C.2       1 XEG601      0.0000 
     20 CAT       -32.7720   58.5110   -5.6000 C.ar      1 XEG601      0.0000 
     21 CAU       -29.9200   61.2800    0.1570 C.ar      1 XEG601      0.0000 
     22 CAV       -30.4720   62.2620   -0.6770 C.ar      1 XEG601      0.0000 
     23 CAW       -36.3420   55.3610   -0.1420 C.ar      1 XEG601      0.0000 
     24 CAX       -34.6840   55.5770    1.5760 C.ar      1 XEG601      0.0000 
     25 CAY       -33.6760   57.2020   -3.7820 C.ar      1 XEG601      0.0000 
     26 CAZ       -35.8960   57.5010    0.8570 C.ar      1 XEG601      0.0000 
     27 CBA       -32.5020   60.9630   -0.8510 C.ar      1 XEG601      0.0000 
     28 CBB       -35.3870   54.7900    0.6740 C.ar      1 XEG601      0.0000 
     29 CBC       -33.5850   59.6250   -3.6210 C.ar      1 XEG601      0.0000 
     30 CBD       -33.9210   58.3550   -3.0570 C.ar      1 XEG601      0.0000 
     31 CBE       -34.4910   59.4840   -0.7840 C.3       1 XEG601      0.0000 
     32 CBF       -33.8990   60.7770   -1.3840 C.3       1 XEG601      0.0000 
@<TRIPOS>BOND
     1    1   19 2    
     2    2   20 1    
     3    3   21 1    
     4    4   22 1    
     5    5   23 1    
     6    6   24 1    
     7    7   25 1    
     8    8   28 1    
     9    9   10 ar   
    10    9   21 ar   
    11   10   27 ar   
    12   11   20 ar   
    13   11   25 ar   
    14   12   23 ar   
    15   12   26 ar   
    16   13   24 ar   
    17   13   26 ar   
    18   14   20 ar   
    19   14   29 ar   
    20   15   22 ar   
    21   15   27 ar   
    22   16   30 1    
    23   16   31 1    
    24   17   19 1    
    25   17   31 1    
    26   18   29 1    
    27   18   32 1    
    28   19   26 1    
    29   21   22 ar   
    30   23   28 ar   
    31   24   28 ar   
    32   25   30 ar   
    33   27   32 1    
    34   29   30 ar   
    35   31   32 1    
@<TRIPOS>SUBSTRUCTURE
     1 XEG601      1 GROUP   
@<TRIPOS>SET

