#    Name: 6dhl_7_XEG
#    Modification time : Fri May 22 19:32:23 2020

@<TRIPOS>MOLECULE
6dhl_7_XEG
   32    35     1     0     0
SMALL
NO_CHARGES


@<TRIPOS>ATOM
      1 OAA       -37.3340  107.8670   14.3510 O.2       1 XEG601      0.0000 
      2 OAB       -41.8550  113.1620    7.1900 O.3       1 XEG601      0.0000 
      3 OAC       -45.3990  106.9230   12.2490 O.3       1 XEG601      0.0000 
      4 OAD       -44.2550  105.9170    9.8990 O.3       1 XEG601      0.0000 
      5 OAE       -36.3060  113.4200   14.4960 O.3       1 XEG601      0.0000 
      6 OAF       -40.3500  112.0430   16.6220 O.3       1 XEG601      0.0000 
      7 OAG       -39.6500  113.7050   11.2180 O.3       1 XEG601      0.0000 
      8 OAH       -38.4670  114.0000   16.1470 O.3       1 XEG601      0.0000 
      9 CAI       -43.3260  108.1700   12.6920 C.ar      1 XEG601      0.0000 
     10 CAJ       -42.0240  108.5300   12.3330 C.ar      1 XEG601      0.0000 
     11 CAK       -40.7070  113.2510    9.2490 C.ar      1 XEG601      0.0000 
     12 CAL       -37.1350  111.1610   14.1590 C.ar      1 XEG601      0.0000 
     13 CAM       -39.1650  110.4570   15.2180 C.ar      1 XEG601      0.0000 
     14 CAN       -40.9940  111.0220    8.2820 C.ar      1 XEG601      0.0000 
     15 CAO       -42.2040  107.1610   10.3500 C.ar      1 XEG601      0.0000 
     16 CAP       -39.1110  110.6580   11.5500 C.3       1 XEG601      0.0000 
     17 OAQ       -38.1820  108.6410   12.3660 O.3       1 XEG601      0.0000 
     18 OAR       -40.0800  109.0010    9.4960 O.3       1 XEG601      0.0000 
     19 CAS       -37.8440  108.8180   13.7010 C.2       1 XEG601      0.0000 
     20 CAT       -41.1870  112.3960    8.2200 C.ar      1 XEG601      0.0000 
     21 CAU       -44.0600  107.3040   11.8820 C.ar      1 XEG601      0.0000 
     22 CAV       -43.4960  106.7970   10.7090 C.ar      1 XEG601      0.0000 
     23 CAW       -37.2660  112.4250   14.7380 C.ar      1 XEG601      0.0000 
     24 CAX       -39.2960  111.7140   15.7970 C.ar      1 XEG601      0.0000 
     25 CAY       -40.0340  112.6790   10.3240 C.ar      1 XEG601      0.0000 
     26 CAZ       -38.0900  110.1860   14.4050 C.ar      1 XEG601      0.0000 
     27 CBA       -41.4680  108.0250   11.1660 C.ar      1 XEG601      0.0000 
     28 CBB       -38.3460  112.6950   15.5550 C.ar      1 XEG601      0.0000 
     29 CBC       -40.3240  110.4690    9.3630 C.ar      1 XEG601      0.0000 
     30 CBD       -39.8340  111.3150   10.4080 C.ar      1 XEG601      0.0000 
     31 CBE       -39.4260  109.2840   11.9100 C.3       1 XEG601      0.0000 
     32 CBF       -40.0590  108.4210   10.7910 C.3       1 XEG601      0.0000 
@<TRIPOS>BOND
     1    1   19 2    
     2    2   20 1    
     3    3   21 1    
     4    4   22 1    
     5    5   23 1    
     6    6   24 1    
     7    7   25 1    
     8    8   28 1    
     9    9   10 ar   
    10    9   21 ar   
    11   10   27 ar   
    12   11   20 ar   
    13   11   25 ar   
    14   12   23 ar   
    15   12   26 ar   
    16   13   24 ar   
    17   13   26 ar   
    18   14   20 ar   
    19   14   29 ar   
    20   15   22 ar   
    21   15   27 ar   
    22   16   30 1    
    23   16   31 1    
    24   17   19 1    
    25   17   31 1    
    26   18   29 1    
    27   18   32 1    
    28   19   26 1    
    29   21   22 ar   
    30   23   28 ar   
    31   24   28 ar   
    32   25   30 ar   
    33   27   32 1    
    34   29   30 ar   
    35   31   32 1    
@<TRIPOS>SUBSTRUCTURE
     1 XEG601      1 GROUP   
@<TRIPOS>SET

