#    Name: 6dhl_3_XEG
#    Modification time : Fri May 22 19:31:00 2020

@<TRIPOS>MOLECULE
6dhl_3_XEG
   32    35     1     0     0
SMALL
NO_CHARGES


@<TRIPOS>ATOM
      1 OAA       -15.5280  -49.0430    7.6020 O.2       1 XEG601      0.0000 
      2 OAB       -24.1210  -50.1300    2.6530 O.3       1 XEG601      0.0000 
      3 OAC       -16.3820  -46.9060   -0.3460 O.3       1 XEG601      0.0000 
      4 OAD       -18.3550  -45.1210    0.5520 O.3       1 XEG601      0.0000 
      5 OAE       -18.3850  -53.9470    8.0480 O.3       1 XEG601      0.0000 
      6 OAF       -15.3420  -53.6200    4.3970 O.3       1 XEG601      0.0000 
      7 OAG       -21.0030  -52.4970    5.1240 O.3       1 XEG601      0.0000 
      8 OAH       -16.9820  -55.1500    6.0020 O.3       1 XEG601      0.0000 
      9 CAI       -16.6070  -48.1620    1.7600 C.ar      1 XEG601      0.0000 
     10 CAJ       -17.2010  -48.3420    3.0140 C.ar      1 XEG601      0.0000 
     11 CAK       -22.4430  -51.1750    3.9400 C.ar      1 XEG601      0.0000 
     12 CAL       -17.4290  -51.7850    7.4730 C.ar      1 XEG601      0.0000 
     13 CAM       -15.8970  -51.6070    5.6360 C.ar      1 XEG601      0.0000 
     14 CAN       -22.2000  -48.7580    3.6320 C.ar      1 XEG601      0.0000 
     15 CAO       -18.5680  -46.3830    2.6360 C.ar      1 XEG601      0.0000 
     16 CAP       -19.3070  -49.9620    5.7400 C.3       1 XEG601      0.0000 
     17 OAQ       -17.5790  -48.6500    6.6720 O.3       1 XEG601      0.0000 
     18 OAR       -20.2210  -47.5550    4.6820 O.3       1 XEG601      0.0000 
     19 CAS       -16.5400  -49.5010    7.0090 C.2       1 XEG601      0.0000 
     20 CAT       -22.9000  -49.9380    3.4070 C.ar      1 XEG601      0.0000 
     21 CAU       -16.9930  -47.0940    0.9470 C.ar      1 XEG601      0.0000 
     22 CAV       -17.9770  -46.2020    1.3880 C.ar      1 XEG601      0.0000 
     23 CAW       -17.5510  -53.1550    7.2420 C.ar      1 XEG601      0.0000 
     24 CAX       -16.0180  -52.9720    5.4090 C.ar      1 XEG601      0.0000 
     25 CAY       -21.2750  -51.1770    4.6970 C.ar      1 XEG601      0.0000 
     26 CAZ       -16.6000  -51.0200    6.6620 C.ar      1 XEG601      0.0000 
     27 CBA       -18.1780  -47.4550    3.4460 C.ar      1 XEG601      0.0000 
     28 CBB       -16.8450  -53.7390    6.2140 C.ar      1 XEG601      0.0000 
     29 CBC       -21.0360  -48.7780    4.3890 C.ar      1 XEG601      0.0000 
     30 CBD       -20.5660  -50.0150    4.9290 C.ar      1 XEG601      0.0000 
     31 CBE       -18.2890  -48.9730    5.4270 C.3       1 XEG601      0.0000 
     32 CBF       -18.8080  -47.6600    4.8020 C.3       1 XEG601      0.0000 
@<TRIPOS>BOND
     1    1   19 2    
     2    2   20 1    
     3    3   21 1    
     4    4   22 1    
     5    5   23 1    
     6    6   24 1    
     7    7   25 1    
     8    8   28 1    
     9    9   10 ar   
    10    9   21 ar   
    11   10   27 ar   
    12   11   20 ar   
    13   11   25 ar   
    14   12   23 ar   
    15   12   26 ar   
    16   13   24 ar   
    17   13   26 ar   
    18   14   20 ar   
    19   14   29 ar   
    20   15   22 ar   
    21   15   27 ar   
    22   16   30 1    
    23   16   31 1    
    24   17   19 1    
    25   17   31 1    
    26   18   29 1    
    27   18   32 1    
    28   19   26 1    
    29   21   22 ar   
    30   23   28 ar   
    31   24   28 ar   
    32   25   30 ar   
    33   27   32 1    
    34   29   30 ar   
    35   31   32 1    
@<TRIPOS>SUBSTRUCTURE
     1 XEG601      1 GROUP   
@<TRIPOS>SET

