#    Name: 6dhl_6_XEG
#    Modification time : Fri May 22 19:32:03 2020

@<TRIPOS>MOLECULE
6dhl_6_XEG
   32    35     1     0     0
SMALL
NO_CHARGES


@<TRIPOS>ATOM
      1 OAA        13.7730   -7.4460  -10.1630 O.2       1 XEG601      0.0000 
      2 OAB        13.8450   -6.1870  -20.0440 O.3       1 XEG601      0.0000 
      3 OAC         7.5120   -9.5760  -14.8360 O.3       1 XEG601      0.0000 
      4 OAD         9.2780  -11.3680  -16.0730 O.3       1 XEG601      0.0000 
      5 OAE        16.0390   -2.6180  -12.2490 O.3       1 XEG601      0.0000 
      6 OAF        11.3310   -2.6440  -11.5170 O.3       1 XEG601      0.0000 
      7 OAG        14.7210   -3.9760  -16.0700 O.3       1 XEG601      0.0000 
      8 OAH        13.6410   -1.2440  -12.0600 O.3       1 XEG601      0.0000 
      9 CAI         9.4520   -8.2900  -14.0130 C.ar      1 XEG601      0.0000 
     10 CAJ        10.8360   -8.1020  -13.9110 C.ar      1 XEG601      0.0000 
     11 CAK        14.2680   -5.2250  -17.9320 C.ar      1 XEG601      0.0000 
     12 CAL        14.9080   -4.7210  -11.7860 C.ar      1 XEG601      0.0000 
     13 CAM        12.5410   -4.7460  -11.4170 C.ar      1 XEG601      0.0000 
     14 CAN        13.7740   -7.6220  -17.9300 C.ar      1 XEG601      0.0000 
     15 CAO        11.1890  -10.0810  -15.2490 C.ar      1 XEG601      0.0000 
     16 CAP        14.3720   -6.5540  -14.3570 C.3       1 XEG601      0.0000 
     17 OAQ        14.1490   -7.8170  -12.3830 O.3       1 XEG601      0.0000 
     18 OAR        13.7470   -8.8860  -15.7260 O.3       1 XEG601      0.0000 
     19 CAS        13.8900   -6.9630  -11.3220 C.2       1 XEG601      0.0000 
     20 CAT        13.9470   -6.4270  -18.6200 C.ar      1 XEG601      0.0000 
     21 CAU         8.9380   -9.3740  -14.7300 C.ar      1 XEG601      0.0000 
     22 CAV         9.8140  -10.2720  -15.3500 C.ar      1 XEG601      0.0000 
     23 CAW        14.8660   -3.3370  -11.9690 C.ar      1 XEG601      0.0000 
     24 CAX        12.5000   -3.3690  -11.5990 C.ar      1 XEG601      0.0000 
     25 CAY        14.4060   -5.2690  -16.5470 C.ar      1 XEG601      0.0000 
     26 CAZ        13.7370   -5.4190  -11.5140 C.ar      1 XEG601      0.0000 
     27 CBA        11.6990   -8.9970  -14.5290 C.ar      1 XEG601      0.0000 
     28 CBB        13.6640   -2.6680  -11.8730 C.ar      1 XEG601      0.0000 
     29 CBC        13.9140   -7.6470  -16.5490 C.ar      1 XEG601      0.0000 
     30 CBD        14.2360   -6.4450  -15.8460 C.ar      1 XEG601      0.0000 
     31 CBE        13.5000   -7.4820  -13.6580 C.3       1 XEG601      0.0000 
     32 CBF        13.1910   -8.7920  -14.4200 C.3       1 XEG601      0.0000 
@<TRIPOS>BOND
     1    1   19 2    
     2    2   20 1    
     3    3   21 1    
     4    4   22 1    
     5    5   23 1    
     6    6   24 1    
     7    7   25 1    
     8    8   28 1    
     9    9   10 ar   
    10    9   21 ar   
    11   10   27 ar   
    12   11   20 ar   
    13   11   25 ar   
    14   12   23 ar   
    15   12   26 ar   
    16   13   24 ar   
    17   13   26 ar   
    18   14   20 ar   
    19   14   29 ar   
    20   15   22 ar   
    21   15   27 ar   
    22   16   30 1    
    23   16   31 1    
    24   17   19 1    
    25   17   31 1    
    26   18   29 1    
    27   18   32 1    
    28   19   26 1    
    29   21   22 ar   
    30   23   28 ar   
    31   24   28 ar   
    32   25   30 ar   
    33   27   32 1    
    34   29   30 ar   
    35   31   32 1    
@<TRIPOS>SUBSTRUCTURE
     1 XEG601      1 GROUP   
@<TRIPOS>SET

