#    Name: 6dhl_10_XEG
#    Modification time : Fri May 22 19:33:15 2020

@<TRIPOS>MOLECULE
6dhl_10_XEG
   32    35     1     0     0
SMALL
NO_CHARGES


@<TRIPOS>ATOM
      1 OAA       -55.0780   57.8290   20.4660 O.2       1 XEG601      0.0000 
      2 OAB       -64.9090   56.5030   18.9900 O.3       1 XEG601      0.0000 
      3 OAC       -59.9150   62.2990   15.2610 O.3       1 XEG601      0.0000 
      4 OAD       -60.7550   63.3500   17.7400 O.3       1 XEG601      0.0000 
      5 OAE       -57.1110   52.6620   19.5330 O.3       1 XEG601      0.0000 
      6 OAF       -56.4390   55.2760   15.5860 O.3       1 XEG601      0.0000 
      7 OAG       -60.8800   54.2500   18.7510 O.3       1 XEG601      0.0000 
      8 OAH       -56.9630   52.8390   16.7590 O.3       1 XEG601      0.0000 
      9 CAI       -59.2440   60.2350   16.4210 C.ar      1 XEG601      0.0000 
     10 CAJ       -59.1200   59.4770   17.5880 C.ar      1 XEG601      0.0000 
     11 CAK       -62.7700   55.5130   18.9400 C.ar      1 XEG601      0.0000 
     12 CAL       -56.6450   55.0240   19.7170 C.ar      1 XEG601      0.0000 
     13 CAM       -56.3140   56.3630   17.7490 C.ar      1 XEG601      0.0000 
     14 CAN       -62.8610   57.8050   19.7810 C.ar      1 XEG601      0.0000 
     15 CAO       -60.0830   61.2940   18.8560 C.ar      1 XEG601      0.0000 
     16 CAP       -59.2650   56.6760   19.9050 C.3       1 XEG601      0.0000 
     17 OAQ       -57.3770   57.9650   20.6580 O.3       1 XEG601      0.0000 
     18 OAR       -60.7190   58.9420   20.5280 O.3       1 XEG601      0.0000 
     19 CAS       -56.2190   57.4080   20.1320 C.2       1 XEG601      0.0000 
     20 CAT       -63.5020   56.6850   19.2710 C.ar      1 XEG601      0.0000 
     21 CAU       -59.7870   61.5180   16.4680 C.ar      1 XEG601      0.0000 
     22 CAV       -60.2060   62.0460   17.6940 C.ar      1 XEG601      0.0000 
     23 CAW       -56.8440   53.9000   18.9290 C.ar      1 XEG601      0.0000 
     24 CAX       -56.5030   55.2370   16.9620 C.ar      1 XEG601      0.0000 
     25 CAY       -61.3940   55.5070   19.1450 C.ar      1 XEG601      0.0000 
     26 CAZ       -56.3800   56.2420   19.1170 C.ar      1 XEG601      0.0000 
     27 CBA       -59.5380   60.0120   18.7950 C.ar      1 XEG601      0.0000 
     28 CBB       -56.7670   54.0130   17.5580 C.ar      1 XEG601      0.0000 
     29 CBC       -61.4880   57.7840   19.9780 C.ar      1 XEG601      0.0000 
     30 CBD       -60.7410   56.6140   19.6520 C.ar      1 XEG601      0.0000 
     31 CBE       -58.5540   57.9410   19.7660 C.3       1 XEG601      0.0000 
     32 CBF       -59.4080   59.1940   20.0490 C.3       1 XEG601      0.0000 
@<TRIPOS>BOND
     1    1   19 2    
     2    2   20 1    
     3    3   21 1    
     4    4   22 1    
     5    5   23 1    
     6    6   24 1    
     7    7   25 1    
     8    8   28 1    
     9    9   10 ar   
    10    9   21 ar   
    11   10   27 ar   
    12   11   20 ar   
    13   11   25 ar   
    14   12   23 ar   
    15   12   26 ar   
    16   13   24 ar   
    17   13   26 ar   
    18   14   20 ar   
    19   14   29 ar   
    20   15   22 ar   
    21   15   27 ar   
    22   16   30 1    
    23   16   31 1    
    24   17   19 1    
    25   17   31 1    
    26   18   29 1    
    27   18   32 1    
    28   19   26 1    
    29   21   22 ar   
    30   23   28 ar   
    31   24   28 ar   
    32   25   30 ar   
    33   27   32 1    
    34   29   30 ar   
    35   31   32 1    
@<TRIPOS>SUBSTRUCTURE
     1 XEG601      1 GROUP   
@<TRIPOS>SET

