#    Name: 6dhl_11_XEG
#    Modification time : Fri May 22 19:33:31 2020

@<TRIPOS>MOLECULE
6dhl_11_XEG
   32    35     1     0     0
SMALL
NO_CHARGES


@<TRIPOS>ATOM
      1 OAA       -30.6760   52.6210   25.9980 O.2       1 XEG601      0.0000 
      2 OAB       -26.5260   47.2610   33.3280 O.3       1 XEG601      0.0000 
      3 OAC       -32.4950   53.3190   33.9430 O.3       1 XEG601      0.0000 
      4 OAD       -29.9420   54.4560   34.0340 O.3       1 XEG601      0.0000 
      5 OAE       -30.0840   47.0440   24.9760 O.3       1 XEG601      0.0000 
      6 OAF       -33.8790   48.2970   27.5850 O.3       1 XEG601      0.0000 
      7 OAG       -28.8110   46.7270   29.3430 O.3       1 XEG601      0.0000 
      8 OAH       -32.5150   46.3800   26.1390 O.3       1 XEG601      0.0000 
      9 CAI       -31.8510   52.0890   31.9180 C.ar      1 XEG601      0.0000 
     10 CAJ       -30.9070   51.7660   30.9420 C.ar      1 XEG601      0.0000 
     11 CAK       -27.6780   47.1790   31.2710 C.ar      1 XEG601      0.0000 
     12 CAL       -30.2450   49.3030   25.8510 C.ar      1 XEG601      0.0000 
     13 CAM       -32.1450   49.9430   27.1650 C.ar      1 XEG601      0.0000 
     14 CAN       -26.9730   49.4000   32.0140 C.ar      1 XEG601      0.0000 
     15 CAO       -29.3130   53.2280   32.0230 C.ar      1 XEG601      0.0000 
     16 CAP       -28.7590   49.7830   28.7010 C.3       1 XEG601      0.0000 
     17 OAQ       -29.1810   51.8170   27.5460 O.3       1 XEG601      0.0000 
     18 OAR       -27.5040   51.4140   30.5770 O.3       1 XEG601      0.0000 
     19 CAS       -30.2540   51.6500   26.6840 C.2       1 XEG601      0.0000 
     20 CAT       -27.0400   48.0290   32.2160 C.ar      1 XEG601      0.0000 
     21 CAU       -31.5250   52.9780   32.9390 C.ar      1 XEG601      0.0000 
     22 CAV       -30.2540   53.5520   32.9900 C.ar      1 XEG601      0.0000 
     23 CAW       -30.7740   48.0190   25.7120 C.ar      1 XEG601      0.0000 
     24 CAX       -32.6740   48.6670   27.0250 C.ar      1 XEG601      0.0000 
     25 CAY       -28.2360   47.7490   30.1320 C.ar      1 XEG601      0.0000 
     26 CAZ       -30.9410   50.2560   26.5790 C.ar      1 XEG601      0.0000 
     27 CBA       -29.6450   52.3400   30.9980 C.ar      1 XEG601      0.0000 
     28 CBB       -31.9850   47.7070   26.2970 C.ar      1 XEG601      0.0000 
     29 CBC       -27.5340   49.9500   30.8720 C.ar      1 XEG601      0.0000 
     30 CBD       -28.1800   49.1100   29.9120 C.ar      1 XEG601      0.0000 
     31 CBE       -29.2970   51.1270   28.8420 C.3       1 XEG601      0.0000 
     32 CBF       -28.6310   51.9900   29.9390 C.3       1 XEG601      0.0000 
@<TRIPOS>BOND
     1    1   19 2    
     2    2   20 1    
     3    3   21 1    
     4    4   22 1    
     5    5   23 1    
     6    6   24 1    
     7    7   25 1    
     8    8   28 1    
     9    9   10 ar   
    10    9   21 ar   
    11   10   27 ar   
    12   11   20 ar   
    13   11   25 ar   
    14   12   23 ar   
    15   12   26 ar   
    16   13   24 ar   
    17   13   26 ar   
    18   14   20 ar   
    19   14   29 ar   
    20   15   22 ar   
    21   15   27 ar   
    22   16   30 1    
    23   16   31 1    
    24   17   19 1    
    25   17   31 1    
    26   18   29 1    
    27   18   32 1    
    28   19   26 1    
    29   21   22 ar   
    30   23   28 ar   
    31   24   28 ar   
    32   25   30 ar   
    33   27   32 1    
    34   29   30 ar   
    35   31   32 1    
@<TRIPOS>SUBSTRUCTURE
     1 XEG601      1 GROUP   
@<TRIPOS>SET

