#    Name: 6dhl_1_XEG
#    Modification time : Fri May 22 19:30:15 2020

@<TRIPOS>MOLECULE
6dhl_1_XEG
   32    35     1     0     0
SMALL
NO_CHARGES


@<TRIPOS>ATOM
      1 OAA        -2.5450   -0.4330    8.1940 O.2       1 XEG601      0.0000 
      2 OAB        -9.9470    4.5500   12.7390 O.3       1 XEG601      0.0000 
      3 OAC        -4.5820   -1.0610   16.1380 O.3       1 XEG601      0.0000 
      4 OAD        -7.0770   -1.9370   15.1710 O.3       1 XEG601      0.0000 
      5 OAE        -2.6170    5.1380    7.0820 O.3       1 XEG601      0.0000 
      6 OAF        -0.3940    3.8530   11.1110 O.3       1 XEG601      0.0000 
      7 OAG        -5.8730    5.3910   10.7080 O.3       1 XEG601      0.0000 
      8 OAH        -0.9630    5.7830    9.2280 O.3       1 XEG601      0.0000 
      9 CAI        -4.1150   -0.0640   13.9490 C.ar      1 XEG601      0.0000 
     10 CAJ        -4.4930    0.2130   12.6350 C.ar      1 XEG601      0.0000 
     11 CAK        -7.8530    4.7930   11.6660 C.ar      1 XEG601      0.0000 
     12 CAL        -2.8560    2.8780    7.9160 C.ar      1 XEG601      0.0000 
     13 CAM        -1.7500    2.2150    9.9370 C.ar      1 XEG601      0.0000 
     14 CAN        -8.7390    2.5220   11.7670 C.ar      1 XEG601      0.0000 
     15 CAO        -6.5930   -0.9370   13.0030 C.ar      1 XEG601      0.0000 
     16 CAP        -5.3990    2.3910    9.9650 C.3       1 XEG601      0.0000 
     17 OAQ        -4.5800    0.4060    8.8760 O.3       1 XEG601      0.0000 
     18 OAR        -7.4250    0.6120   10.7580 O.3       1 XEG601      0.0000 
     19 CAS        -3.2260    0.5370    8.6190 C.2       1 XEG601      0.0000 
     20 CAT        -8.8650    3.8740   12.0550 C.ar      1 XEG601      0.0000 
     21 CAU        -4.9750   -0.7730   14.7840 C.ar      1 XEG601      0.0000 
     22 CAV        -6.2170   -1.2130   14.3100 C.ar      1 XEG601      0.0000 
     23 CAW        -2.3230    4.1580    8.0430 C.ar      1 XEG601      0.0000 
     24 CAX        -1.2160    3.4910   10.0650 C.ar      1 XEG601      0.0000 
     25 CAY        -6.7340    4.3060   10.9910 C.ar      1 XEG601      0.0000 
     26 CAZ        -2.5570    1.9170    8.8670 C.ar      1 XEG601      0.0000 
     27 CBA        -5.7260   -0.2250   12.1740 C.ar      1 XEG601      0.0000 
     28 CBB        -1.5060    4.4580    9.1140 C.ar      1 XEG601      0.0000 
     29 CBC        -7.6180    2.0540   11.0970 C.ar      1 XEG601      0.0000 
     30 CBD        -6.5860    2.9620   10.6980 C.ar      1 XEG601      0.0000 
     31 CBE        -5.0220    0.9950   10.1520 C.3       1 XEG601      0.0000 
     32 CBF        -6.1100    0.0860   10.7560 C.3       1 XEG601      0.0000 
@<TRIPOS>BOND
     1    1   19 2    
     2    2   20 1    
     3    3   21 1    
     4    4   22 1    
     5    5   23 1    
     6    6   24 1    
     7    7   25 1    
     8    8   28 1    
     9    9   10 ar   
    10    9   21 ar   
    11   10   27 ar   
    12   11   20 ar   
    13   11   25 ar   
    14   12   23 ar   
    15   12   26 ar   
    16   13   24 ar   
    17   13   26 ar   
    18   14   20 ar   
    19   14   29 ar   
    20   15   22 ar   
    21   15   27 ar   
    22   16   30 1    
    23   16   31 1    
    24   17   19 1    
    25   17   31 1    
    26   18   29 1    
    27   18   32 1    
    28   19   26 1    
    29   21   22 ar   
    30   23   28 ar   
    31   24   28 ar   
    32   25   30 ar   
    33   27   32 1    
    34   29   30 ar   
    35   31   32 1    
@<TRIPOS>SUBSTRUCTURE
     1 XEG601      1 GROUP   
@<TRIPOS>SET

