#    Name: 6dhl_12_XEG
#    Modification time : Fri May 22 19:33:47 2020

@<TRIPOS>MOLECULE
6dhl_12_XEG
   32    35     1     0     0
SMALL
NO_CHARGES


@<TRIPOS>ATOM
      1 OAA       -19.3680  100.7540   31.5140 O.2       1 XEG601      0.0000 
      2 OAB        -9.4520  102.0070   31.1000 O.3       1 XEG601      0.0000 
      3 OAC       -15.0150   98.9570   24.8490 O.3       1 XEG601      0.0000 
      4 OAD       -13.6350   97.1430   26.5020 O.3       1 XEG601      0.0000 
      5 OAE       -17.1260  105.7210   33.2120 O.3       1 XEG601      0.0000 
      6 OAF       -18.2100  105.3760   28.5760 O.3       1 XEG601      0.0000 
      7 OAG       -13.3390  104.3940   31.9340 O.3       1 XEG601      0.0000 
      8 OAH       -17.4860  106.9320   30.7240 O.3       1 XEG601      0.0000 
      9 CAI       -15.7710  100.1570   26.8660 C.ar      1 XEG601      0.0000 
     10 CAJ       -15.8090  100.3020   28.2580 C.ar      1 XEG601      0.0000 
     11 CAK       -11.5280  103.0680   31.5050 C.ar      1 XEG601      0.0000 
     12 CAL       -17.6910  103.5660   32.2600 C.ar      1 XEG601      0.0000 
     13 CAM       -18.2250  103.3620   29.9310 C.ar      1 XEG601      0.0000 
     14 CAN       -11.6180  100.6610   31.0790 C.ar      1 XEG601      0.0000 
     15 CAO       -14.4000   98.3490   28.4870 C.ar      1 XEG601      0.0000 
     16 CAP       -15.1510  101.8590   31.6640 C.3       1 XEG601      0.0000 
     17 OAQ       -17.0980  100.5010   31.7210 O.3       1 XEG601      0.0000 
     18 OAR       -13.8560   99.4610   31.0940 O.3       1 XEG601      0.0000 
     19 CAS       -18.2200  101.2730   31.4810 C.2       1 XEG601      0.0000 
     20 CAT       -10.8840  101.8320   31.2150 C.ar      1 XEG601      0.0000 
     21 CAU       -15.0510   99.1100   26.2850 C.ar      1 XEG601      0.0000 
     22 CAV       -14.3620   98.2030   27.1020 C.ar      1 XEG601      0.0000 
     23 CAW       -17.4970  104.9360   32.1080 C.ar      1 XEG601      0.0000 
     24 CAX       -18.0450  104.7330   29.7840 C.ar      1 XEG601      0.0000 
     25 CAY       -12.9140  103.0750   31.6510 C.ar      1 XEG601      0.0000 
     26 CAZ       -18.0530  102.7890   31.1690 C.ar      1 XEG601      0.0000 
     27 CBA       -15.1220   99.4010   29.0640 C.ar      1 XEG601      0.0000 
     28 CBB       -17.6790  105.5150   30.8700 C.ar      1 XEG601      0.0000 
     29 CBC       -12.9990  100.6830   31.2250 C.ar      1 XEG601      0.0000 
     30 CBD       -13.6590  101.9170   31.5150 C.ar      1 XEG601      0.0000 
     31 CBE       -15.9180  100.8660   30.9240 C.3       1 XEG601      0.0000 
     32 CBF       -15.1690   99.5660   30.5650 C.3       1 XEG601      0.0000 
@<TRIPOS>BOND
     1    1   19 2    
     2    2   20 1    
     3    3   21 1    
     4    4   22 1    
     5    5   23 1    
     6    6   24 1    
     7    7   25 1    
     8    8   28 1    
     9    9   10 ar   
    10    9   21 ar   
    11   10   27 ar   
    12   11   20 ar   
    13   11   25 ar   
    14   12   23 ar   
    15   12   26 ar   
    16   13   24 ar   
    17   13   26 ar   
    18   14   20 ar   
    19   14   29 ar   
    20   15   22 ar   
    21   15   27 ar   
    22   16   30 1    
    23   16   31 1    
    24   17   19 1    
    25   17   31 1    
    26   18   29 1    
    27   18   32 1    
    28   19   26 1    
    29   21   22 ar   
    30   23   28 ar   
    31   24   28 ar   
    32   25   30 ar   
    33   27   32 1    
    34   29   30 ar   
    35   31   32 1    
@<TRIPOS>SUBSTRUCTURE
     1 XEG601      1 GROUP   
@<TRIPOS>SET

