#    Name: 6dhl_4_XEG
#    Modification time : Fri May 22 19:31:22 2020

@<TRIPOS>MOLECULE
6dhl_4_XEG
   32    35     1     0     0
SMALL
NO_CHARGES


@<TRIPOS>ATOM
      1 OAA         2.9020  -50.6120   25.6280 O.2       1 XEG601      0.0000 
      2 OAB         1.7150  -51.5910   35.5160 O.3       1 XEG601      0.0000 
      3 OAC        -2.3340  -45.9710   30.5850 O.3       1 XEG601      0.0000 
      4 OAD         0.0460  -45.2140   31.8580 O.3       1 XEG601      0.0000 
      5 OAE         1.7380  -55.6980   27.6160 O.3       1 XEG601      0.0000 
      6 OAF        -2.1240  -52.9630   26.9590 O.3       1 XEG601      0.0000 
      7 OAG         0.9450  -53.8980   31.5880 O.3       1 XEG601      0.0000 
      8 OAH        -1.0390  -55.4360   27.4680 O.3       1 XEG601      0.0000 
      9 CAI        -1.1610  -47.9000   29.6030 C.ar      1 XEG601      0.0000 
     10 CAJ         0.0010  -48.6590   29.4350 C.ar      1 XEG601      0.0000 
     11 CAK         1.3980  -52.6170   33.4150 C.ar      1 XEG601      0.0000 
     12 CAL         1.9940  -53.3390   27.1750 C.ar      1 XEG601      0.0000 
     13 CAM         0.0750  -51.9370   26.8450 C.ar      1 XEG601      0.0000 
     14 CAN         2.3990  -50.3910   33.3690 C.ar      1 XEG601      0.0000 
     15 CAO         1.1990  -47.1310   30.8790 C.ar      1 XEG601      0.0000 
     16 CAP         2.0970  -51.6090   29.8060 C.3       1 XEG601      0.0000 
     17 OAQ         3.0120  -50.4120   27.9220 O.3       1 XEG601      0.0000 
     18 OAR         3.0150  -49.3470   31.1450 O.3       1 XEG601      0.0000 
     19 CAS         2.5030  -50.9790   26.7650 C.2       1 XEG601      0.0000 
     20 CAT         1.8740  -51.4570   34.0830 C.ar      1 XEG601      0.0000 
     21 CAU        -1.1410  -46.7590   30.4080 C.ar      1 XEG601      0.0000 
     22 CAV         0.0440  -46.3750   31.0460 C.ar      1 XEG601      0.0000 
     23 CAW         1.1700  -54.4410   27.3580 C.ar      1 XEG601      0.0000 
     24 CAX        -0.7490  -53.0410   27.0240 C.ar      1 XEG601      0.0000 
     25 CAY         1.4700  -52.6630   32.0280 C.ar      1 XEG601      0.0000 
     26 CAZ         1.4380  -52.0990   26.9150 C.ar      1 XEG601      0.0000 
     27 CBA         1.1720  -48.2720   30.0740 C.ar      1 XEG601      0.0000 
     28 CBB        -0.1980  -54.2880   27.2810 C.ar      1 XEG601      0.0000 
     29 CBC         2.4660  -50.4530   31.9860 C.ar      1 XEG601      0.0000 
     30 CBD         1.9880  -51.6110   31.3020 C.ar      1 XEG601      0.0000 
     31 CBE         2.0770  -50.3540   29.0610 C.3       1 XEG601      0.0000 
     32 CBF         2.4190  -49.0960   29.8830 C.3       1 XEG601      0.0000 
@<TRIPOS>BOND
     1    1   19 2    
     2    2   20 1    
     3    3   21 1    
     4    4   22 1    
     5    5   23 1    
     6    6   24 1    
     7    7   25 1    
     8    8   28 1    
     9    9   10 ar   
    10    9   21 ar   
    11   10   27 ar   
    12   11   20 ar   
    13   11   25 ar   
    14   12   23 ar   
    15   12   26 ar   
    16   13   24 ar   
    17   13   26 ar   
    18   14   20 ar   
    19   14   29 ar   
    20   15   22 ar   
    21   15   27 ar   
    22   16   30 1    
    23   16   31 1    
    24   17   19 1    
    25   17   31 1    
    26   18   29 1    
    27   18   32 1    
    28   19   26 1    
    29   21   22 ar   
    30   23   28 ar   
    31   24   28 ar   
    32   25   30 ar   
    33   27   32 1    
    34   29   30 ar   
    35   31   32 1    
@<TRIPOS>SUBSTRUCTURE
     1 XEG601      1 GROUP   
@<TRIPOS>SET

