#    Name: 6hup_2_DZP
#    Modification time : Fri May 22 19:32:19 2020

@<TRIPOS>MOLECULE
6hup_2_DZP
   20    22     1     0     0
SMALL
NO_CHARGES


@<TRIPOS>ATOM
      1 C1        117.6360  155.2680  106.8000 C.ar      1 DZP2001     0.0000 
      2 C2        116.2850  155.0100  106.7990 C.ar      1 DZP2001     0.0000 
      3 C3        115.4790  155.5800  107.7570 C.ar      1 DZP2001     0.0000 
      4 C4        116.0190  156.4160  108.7140 C.ar      1 DZP2001     0.0000 
      5 C5        117.9680  157.5930  109.7400 C.2       1 DZP2001     0.0000 
      6 C6        117.3820  158.3790  112.0620 C.ar      1 DZP2001     0.0000 
      7 C7        117.1470  158.0990  113.4010 C.ar      1 DZP2001     0.0000 
      8 C8        117.1990  156.7990  113.8620 C.ar      1 DZP2001     0.0000 
      9 C9        117.4850  155.7890  112.9820 C.ar      1 DZP2001     0.0000 
     10 C11       118.1860  156.0930  107.7620 C.ar      1 DZP2001     0.0000 
     11 C12       117.3800  156.6790  108.7270 C.ar      1 DZP2001     0.0000 
     12 C13       117.6680  157.3400  111.1710 C.ar      1 DZP2001     0.0000 
     13 C14       117.7120  156.0330  111.6480 C.ar      1 DZP2001     0.0000 
     14 N15       118.7290  158.5280  109.3160 N.2       1 DZP2001     0.0000 
     15 C17       119.3060  159.4310  110.3170 C.3       1 DZP2001     0.0000 
     16 C18       118.1990  160.3260  110.8200 C.2       1 DZP2001     0.0000 
     17 C20       116.1820  160.5430  112.1420 C.3       1 DZP2001     0.0000 
     18 N2        117.2820  159.7300  111.6340 N.am      1 DZP2001     0.0000 
     19 O1        118.1320  161.5080  110.5370 O.2       1 DZP2001     0.0000 
     20 CL        117.5240  154.1510  113.5570 Cl        1 DZP2001     0.0000 
@<TRIPOS>BOND
     1    1    2 ar   
     2    1   10 ar   
     3    2    3 ar   
     4    3    4 ar   
     5    4   11 ar   
     6    5   11 1    
     7    5   12 1    
     8    5   14 2    
     9    6    7 ar   
    10    6   12 ar   
    11    6   18 1    
    12    7    8 ar   
    13    8    9 ar   
    14    9   13 ar   
    15    9   20 1    
    16   10   11 ar   
    17   12   13 ar   
    18   14   15 1    
    19   15   16 1    
    20   16   18 am   
    21   16   19 2    
    22   17   18 1    
@<TRIPOS>SUBSTRUCTURE
     1 DZP2001     1 GROUP   
@<TRIPOS>SET

