#    Name: 6fa3_6_GNP_CAVITY_N1_4
#    Modification time : Fri May 22 19:25:51 2020

@<TRIPOS>MOLECULE
6fa3_6_GNP_CAVITY_N1_4
   52     0     5     0     0
SMALL
NO_CHARGES


@<TRIPOS>ATOM
      1 O          61.8400  126.5500   54.1900 O.2       1 ALA2        0.0000 
      2 O          62.3200  125.2000   54.6500 O.2       1 ALA2        0.0000 
      3 O          63.5600  125.3600   53.8300 O.2       1 ALA2        0.0000 
      4 N          64.8000  125.5300   53.0100 N.am      1 ALA2        0.0000 
      5 N          65.0900  128.3800   51.2700 N.am      1 ALA2        0.0000 
      6 N          65.5700  127.0400   51.7300 N.am      1 ALA2        0.0000 
      7 O          61.2800  127.0300   56.1800 O.2       1 ALA2        0.0000 
      8 N          64.2500  126.0100   55.0000 N.am      1 ALA2        0.0000 
      9 N          64.7300  124.6600   55.4600 N.am      1 ALA2        0.0000 
     10 N          65.2100  123.3200   55.9200 N.am      1 ALA2        0.0000 
     11 N          65.6900  121.9700   56.3700 N.am      1 ALA2        0.0000 
     12 O          65.0100  127.5200   53.7200 O.2       1 ALA2        0.0000 
     13 N          65.4900  126.1700   54.1800 N.am      1 ALA2        0.0000 
     14 N          62.4500  126.3300   57.8100 N.am      1 ALA2        0.0000 
     15 N          62.9300  124.9800   58.2700 N.am      1 ALA2        0.0000 
     16 N          65.4100  125.3100   56.6200 N.am      1 ALA2        0.0000 
     17 N          65.8900  123.9600   57.0800 N.am      1 ALA2        0.0000 
     18 N          66.3700  122.6200   57.5400 N.am      1 ALA2        0.0000 
     19 N          67.0600  123.2600   58.7100 N.am      1 ALA2        0.0000 
     20 OD1        62.5200  127.1900   55.3600 O.co2     2 ASP3        0.0000 
     21 OD1        63.7700  127.3500   54.5400 O.co2     2 ASP3        0.0000 
     22 OD1        63.4100  123.6400   58.7300 O.co2     2 ASP3        0.0000 
     23 OD1        65.3400  124.4400   59.0700 O.co2     2 ASP3        0.0000 
     24 CZ         62.5100  121.0000   56.8500 C.ar      3 PHE5        0.0000 
     25 CZ         63.7500  121.1700   56.0300 C.ar      3 PHE5        0.0000 
     26 CZ         64.4400  121.8100   57.2000 C.ar      3 PHE5        0.0000 
     27 CZ         64.9200  120.4600   57.6600 C.ar      3 PHE5        0.0000 
     28 CZ         63.2100  127.8300   56.5300 C.ar      3 PHE5        0.0000 
     29 CZ         63.6900  126.4900   56.9900 C.ar      3 PHE5        0.0000 
     30 CZ         64.4600  128.0000   55.7100 C.ar      3 PHE5        0.0000 
     31 CZ         64.9300  126.6500   56.1600 C.ar      3 PHE5        0.0000 
     32 CZ         64.3800  127.1300   58.1500 C.ar      3 PHE5        0.0000 
     33 CZ         64.8600  125.7900   58.6100 C.ar      3 PHE5        0.0000 
     34 CZ         66.0200  125.0900   60.2400 C.ar      3 PHE5        0.0000 
     35 CA         62.0300  122.3500   56.3900 C.3       4 GLY6        0.0000 
     36 CA         62.8000  123.8600   55.1100 C.3       4 GLY6        0.0000 
     37 CA         63.2700  122.5100   55.5700 C.3       4 GLY6        0.0000 
     38 CA         63.0800  126.7100   53.3700 C.3       4 GLY6        0.0000 
     39 CA         64.0400  124.0200   54.2900 C.3       4 GLY6        0.0000 
     40 CA         64.3200  126.8700   52.5500 C.3       4 GLY6        0.0000 
     41 CA         62.2400  124.3400   57.1000 C.3       4 GLY6        0.0000 
     42 CA         62.7200  122.9900   57.5600 C.3       4 GLY6        0.0000 
     43 CA         63.2000  121.6500   58.0200 C.3       4 GLY6        0.0000 
     44 CA         63.0000  125.8500   55.8200 C.3       4 GLY6        0.0000 
     45 CA         63.4800  124.5000   56.2800 C.3       4 GLY6        0.0000 
     46 CA         66.5800  124.6100   58.2500 C.3       4 GLY6        0.0000 
     47 CA         67.2700  125.2500   59.4200 C.3       4 GLY6        0.0000 
     48 DU         63.9600  123.1600   56.7400 H         5 CUB7        0.0000 
     49 DU         64.1700  125.1400   57.4500 H         5 CUB7        0.0000 
     50 DU         64.6500  123.8000   57.9100 H         5 CUB7        0.0000 
     51 DU         65.1300  122.4500   58.3600 H         5 CUB7        0.0000 
     52 DU         65.8200  123.1000   59.5300 H         5 CUB7        0.0000 
@<TRIPOS>BOND
@<TRIPOS>SUBSTRUCTURE
     1 ALA2        1 GROUP   
     2 ASP3       20 GROUP   
     3 PHE5       24 GROUP   
     4 GLY6       35 GROUP   
     5 CUB7       48 GROUP   
@<TRIPOS>SET

