#    Name: 6fa3_6_GNP
#    Modification time : Fri May 22 19:25:49 2020

@<TRIPOS>MOLECULE
6fa3_6_GNP
   32    34     1     0     1
SMALL
NO_CHARGES


@<TRIPOS>ATOM
      1 PG         61.3610  131.3790   55.8080 P.3       1 GNP203      0.0000 
      2 O1G        61.5000  131.4090   54.2620 O.co2     1 GNP203      0.0000 
      3 O2G        60.0670  131.9820   56.1450 O.co2     1 GNP203      0.0000 
      4 O3G        62.6070  132.1020   56.3600 O.co2     1 GNP203      0.0000 
      5 N3B        61.7810  129.8280   56.2950 N.3       1 GNP203      0.0000 
      6 PB         60.8770  128.4860   55.7630 P.3       1 GNP203      0.0000 
      7 O1B        60.8310  128.5220   54.2220 O.co2     1 GNP203      0.0000 
      8 O2B        59.4360  128.2760   56.4280 O.co2     1 GNP203      0.0000 
      9 O3A        61.7990  127.2650   56.1500 O.3       1 GNP203      0.0000 
     10 PA         62.8350  126.3530   55.3360 P.3       1 GNP203      0.0000 
     11 O1A        62.0530  125.5910   54.3000 O.co2     1 GNP203      0.0000 
     12 O2A        63.9070  127.2930   54.8990 O.co2     1 GNP203      0.0000 
     13 O5'        63.3130  125.3270   56.4360 O.3       1 GNP203      0.0000 
     14 C5'        63.9860  125.8730   57.6010 C.3       1 GNP203      0.0000 
     15 C4'        64.8740  124.7710   58.1680 C.3       1 GNP203      0.0000 
     16 O4'        64.1010  123.6760   58.6320 O.3       1 GNP203      0.0000 
     17 C3'        65.8950  124.2240   57.1470 C.3       1 GNP203      0.0000 
     18 O3'        67.0930  123.9510   57.8780 O.3       1 GNP203      0.0000 
     19 C2'        65.2990  122.9450   56.6840 C.3       1 GNP203      0.0000 
     20 O2'        66.1680  121.8810   56.3520 O.3       1 GNP203      0.0000 
     21 C1'        64.5540  122.4870   57.9670 C.3       1 GNP203      0.0000 
     22 N9         63.3370  121.7400   57.7020 N.pl3     1 GNP203      0.0000 
     23 C8         62.2700  122.1280   56.9080 C.2       1 GNP203      0.0000 
     24 N7         61.3370  121.1620   56.8410 N.2       1 GNP203      0.0000 
     25 C5         61.7810  120.1290   57.5470 C.2       1 GNP203      0.0000 
     26 C6         61.2140  118.8460   57.9840 C.2       1 GNP203      0.0000 
     27 O6         60.0980  118.4930   57.6180 O.2       1 GNP203      0.0000 
     28 N1         61.9880  118.0900   58.7670 N.am      1 GNP203      0.0000 
     29 C2         63.1750  118.5120   59.2000 C.2       1 GNP203      0.0000 
     30 N2         63.8910  117.6830   59.9810 N.pl3     1 GNP203      0.0000 
     31 N3         63.7390  119.7160   58.9230 N.2       1 GNP203      0.0000 
     32 C4         63.0620  120.5290   58.1490 C.2       1 GNP203      0.0000 
@<TRIPOS>BOND
     1    1    2 ar   
     2    1    3 ar   
     3    1    4 ar   
     4    1    5 1    
     5    5    6 1    
     6    6    7 ar   
     7    6    8 ar   
     8    6    9 1    
     9    9   10 1    
    10   10   11 ar   
    11   10   12 ar   
    12   10   13 1    
    13   13   14 1    
    14   14   15 1    
    15   15   16 1    
    16   15   17 1    
    17   16   21 1    
    18   17   18 1    
    19   17   19 1    
    20   19   20 1    
    21   19   21 1    
    22   21   22 1    
    23   22   23 1    
    24   22   32 1    
    25   23   24 2    
    26   24   25 1    
    27   25   26 1    
    28   25   32 2    
    29   26   27 2    
    30   26   28 am   
    31   28   29 1    
    32   29   30 1    
    33   29   31 2    
    34   31   32 1    
@<TRIPOS>SUBSTRUCTURE
     1 GNP203      1 GROUP   
@<TRIPOS>SET
ATOM$ORANGE STATIC     ATOMS   COLORGROUP SYSTEM 
20 14 14 15 15 17 17 19 19 21 21 23 23 25 25 26 26 29 \
29 32 32 

