#    Name: 6fa3_4_GNP
#    Modification time : Fri May 22 19:25:43 2020

@<TRIPOS>MOLECULE
6fa3_4_GNP
   32    34     1     0     1
SMALL
NO_CHARGES


@<TRIPOS>ATOM
      1 PG         40.3510  134.6240   11.5290 P.3       1 GNP201      0.0000 
      2 O1G        38.9800  135.2760   10.9740 O.co2     1 GNP201      0.0000 
      3 O2G        40.1400  134.3300   12.9820 O.co2     1 GNP201      0.0000 
      4 O3G        41.5780  135.3240   11.2230 O.co2     1 GNP201      0.0000 
      5 N3B        40.2650  133.1690   10.6000 N.3       1 GNP201      0.0000 
      6 PB         41.3930  131.9220   10.9300 P.3       1 GNP201      0.0000 
      7 O1B        42.7010  132.2340   10.2520 O.co2     1 GNP201      0.0000 
      8 O2B        41.4040  131.5650   12.3070 O.co2     1 GNP201      0.0000 
      9 O3A        40.6670  130.6790   10.0850 O.3       1 GNP201      0.0000 
     10 PA         39.7570  129.5420   10.7700 P.3       1 GNP201      0.0000 
     11 O1A        38.5280  129.9640   11.3930 O.co2     1 GNP201      0.0000 
     12 O2A        40.6800  128.6200   11.5780 O.co2     1 GNP201      0.0000 
     13 O5'        39.4860  128.7010    9.4280 O.3       1 GNP201      0.0000 
     14 C5'        38.7230  129.3050    8.3430 C.3       1 GNP201      0.0000 
     15 C4'        38.0360  128.2370    7.5430 C.3       1 GNP201      0.0000 
     16 O4'        39.0480  127.4910    6.8930 O.3       1 GNP201      0.0000 
     17 C3'        37.2360  127.3040    8.4120 C.3       1 GNP201      0.0000 
     18 O3'        36.0170  127.0020    7.6930 O.3       1 GNP201      0.0000 
     19 C2'        38.0770  126.0780    8.5440 C.3       1 GNP201      0.0000 
     20 O2'        37.3340  124.8370    8.6100 O.3       1 GNP201      0.0000 
     21 C1'        38.8190  126.1120    7.2990 C.3       1 GNP201      0.0000 
     22 N9         40.1210  125.4720    7.4170 N.pl3     1 GNP201      0.0000 
     23 C8         41.0980  125.9030    8.2370 C.2       1 GNP201      0.0000 
     24 N7         42.2160  125.1790    8.0820 N.2       1 GNP201      0.0000 
     25 C5         41.9530  124.2580    7.1130 C.2       1 GNP201      0.0000 
     26 C6         42.7110  123.2100    6.5030 C.2       1 GNP201      0.0000 
     27 O6         43.9090  122.9580    6.7490 O.2       1 GNP201      0.0000 
     28 N1         42.0490  122.5520    5.5010 N.am      1 GNP201      0.0000 
     29 C2         40.7460  122.8030    5.1520 C.2       1 GNP201      0.0000 
     30 N2         40.1850  122.0360    4.2300 N.pl3     1 GNP201      0.0000 
     31 N3         39.9810  123.7480    5.6880 N.2       1 GNP201      0.0000 
     32 C4         40.5690  124.4970    6.6560 C.2       1 GNP201      0.0000 
@<TRIPOS>BOND
     1    1    2 ar   
     2    1    3 ar   
     3    1    4 ar   
     4    1    5 1    
     5    5    6 1    
     6    6    7 ar   
     7    6    8 ar   
     8    6    9 1    
     9    9   10 1    
    10   10   11 ar   
    11   10   12 ar   
    12   10   13 1    
    13   13   14 1    
    14   14   15 1    
    15   15   16 1    
    16   15   17 1    
    17   16   21 1    
    18   17   18 1    
    19   17   19 1    
    20   19   20 1    
    21   19   21 1    
    22   21   22 1    
    23   22   23 1    
    24   22   32 1    
    25   23   24 2    
    26   24   25 1    
    27   25   26 1    
    28   25   32 2    
    29   26   27 2    
    30   26   28 am   
    31   28   29 1    
    32   29   30 1    
    33   29   31 2    
    34   31   32 1    
@<TRIPOS>SUBSTRUCTURE
     1 GNP201      1 GROUP   
@<TRIPOS>SET
ATOM$ORANGE STATIC     ATOMS   COLORGROUP SYSTEM 
20 14 14 15 15 17 17 19 19 21 21 23 23 25 25 26 26 29 \
29 32 32 

