#    Name: 6fa3_4_GNP_CAVITY_N1_ALL
#    Modification time : Fri May 22 19:25:45 2020

@<TRIPOS>MOLECULE
6fa3_4_GNP_CAVITY_N1_ALL
   86     0     7     0     0
SMALL
NO_CHARGES


@<TRIPOS>ATOM
      1 OG         38.7400  137.5900    7.7500 O.3       1 SER1        0.0000 
      2 N          36.1800  124.6300    6.7700 N.am      2 ALA2        0.0000 
      3 N          36.3800  126.6200    7.4700 N.am      2 ALA2        0.0000 
      4 N          36.8600  125.2700    7.9300 N.am      2 ALA2        0.0000 
      5 N          37.0700  127.2600    8.6400 N.am      2 ALA2        0.0000 
      6 N          37.5500  125.9200    9.1000 N.am      2 ALA2        0.0000 
      7 N          38.7900  126.0800    8.2800 N.am      2 ALA2        0.0000 
      8 N          38.6000  130.2800    6.0800 N.am      2 ALA2        0.0000 
      9 N          37.7600  127.9000    9.8100 N.am      2 ALA2        0.0000 
     10 N          38.2400  126.5600   10.2700 N.am      2 ALA2        0.0000 
     11 N          39.7700  129.5800    7.7100 N.am      2 ALA2        0.0000 
     12 N          38.4500  128.5500   10.9800 N.am      2 ALA2        0.0000 
     13 O          40.3800  129.3500   11.3200 O.2       2 ALA2        0.0000 
     14 O          41.1400  130.8600   10.0400 O.2       2 ALA2        0.0000 
     15 O          40.8700  134.2000   10.2900 O.2       2 ALA2        0.0000 
     16 O          38.8700  138.7100   10.9000 O.2       2 ALA2        0.0000 
     17 O          39.3500  137.3700   11.3600 O.2       2 ALA2        0.0000 
     18 O          39.8300  136.0200   11.8200 O.2       2 ALA2        0.0000 
     19 O          40.1200  138.8800   10.0800 O.2       2 ALA2        0.0000 
     20 O          40.6000  137.5300   10.5400 O.2       2 ALA2        0.0000 
     21 O          41.0800  136.1800   11.0000 O.2       2 ALA2        0.0000 
     22 N          38.3200  139.1900   12.8900 N.am      2 ALA2        0.0000 
     23 N          39.5600  139.3600   12.0700 N.am      2 ALA2        0.0000 
     24 O          40.0400  138.0100   12.5300 O.2       2 ALA2        0.0000 
     25 OD1        39.3500  125.6000    6.2900 O.co2     3 ASP3        0.0000 
     26 OD1        39.0800  128.9300    6.5400 O.co2     3 ASP3        0.0000 
     27 OD1        39.5600  127.5900    7.0000 O.co2     3 ASP3        0.0000 
     28 OD1        39.9000  130.7000   10.8600 O.co2     3 ASP3        0.0000 
     29 OD1        39.6300  134.0300   11.1100 O.co2     3 ASP3        0.0000 
     30 OD1        41.3500  132.8500   10.7500 O.co2     3 ASP3        0.0000 
     31 OD1        40.3100  134.6800   12.2800 O.co2     3 ASP3        0.0000 
     32 OD1        41.5600  134.8400   11.4600 O.co2     3 ASP3        0.0000 
     33 NZ         40.1800  121.7800    4.0500 N.4       4 LYS4        0.0000 
     34 NZ         40.8700  122.4300    5.2200 N.4       4 LYS4        0.0000 
     35 CZ         37.2100  122.8000    5.2400 C.ar      5 PHE5        0.0000 
     36 CZ         37.6900  121.4600    5.6900 C.ar      5 PHE5        0.0000 
     37 CZ         37.9000  123.4500    6.4000 C.ar      5 PHE5        0.0000 
     38 CZ         39.1400  123.6100    5.5800 C.ar      5 PHE5        0.0000 
     39 CZ         39.6200  122.2600    6.0400 C.ar      5 PHE5        0.0000 
     40 CZ         37.1500  128.1300    6.1900 C.ar      5 PHE5        0.0000 
     41 CZ         38.1100  125.4400    7.1100 C.ar      5 PHE5        0.0000 
     42 CZ         38.5900  124.0900    7.5700 C.ar      5 PHE5        0.0000 
     43 CZ         39.8300  124.2500    6.7500 C.ar      5 PHE5        0.0000 
     44 CZ         40.3100  122.9100    7.2100 C.ar      5 PHE5        0.0000 
     45 CZ         41.5500  123.0700    6.3900 C.ar      5 PHE5        0.0000 
     46 CZ         37.8400  128.7700    7.3600 C.ar      5 PHE5        0.0000 
     47 CZ         39.2700  124.7300    8.7400 C.ar      5 PHE5        0.0000 
     48 CZ         40.5200  124.9000    7.9200 C.ar      5 PHE5        0.0000 
     49 CZ         38.0400  130.7600    8.0700 C.ar      5 PHE5        0.0000 
     50 CZ         38.5200  129.4100    8.5300 C.ar      5 PHE5        0.0000 
     51 CZ         37.9700  129.8900   10.5200 C.ar      5 PHE5        0.0000 
     52 CZ         38.7300  131.4000    9.2400 C.ar      5 PHE5        0.0000 
     53 CZ         39.2100  130.0600    9.7000 C.ar      5 PHE5        0.0000 
     54 CZ         39.4200  132.0400   10.4000 C.ar      5 PHE5        0.0000 
     55 CZ         39.1500  135.3800   10.6500 C.ar      5 PHE5        0.0000 
     56 CA         38.2500  120.9800    3.7000 C.3       6 GLY6        0.0000 
     57 CA         38.9400  121.6200    4.8700 C.3       6 GLY6        0.0000 
     58 CA         39.7000  123.1300    3.5900 C.3       6 GLY6        0.0000 
     59 CA         40.3900  123.7700    4.7600 C.3       6 GLY6        0.0000 
     60 CA         34.6600  127.8000    7.8400 C.3       6 GLY6        0.0000 
     61 CA         41.0700  124.4200    5.9300 C.3       6 GLY6        0.0000 
     62 CA         36.5900  128.6100    8.1800 C.3       6 GLY6        0.0000 
     63 CA         40.0400  126.2400    7.4600 C.3       6 GLY6        0.0000 
     64 CA         41.7600  125.0600    7.0900 C.3       6 GLY6        0.0000 
     65 CA         42.2400  123.7100    7.5500 C.3       6 GLY6        0.0000 
     66 CA         37.2800  129.2500    9.3500 C.3       6 GLY6        0.0000 
     67 CA         39.4800  126.7200    9.4500 C.3       6 GLY6        0.0000 
     68 CA         40.2500  128.2300    8.1700 C.3       6 GLY6        0.0000 
     69 CA         40.7300  126.8900    8.6200 C.3       6 GLY6        0.0000 
     70 CA         38.9200  127.2000   11.4400 C.3       6 GLY6        0.0000 
     71 CA         39.6900  128.7100   10.1500 C.3       6 GLY6        0.0000 
     72 CA         40.1700  127.3700   10.6100 C.3       6 GLY6        0.0000 
     73 CA         40.4500  130.2200    8.8700 C.3       6 GLY6        0.0000 
     74 CA         40.6600  132.2100    9.5800 C.3       6 GLY6        0.0000 
     75 CA         36.9400  137.9100   10.5600 C.3       6 GLY6        0.0000 
     76 CA         38.1900  138.0700    9.7400 C.3       6 GLY6        0.0000 
     77 CA         38.6700  136.7200   10.1900 C.3       6 GLY6        0.0000 
     78 CA         39.4300  138.2300    8.9100 C.3       6 GLY6        0.0000 
     79 CA         40.3900  135.5400    9.8300 C.3       6 GLY6        0.0000 
     80 CA         37.6300  138.5500   11.7200 C.3       6 GLY6        0.0000 
     81 CA         38.4000  140.0600   10.4400 C.3       6 GLY6        0.0000 
     82 DU         38.4600  122.9700    4.4100 H         7 CUB7        0.0000 
     83 DU         37.4200  124.7900    5.9400 H         7 CUB7        0.0000 
     84 DU         37.6300  126.7800    6.6500 H         7 CUB7        0.0000 
     85 DU         38.3100  127.4200    7.8200 H         7 CUB7        0.0000 
     86 DU         39.0000  128.0700    8.9900 H         7 CUB7        0.0000 
@<TRIPOS>BOND
@<TRIPOS>SUBSTRUCTURE
     1 SER1        1 GROUP   
     2 ALA2        2 GROUP   
     3 ASP3       25 GROUP   
     4 LYS4       33 GROUP   
     5 PHE5       35 GROUP   
     6 GLY6       56 GROUP   
     7 CUB7       82 GROUP   
@<TRIPOS>SET

