#    Name: 6fa3_6_GNP_CAVITY_N1_12
#    Modification time : Fri May 22 19:25:51 2020

@<TRIPOS>MOLECULE
6fa3_6_GNP_CAVITY_N1_12
   72     0     7     0     0
SMALL
NO_CHARGES


@<TRIPOS>ATOM
      1 OG         64.4800  128.6000   47.6500 O.3       1 SER1        0.0000 
      2 OG         63.9200  129.0800   49.6400 O.3       1 SER1        0.0000 
      3 O          61.8400  126.5500   54.1900 O.2       2 ALA2        0.0000 
      4 O          62.3200  125.2000   54.6500 O.2       2 ALA2        0.0000 
      5 O          63.5600  125.3600   53.8300 O.2       2 ALA2        0.0000 
      6 N          64.8000  125.5300   53.0100 N.am      2 ALA2        0.0000 
      7 N          65.0900  128.3800   51.2700 N.am      2 ALA2        0.0000 
      8 N          65.5700  127.0400   51.7300 N.am      2 ALA2        0.0000 
      9 N          65.8500  129.8900   49.9900 N.am      2 ALA2        0.0000 
     10 O          61.2800  127.0300   56.1800 O.2       2 ALA2        0.0000 
     11 N          64.2500  126.0100   55.0000 N.am      2 ALA2        0.0000 
     12 N          64.7300  124.6600   55.4600 N.am      2 ALA2        0.0000 
     13 N          65.2100  123.3200   55.9200 N.am      2 ALA2        0.0000 
     14 N          65.6900  121.9700   56.3700 N.am      2 ALA2        0.0000 
     15 O          65.0100  127.5200   53.7200 O.2       2 ALA2        0.0000 
     16 N          65.4900  126.1700   54.1800 N.am      2 ALA2        0.0000 
     17 N          62.4500  126.3300   57.8100 N.am      2 ALA2        0.0000 
     18 N          62.9300  124.9800   58.2700 N.am      2 ALA2        0.0000 
     19 N          65.4100  125.3100   56.6200 N.am      2 ALA2        0.0000 
     20 N          65.8900  123.9600   57.0800 N.am      2 ALA2        0.0000 
     21 N          66.3700  122.6200   57.5400 N.am      2 ALA2        0.0000 
     22 N          67.0600  123.2600   58.7100 N.am      2 ALA2        0.0000 
     23 OD1        62.5200  127.1900   55.3600 O.co2     3 ASP3        0.0000 
     24 OD1        63.7700  127.3500   54.5400 O.co2     3 ASP3        0.0000 
     25 OD1        63.4100  123.6400   58.7300 O.co2     3 ASP3        0.0000 
     26 OD1        65.3400  124.4400   59.0700 O.co2     3 ASP3        0.0000 
     27 NZ         64.6900  130.5900   48.3600 N.4       4 LYS4        0.0000 
     28 NZ         65.9300  130.7500   47.5400 N.4       4 LYS4        0.0000 
     29 NZ         66.8900  128.0600   48.4600 N.4       4 LYS4        0.0000 
     30 NZ         67.3700  126.7200   48.9100 N.4       4 LYS4        0.0000 
     31 NZ         67.5800  128.7100   49.6200 N.4       4 LYS4        0.0000 
     32 CZ         62.5100  121.0000   56.8500 C.ar      5 PHE5        0.0000 
     33 CZ         63.7500  121.1700   56.0300 C.ar      5 PHE5        0.0000 
     34 CZ         64.4400  121.8100   57.2000 C.ar      5 PHE5        0.0000 
     35 CZ         64.9200  120.4600   57.6600 C.ar      5 PHE5        0.0000 
     36 CZ         63.2100  127.8300   56.5300 C.ar      5 PHE5        0.0000 
     37 CZ         63.6900  126.4900   56.9900 C.ar      5 PHE5        0.0000 
     38 CZ         64.4600  128.0000   55.7100 C.ar      5 PHE5        0.0000 
     39 CZ         64.9300  126.6500   56.1600 C.ar      5 PHE5        0.0000 
     40 CZ         64.3800  127.1300   58.1500 C.ar      5 PHE5        0.0000 
     41 CZ         64.8600  125.7900   58.6100 C.ar      5 PHE5        0.0000 
     42 CZ         66.0200  125.0900   60.2400 C.ar      5 PHE5        0.0000 
     43 CA         65.5200  126.7800   46.1200 C.3       6 GLY6        0.0000 
     44 CA         64.9600  127.2600   48.1100 C.3       6 GLY6        0.0000 
     45 CA         66.6800  126.0700   47.7500 C.3       6 GLY6        0.0000 
     46 CA         64.8800  126.3900   50.5600 C.3       6 GLY6        0.0000 
     47 CA         66.1300  126.5500   49.7400 C.3       6 GLY6        0.0000 
     48 CA         62.0300  122.3500   56.3900 C.3       6 GLY6        0.0000 
     49 CA         62.8000  123.8600   55.1100 C.3       6 GLY6        0.0000 
     50 CA         63.2700  122.5100   55.5700 C.3       6 GLY6        0.0000 
     51 CA         63.0800  126.7100   53.3700 C.3       6 GLY6        0.0000 
     52 CA         64.0400  124.0200   54.2900 C.3       6 GLY6        0.0000 
     53 CA         64.3200  126.8700   52.5500 C.3       6 GLY6        0.0000 
     54 CA         66.3300  128.5400   50.4500 C.3       6 GLY6        0.0000 
     55 CA         66.8100  127.2000   50.9000 C.3       6 GLY6        0.0000 
     56 CA         66.6200  131.4000   48.7000 C.3       6 GLY6        0.0000 
     57 CA         67.1000  130.0500   49.1600 C.3       6 GLY6        0.0000 
     58 CA         62.2400  124.3400   57.1000 C.3       6 GLY6        0.0000 
     59 CA         62.7200  122.9900   57.5600 C.3       6 GLY6        0.0000 
     60 CA         63.2000  121.6500   58.0200 C.3       6 GLY6        0.0000 
     61 CA         63.0000  125.8500   55.8200 C.3       6 GLY6        0.0000 
     62 CA         63.4800  124.5000   56.2800 C.3       6 GLY6        0.0000 
     63 CA         66.5800  124.6100   58.2500 C.3       6 GLY6        0.0000 
     64 CA         67.2700  125.2500   59.4200 C.3       6 GLY6        0.0000 
     65 DU         65.1700  129.2400   48.8200 H         7 CUB7        0.0000 
     66 DU         65.6500  127.9000   49.2800 H         7 CUB7        0.0000 
     67 DU         66.4100  129.4100   48.0000 H         7 CUB7        0.0000 
     68 DU         63.9600  123.1600   56.7400 H         7 CUB7        0.0000 
     69 DU         64.1700  125.1400   57.4500 H         7 CUB7        0.0000 
     70 DU         64.6500  123.8000   57.9100 H         7 CUB7        0.0000 
     71 DU         65.1300  122.4500   58.3600 H         7 CUB7        0.0000 
     72 DU         65.8200  123.1000   59.5300 H         7 CUB7        0.0000 
@<TRIPOS>BOND
@<TRIPOS>SUBSTRUCTURE
     1 SER1        1 GROUP   
     2 ALA2        3 GROUP   
     3 ASP3       23 GROUP   
     4 LYS4       27 GROUP   
     5 PHE5       32 GROUP   
     6 GLY6       43 GROUP   
     7 CUB7       65 GROUP   
@<TRIPOS>SET

