#    Name: 5o8r_3_FAD
#    Modification time : Fri May 22 19:18:22 2020

@<TRIPOS>MOLECULE
5o8r_3_FAD
   53    58     1     0     1
SMALL
NO_CHARGES


@<TRIPOS>ATOM
      1 PA         81.4430   50.2910   64.1190 P.3       1 FAD501      0.0000 
      2 O1A        81.2260   50.6490   65.5950 O.co2     1 FAD501      0.0000 
      3 O2A        81.6100   51.4300   63.1290 O.co2     1 FAD501      0.0000 
      4 O5B        82.7230   49.2880   64.0920 O.3       1 FAD501      0.0000 
      5 C5B        83.7070   49.2920   63.0280 C.3       1 FAD501      0.0000 
      6 C4B        85.1400   49.5190   63.5110 C.3       1 FAD501      0.0000 
      7 O4B        86.0340   49.0760   62.5020 O.3       1 FAD501      0.0000 
      8 C3B        85.5220   50.9960   63.7590 C.3       1 FAD501      0.0000 
      9 O3B        86.3960   50.8460   64.8920 O.3       1 FAD501      0.0000 
     10 C2B        86.1020   51.5750   62.4280 C.3       1 FAD501      0.0000 
     11 O2B        86.7360   52.9330   62.4610 O.3       1 FAD501      0.0000 
     12 C1B        86.8470   50.2180   62.1110 C.3       1 FAD501      0.0000 
     13 N9A        87.3180   49.9570   60.7180 N.pl3     1 FAD501      0.0000 
     14 C8A        86.7920   50.3510   59.5340 C.2       1 FAD501      0.0000 
     15 N7A        87.5750   49.9030   58.5220 N.2       1 FAD501      0.0000 
     16 C5A        88.5990   49.2270   59.0480 C.ar      1 FAD501      0.0000 
     17 C6A        89.7990   48.5470   58.5630 C.ar      1 FAD501      0.0000 
     18 N6A        90.0670   48.4550   57.2690 N.pl3     1 FAD501      0.0000 
     19 N1A        90.6300   47.9710   59.4390 N.ar      1 FAD501      0.0000 
     20 C2A        90.4160   48.0030   60.7590 C.ar      1 FAD501      0.0000 
     21 N3A        89.3600   48.6310   61.2930 N.ar      1 FAD501      0.0000 
     22 C4A        88.4350   49.2480   60.4970 C.ar      1 FAD501      0.0000 
     23 N1         71.3110   49.8120   67.5850 N.2       1 FAD501      0.0000 
     24 C2         70.6110   49.3380   68.6730 C.2       1 FAD501      0.0000 
     25 O2         70.0770   48.2070   68.5970 O.2       1 FAD501      0.0000 
     26 N3         70.4780   50.0330   69.8330 N.am      1 FAD501      0.0000 
     27 C4         71.0250   51.2580   69.9950 C.2       1 FAD501      0.0000 
     28 O4         70.8650   51.8700   71.0750 O.2       1 FAD501      0.0000 
     29 C4X        71.8090   51.8590   68.8630 C.2       1 FAD501      0.0000 
     30 N5         72.4000   53.0820   68.9850 N.2       1 FAD501      0.0000 
     31 C5X        73.1020   53.6170   67.9310 C.ar      1 FAD501      0.0000 
     32 C6         73.7110   54.8890   67.9930 C.ar      1 FAD501      0.0000 
     33 C7         74.4350   55.4400   66.9050 C.ar      1 FAD501      0.0000 
     34 C7M        75.0300   56.8030   67.0320 C.3       1 FAD501      0.0000 
     35 C8         74.5880   54.6820   65.6370 C.ar      1 FAD501      0.0000 
     36 C8M        75.3100   55.0960   64.3740 C.3       1 FAD501      0.0000 
     37 C9         73.9790   53.4620   65.5960 C.ar      1 FAD501      0.0000 
     38 C9A        73.2580   52.8560   66.6380 C.ar      1 FAD501      0.0000 
     39 N10        72.6690   51.5630   66.4610 N.pl3     1 FAD501      0.0000 
     40 C10        71.9290   51.0350   67.5890 C.2       1 FAD501      0.0000 
     41 C1'        72.9180   50.8520   65.1640 C.3       1 FAD501      0.0000 
     42 C2'        74.4440   50.4020   65.0200 C.3       1 FAD501      0.0000 
     43 O2'        75.0110   50.0910   66.3150 O.3       1 FAD501      0.0000 
     44 C3'        75.4740   51.3570   64.3080 C.3       1 FAD501      0.0000 
     45 O3'        74.8830   51.9030   63.0980 O.3       1 FAD501      0.0000 
     46 C4'        76.8460   50.8360   63.8620 C.3       1 FAD501      0.0000 
     47 O4'        76.6510   49.7530   62.9410 O.3       1 FAD501      0.0000 
     48 C5'        77.8070   50.4230   64.9760 C.3       1 FAD501      0.0000 
     49 O5'        78.2120   49.0470   64.8180 O.3       1 FAD501      0.0000 
     50 P          79.1910   48.2860   63.7420 P.3       1 FAD501      0.0000 
     51 O1P        79.7640   47.1180   64.5180 O.co2     1 FAD501      0.0000 
     52 O2P        78.4600   47.9950   62.4370 O.co2     1 FAD501      0.0000 
     53 O3P        80.3230   49.3850   63.3190 O.3       1 FAD501      0.0000 
@<TRIPOS>BOND
     1    1    2 ar   
     2    1    3 ar   
     3    1    4 1    
     4    1   53 1    
     5    4    5 1    
     6    5    6 1    
     7    6    7 1    
     8    6    8 1    
     9    7   12 1    
    10    8    9 1    
    11    8   10 1    
    12   10   11 1    
    13   10   12 1    
    14   12   13 1    
    15   13   14 1    
    16   13   22 1    
    17   14   15 2    
    18   15   16 1    
    19   16   17 ar   
    20   16   22 ar   
    21   17   18 1    
    22   17   19 ar   
    23   19   20 ar   
    24   20   21 ar   
    25   21   22 ar   
    26   23   24 1    
    27   23   40 2    
    28   24   25 2    
    29   24   26 am   
    30   26   27 am   
    31   27   28 2    
    32   27   29 1    
    33   29   30 2    
    34   29   40 1    
    35   30   31 1    
    36   31   32 ar   
    37   31   38 ar   
    38   32   33 ar   
    39   33   34 1    
    40   33   35 ar   
    41   35   36 1    
    42   35   37 ar   
    43   37   38 ar   
    44   38   39 1    
    45   39   40 1    
    46   39   41 1    
    47   41   42 1    
    48   42   43 1    
    49   42   44 1    
    50   44   45 1    
    51   44   46 1    
    52   46   47 1    
    53   46   48 1    
    54   48   49 1    
    55   49   50 1    
    56   50   51 ar   
    57   50   52 ar   
    58   50   53 1    
@<TRIPOS>SUBSTRUCTURE
     1 FAD501      1 GROUP   
@<TRIPOS>SET
ATOM$ORANGE STATIC     ATOMS   COLORGROUP SYSTEM 
54 5 5 6 6 8 8 10 10 12 12 14 14 16 16 17 17 20 \
20 22 22 24 24 27 27 29 29 31 31 32 32 33 33 34 34 35 \
35 36 36 37 37 38 38 40 40 41 41 42 42 44 44 46 46 48 \
48 

