#    Name: 5o8r_2_NAP
#    Modification time : Fri May 22 19:18:15 2020

@<TRIPOS>MOLECULE
5o8r_2_NAP
   48    52     1     0     1
SMALL
NO_CHARGES


@<TRIPOS>ATOM
      1 PA        120.5860   31.1140   63.6180 P.3       1 NAP502      0.0000 
      2 O1A       119.9100   30.3260   64.7620 O.co2     1 NAP502      0.0000 
      3 O2A       122.0060   30.7680   63.1330 O.co2     1 NAP502      0.0000 
      4 O5B       120.5280   32.7090   63.8550 O.3       1 NAP502      0.0000 
      5 C5B       120.7550   33.1650   65.1790 C.3       1 NAP502      0.0000 
      6 C4B       121.7560   34.2870   65.1950 C.3       1 NAP502      0.0000 
      7 O4B       121.1280   35.1690   66.0980 O.3       1 NAP502      0.0000 
      8 C3B       123.1450   33.8570   65.7200 C.3       1 NAP502      0.0000 
      9 O3B       124.2860   34.5430   65.1100 O.3       1 NAP502      0.0000 
     10 C2B       122.9180   34.1220   67.2050 C.3       1 NAP502      0.0000 
     11 O2B       124.1290   34.2310   67.9860 O.3       1 NAP502      0.0000 
     12 C1B       122.0710   35.3910   67.1180 C.3       1 NAP502      0.0000 
     13 N9A       121.4450   35.8050   68.4010 N.pl3     1 NAP502      0.0000 
     14 C8A       120.5790   35.1620   69.2380 C.2       1 NAP502      0.0000 
     15 N7A       120.3230   35.9530   70.3370 N.2       1 NAP502      0.0000 
     16 C5A       121.0250   37.0820   70.1660 C.ar      1 NAP502      0.0000 
     17 C6A       121.2440   38.3190   70.9010 C.ar      1 NAP502      0.0000 
     18 N6A       120.5910   38.4500   72.0390 N.pl3     1 NAP502      0.0000 
     19 N1A       122.0800   39.2760   70.4170 N.ar      1 NAP502      0.0000 
     20 C2A       122.7250   39.1400   69.2250 C.ar      1 NAP502      0.0000 
     21 N3A       122.5910   38.0220   68.4620 N.ar      1 NAP502      0.0000 
     22 C4A       121.7700   36.9930   68.8960 C.ar      1 NAP502      0.0000 
     23 O3        119.4850   30.8930   62.4530 O.3       1 NAP502      0.0000 
     24 PN        119.1080   31.7240   61.1250 P.3       1 NAP502      0.0000 
     25 O1N       117.6140   31.8390   61.1730 O.co2     1 NAP502      0.0000 
     26 O2N       119.9750   33.0260   60.9660 O.co2     1 NAP502      0.0000 
     27 O5D       119.3670   30.5590   60.0070 O.3       1 NAP502      0.0000 
     28 C5D       120.1610   29.3690   60.2330 C.3       1 NAP502      0.0000 
     29 C4D       119.3590   28.2300   60.8910 C.3       1 NAP502      0.0000 
     30 O4D       118.4150   27.8590   59.9030 O.3       1 NAP502      0.0000 
     31 C3D       120.2030   26.9920   61.2920 C.3       1 NAP502      0.0000 
     32 O3D       119.9750   26.4290   62.6150 O.3       1 NAP502      0.0000 
     33 C2D       119.9160   25.9770   60.2050 C.3       1 NAP502      0.0000 
     34 O2D       119.4130   24.7320   60.7220 O.3       1 NAP502      0.0000 
     35 C1D       118.8850   26.6640   59.2800 C.3       1 NAP502      0.0000 
     36 N1N       119.3130   26.9670   57.8950 N.pl3     1 NAP502      0.0000 
     37 C2N       118.6560   27.9520   57.2110 C.ar      1 NAP502      0.0000 
     38 C3N       119.0060   28.2130   55.8780 C.ar      1 NAP502      0.0000 
     39 C7N       118.3550   29.2760   55.0620 C.2       1 NAP502      0.0000 
     40 O7N       118.1640   29.0490   53.8500 O.2       1 NAP502      0.0000 
     41 N7N       118.0580   30.4110   55.7040 N.am      1 NAP502      0.0000 
     42 C4N       120.0140   27.4740   55.2570 C.ar      1 NAP502      0.0000 
     43 C5N       120.6690   26.4790   55.9740 C.ar      1 NAP502      0.0000 
     44 C6N       120.2920   26.2330   57.2890 C.ar      1 NAP502      0.0000 
     45 P2B       124.9660   32.9220   68.4400 P.3       1 NAP502      0.0000 
     46 O1X       125.7610   33.3950   69.6600 O.co2     1 NAP502      0.0000 
     47 O2X       125.8010   32.5250   67.2260 O.co2     1 NAP502      0.0000 
     48 O3X       123.8930   31.8900   68.7330 O.co2     1 NAP502      0.0000 
@<TRIPOS>BOND
     1    1    2 ar   
     2    1    3 ar   
     3    1    4 1    
     4    1   23 1    
     5    4    5 1    
     6    5    6 1    
     7    6    7 1    
     8    6    8 1    
     9    7   12 1    
    10    8    9 1    
    11    8   10 1    
    12   10   11 1    
    13   10   12 1    
    14   11   45 1    
    15   12   13 1    
    16   13   14 1    
    17   13   22 1    
    18   14   15 2    
    19   15   16 1    
    20   16   17 ar   
    21   16   22 ar   
    22   17   18 1    
    23   17   19 ar   
    24   19   20 ar   
    25   20   21 ar   
    26   21   22 ar   
    27   23   24 1    
    28   24   25 ar   
    29   24   26 ar   
    30   24   27 1    
    31   27   28 1    
    32   28   29 1    
    33   29   30 1    
    34   29   31 1    
    35   30   35 1    
    36   31   32 1    
    37   31   33 1    
    38   33   34 1    
    39   33   35 1    
    40   35   36 1    
    41   36   37 ar   
    42   36   44 ar   
    43   37   38 ar   
    44   38   39 1    
    45   38   42 ar   
    46   39   40 2    
    47   39   41 am   
    48   42   43 ar   
    49   43   44 ar   
    50   45   46 ar   
    51   45   47 ar   
    52   45   48 ar   
@<TRIPOS>SUBSTRUCTURE
     1 NAP502      1 GROUP   
@<TRIPOS>SET
ATOM$ORANGE STATIC     ATOMS   COLORGROUP SYSTEM 
42 5 5 6 6 8 8 10 10 12 12 14 14 16 16 17 17 20 \
20 22 22 28 28 29 29 31 31 33 33 35 35 37 37 38 38 39 \
39 42 42 43 43 44 44 

