#    Name: 5o8r_4_NAP
#    Modification time : Fri May 22 19:18:29 2020

@<TRIPOS>MOLECULE
5o8r_4_NAP
   48    52     1     0     1
SMALL
NO_CHARGES


@<TRIPOS>ATOM
      1 PA         68.9410   58.6090   60.8000 P.3       1 NAP502      0.0000 
      2 O1A        67.7920   58.0300   61.6200 O.co2     1 NAP502      0.0000 
      3 O2A        69.3360   57.9530   59.4750 O.co2     1 NAP502      0.0000 
      4 O5B        68.6210   60.1540   60.5180 O.3       1 NAP502      0.0000 
      5 C5B        68.2780   60.6510   59.2240 C.3       1 NAP502      0.0000 
      6 C4B        67.3670   61.8600   59.4410 C.3       1 NAP502      0.0000 
      7 O4B        67.9820   62.9120   58.6980 O.3       1 NAP502      0.0000 
      8 C3B        65.9270   61.6200   58.9430 C.3       1 NAP502      0.0000 
      9 O3B        64.8420   62.2830   59.6430 O.3       1 NAP502      0.0000 
     10 C2B        66.1380   62.1080   57.5330 C.3       1 NAP502      0.0000 
     11 O2B        64.8750   62.2330   56.8620 O.3       1 NAP502      0.0000 
     12 C1B        67.0370   63.3290   57.7340 C.3       1 NAP502      0.0000 
     13 N9A        67.6900   63.7640   56.4680 N.pl3     1 NAP502      0.0000 
     14 C8A        68.5300   63.0850   55.6330 C.2       1 NAP502      0.0000 
     15 N7A        68.8260   63.8590   54.5510 N.2       1 NAP502      0.0000 
     16 C5A        68.1860   65.0440   54.7050 C.ar      1 NAP502      0.0000 
     17 C6A        68.0320   66.3290   53.9710 C.ar      1 NAP502      0.0000 
     18 N6A        68.6620   66.5280   52.8220 N.pl3     1 NAP502      0.0000 
     19 N1A        67.2450   67.3090   54.4790 N.ar      1 NAP502      0.0000 
     20 C2A        66.5780   67.1590   55.6560 C.ar      1 NAP502      0.0000 
     21 N3A        66.6560   66.0300   56.4020 N.ar      1 NAP502      0.0000 
     22 C4A        67.4330   64.9740   55.9750 C.ar      1 NAP502      0.0000 
     23 O3         70.2960   58.8580   61.6920 O.3       1 NAP502      0.0000 
     24 PN         70.5860   58.8830   63.3000 P.3       1 NAP502      0.0000 
     25 O1N        69.6140   59.8170   64.0330 O.co2     1 NAP502      0.0000 
     26 O2N        72.0500   59.1360   63.4630 O.co2     1 NAP502      0.0000 
     27 O5D        70.4660   57.2900   63.5910 O.3       1 NAP502      0.0000 
     28 C5D        70.8580   56.2390   62.6600 C.3       1 NAP502      0.0000 
     29 C4D        70.9270   54.8650   63.3460 C.3       1 NAP502      0.0000 
     30 O4D        71.5850   55.0860   64.5970 O.3       1 NAP502      0.0000 
     31 C3D        69.5830   54.2030   63.7000 C.3       1 NAP502      0.0000 
     32 O3D        69.7510   52.7600   63.6390 O.3       1 NAP502      0.0000 
     33 C2D        69.2730   54.8070   65.0940 C.3       1 NAP502      0.0000 
     34 O2D        68.3950   54.0900   65.9730 O.3       1 NAP502      0.0000 
     35 C1D        70.6740   54.8640   65.7080 C.3       1 NAP502      0.0000 
     36 N1N        70.9240   55.7620   66.8890 N.pl3     1 NAP502      0.0000 
     37 C2N        70.6560   55.2770   68.1350 C.ar      1 NAP502      0.0000 
     38 C3N        70.9100   56.0180   69.3180 C.ar      1 NAP502      0.0000 
     39 C7N        70.6340   55.4790   70.7140 C.2       1 NAP502      0.0000 
     40 O7N        71.0060   56.1210   71.6930 O.2       1 NAP502      0.0000 
     41 N7N        70.0220   54.3060   70.8910 N.am      1 NAP502      0.0000 
     42 C4N        71.4430   57.3080   69.1720 C.ar      1 NAP502      0.0000 
     43 C5N        71.7180   57.8000   67.9090 C.ar      1 NAP502      0.0000 
     44 C6N        71.4610   57.0090   66.7760 C.ar      1 NAP502      0.0000 
     45 P2B        64.2780   60.9170   56.1050 P.3       1 NAP502      0.0000 
     46 O1X        63.3050   61.3910   55.0040 O.co2     1 NAP502      0.0000 
     47 O2X        65.5600   60.2980   55.5800 O.co2     1 NAP502      0.0000 
     48 O3X        63.6130   60.1230   57.2320 O.co2     1 NAP502      0.0000 
@<TRIPOS>BOND
     1    1    2 ar   
     2    1    3 ar   
     3    1    4 1    
     4    1   23 1    
     5    4    5 1    
     6    5    6 1    
     7    6    7 1    
     8    6    8 1    
     9    7   12 1    
    10    8    9 1    
    11    8   10 1    
    12   10   11 1    
    13   10   12 1    
    14   11   45 1    
    15   12   13 1    
    16   13   14 1    
    17   13   22 1    
    18   14   15 2    
    19   15   16 1    
    20   16   17 ar   
    21   16   22 ar   
    22   17   18 1    
    23   17   19 ar   
    24   19   20 ar   
    25   20   21 ar   
    26   21   22 ar   
    27   23   24 1    
    28   24   25 ar   
    29   24   26 ar   
    30   24   27 1    
    31   27   28 1    
    32   28   29 1    
    33   29   30 1    
    34   29   31 1    
    35   30   35 1    
    36   31   32 1    
    37   31   33 1    
    38   33   34 1    
    39   33   35 1    
    40   35   36 1    
    41   36   37 ar   
    42   36   44 ar   
    43   37   38 ar   
    44   38   39 1    
    45   38   42 ar   
    46   39   40 2    
    47   39   41 am   
    48   42   43 ar   
    49   43   44 ar   
    50   45   46 ar   
    51   45   47 ar   
    52   45   48 ar   
@<TRIPOS>SUBSTRUCTURE
     1 NAP502      1 GROUP   
@<TRIPOS>SET
ATOM$ORANGE STATIC     ATOMS   COLORGROUP SYSTEM 
42 5 5 6 6 8 8 10 10 12 12 14 14 16 16 17 17 20 \
20 22 22 28 28 29 29 31 31 33 33 35 35 37 37 38 38 39 \
39 42 42 43 43 44 44 

