#    Name: 5o8r_3_FAD_CAVITY_N1_6
#    Modification time : Fri May 22 19:18:24 2020

@<TRIPOS>MOLECULE
5o8r_3_FAD_CAVITY_N1_6
  116     0     6     0     0
SMALL
NO_CHARGES


@<TRIPOS>ATOM
      1 OG         75.2900   52.4200   65.5400 O.3       1 SER1        0.0000 
      2 OG         75.8300   52.1400   64.1700 O.3       1 SER1        0.0000 
      3 OG         77.7800   51.9200   64.9900 O.3       1 SER1        0.0000 
      4 OG         76.1800   54.2100   63.8800 O.3       1 SER1        0.0000 
      5 OG         79.4700   52.5600   63.8700 O.3       1 SER1        0.0000 
      6 OG         81.2300   54.7000   65.7600 O.3       1 SER1        0.0000 
      7 OG         81.5800   56.7700   65.4700 O.3       1 SER1        0.0000 
      8 OG         80.2400   58.2000   66.2900 O.3       1 SER1        0.0000 
      9 N          73.7900   49.4200   65.5800 N.am      2 ALA2        0.0000 
     10 N          74.3300   49.1400   64.2100 N.am      2 ALA2        0.0000 
     11 N          72.9900   50.5700   65.0300 N.am      2 ALA2        0.0000 
     12 O          75.4800   50.0600   64.4700 O.2       2 ALA2        0.0000 
     13 O          74.6800   51.2100   63.9100 O.2       2 ALA2        0.0000 
     14 O          76.8900   50.1300   66.6500 O.2       2 ALA2        0.0000 
     15 O          77.4300   49.8500   65.2800 O.2       2 ALA2        0.0000 
     16 O          76.6300   50.9900   64.7300 O.2       2 ALA2        0.0000 
     17 O          78.5800   50.7800   65.5400 O.2       2 ALA2        0.0000 
     18 O          79.1200   50.4900   64.1700 O.2       2 ALA2        0.0000 
     19 N          82.9400   48.5600   62.7900 N.am      2 ALA2        0.0000 
     20 O          80.2700   51.4200   64.4300 O.2       2 ALA2        0.0000 
     21 O          84.8900   48.3400   63.6000 O.2       2 ALA2        0.0000 
     22 N          84.0900   49.4900   63.0500 N.am      2 ALA2        0.0000 
     23 N          83.2900   50.6300   62.5000 N.am      2 ALA2        0.0000 
     24 N          82.4900   51.7800   61.9500 N.am      2 ALA2        0.0000 
     25 N          81.1600   53.2000   62.7600 N.am      2 ALA2        0.0000 
     26 N          80.3600   54.3500   62.2100 N.am      2 ALA2        0.0000 
     27 N          84.4200   50.1300   67.9700 N.am      2 ALA2        0.0000 
     28 N          83.6200   51.2700   67.4200 N.am      2 ALA2        0.0000 
     29 N          84.1600   50.9900   66.0500 N.am      2 ALA2        0.0000 
     30 N          84.4400   51.5600   62.7600 N.am      2 ALA2        0.0000 
     31 N          83.6400   52.7000   62.2000 N.am      2 ALA2        0.0000 
     32 N          82.3100   54.1300   63.0200 N.am      2 ALA2        0.0000 
     33 N          82.8500   53.8500   61.6500 N.am      2 ALA2        0.0000 
     34 N          81.5100   55.2800   62.4700 N.am      2 ALA2        0.0000 
     35 O          85.5700   51.0600   68.2300 O.2       2 ALA2        0.0000 
     36 N          86.1100   50.7700   66.8600 N.am      2 ALA2        0.0000 
     37 N          84.7700   52.2000   67.6800 N.am      2 ALA2        0.0000 
     38 N          85.3100   51.9100   66.3100 N.am      2 ALA2        0.0000 
     39 N          85.8500   51.6300   64.9400 N.am      2 ALA2        0.0000 
     40 N          86.3900   51.3400   63.5700 N.am      2 ALA2        0.0000 
     41 N          83.9700   53.3400   67.1300 N.am      2 ALA2        0.0000 
     42 N          84.5100   53.0600   65.7600 N.am      2 ALA2        0.0000 
     43 N          85.0500   52.7700   64.3900 N.am      2 ALA2        0.0000 
     44 N          85.5900   52.4900   63.0200 N.am      2 ALA2        0.0000 
     45 N          83.1800   54.4900   66.5700 N.am      2 ALA2        0.0000 
     46 O          82.3800   55.6300   66.0200 O.2       2 ALA2        0.0000 
     47 N          87.2600   51.7000   67.1200 N.am      2 ALA2        0.0000 
     48 N          86.4600   52.8400   66.5700 N.am      2 ALA2        0.0000 
     49 N          85.6600   53.9900   66.0200 N.am      2 ALA2        0.0000 
     50 N          86.2000   53.7000   64.6500 N.am      2 ALA2        0.0000 
     51 N          86.7400   53.4200   63.2800 N.am      2 ALA2        0.0000 
     52 N          84.3300   55.4100   66.8300 N.am      2 ALA2        0.0000 
     53 O          86.8100   54.9100   66.2800 O.2       2 ALA2        0.0000 
     54 NZ         85.5000   49.5600   65.2300 N.4       3 LYS4        0.0000 
     55 NZ         84.7000   50.7000   64.6800 N.4       3 LYS4        0.0000 
     56 NZ         85.2400   50.4200   63.3100 N.4       3 LYS4        0.0000 
     57 NZ         86.6500   50.4900   65.4900 N.4       3 LYS4        0.0000 
     58 CZ         77.0800   47.7800   65.5700 C.ar      4 PHE5        0.0000 
     59 CZ         75.2000   49.4900   67.7600 C.ar      4 PHE5        0.0000 
     60 CZ         75.7400   49.2100   66.3900 C.ar      4 PHE5        0.0000 
     61 CZ         76.2800   48.9200   65.0200 C.ar      4 PHE5        0.0000 
     62 CZ         76.8200   48.6400   63.6500 C.ar      4 PHE5        0.0000 
     63 CZ         74.4000   50.6300   67.2100 C.ar      4 PHE5        0.0000 
     64 CZ         74.9400   50.3500   65.8400 C.ar      4 PHE5        0.0000 
     65 CZ         79.3000   48.1300   63.0900 C.ar      4 PHE5        0.0000 
     66 CZ         77.9700   49.5600   63.9100 C.ar      4 PHE5        0.0000 
     67 CZ         76.0900   51.2800   66.1000 C.ar      4 PHE5        0.0000 
     68 CZ         80.5300   50.5600   66.3500 C.ar      4 PHE5        0.0000 
     69 CZ         78.6700   53.7100   63.3200 C.ar      4 PHE5        0.0000 
     70 CZ         81.6800   51.4900   66.6100 C.ar      4 PHE5        0.0000 
     71 CZ         80.8800   52.6300   66.0600 C.ar      4 PHE5        0.0000 
     72 CZ         80.0800   53.7800   65.5000 C.ar      4 PHE5        0.0000 
     73 CZ         80.6200   53.4900   64.1300 C.ar      4 PHE5        0.0000 
     74 CZ         79.8200   54.6300   63.5800 C.ar      4 PHE5        0.0000 
     75 CZ         82.8300   52.4200   66.8700 C.ar      4 PHE5        0.0000 
     76 CZ         82.0300   53.5600   66.3200 C.ar      4 PHE5        0.0000 
     77 CZ         80.9700   55.5600   63.8400 C.ar      4 PHE5        0.0000 
     78 CZ         80.1700   56.7000   63.2900 C.ar      4 PHE5        0.0000 
     79 CZ         80.7100   56.4200   61.9200 C.ar      4 PHE5        0.0000 
     80 CA         78.2300   48.7000   65.8300 C.3       5 GLY6        0.0000 
     81 CA         78.7700   48.4200   64.4600 C.3       5 GLY6        0.0000 
     82 CA         78.5100   49.2800   62.5400 C.3       5 GLY6        0.0000 
     83 CA         77.1700   50.7100   63.3600 C.3       5 GLY6        0.0000 
     84 CA         76.3700   51.8500   62.8000 C.3       5 GLY6        0.0000 
     85 CA         79.9100   49.3500   64.7200 C.3       5 GLY6        0.0000 
     86 CA         80.4500   49.0600   63.3500 C.3       5 GLY6        0.0000 
     87 CA         79.6600   50.2100   62.8000 C.3       5 GLY6        0.0000 
     88 CA         78.3200   51.6300   63.6200 C.3       5 GLY6        0.0000 
     89 CA         77.5200   52.7800   63.0600 C.3       5 GLY6        0.0000 
     90 CA         76.7200   53.9200   62.5100 C.3       5 GLY6        0.0000 
     91 CA         82.4000   48.8500   64.1600 C.3       5 GLY6        0.0000 
     92 CA         81.0600   50.2700   64.9800 C.3       5 GLY6        0.0000 
     93 CA         81.6000   49.9900   63.6100 C.3       5 GLY6        0.0000 
     94 CA         80.8100   51.1300   63.0600 C.3       5 GLY6        0.0000 
     95 CA         80.0100   52.2800   62.5000 C.3       5 GLY6        0.0000 
     96 CA         85.4300   48.0600   62.2300 C.3       5 GLY6        0.0000 
     97 CA         82.4700   50.3400   67.1600 C.3       5 GLY6        0.0000 
     98 CA         83.0100   50.0600   65.7900 C.3       5 GLY6        0.0000 
     99 CA         83.5500   49.7700   64.4200 C.3       5 GLY6        0.0000 
    100 DU         74.1400   51.4900   65.2900 H         6 CUB7        0.0000 
    101 DU         82.2100   51.2000   65.2400 H         6 CUB7        0.0000 
    102 DU         82.7500   50.9200   63.8700 H         6 CUB7        0.0000 
    103 DU         81.4200   52.3500   64.6900 H         6 CUB7        0.0000 
    104 DU         81.9600   52.0600   63.3200 H         6 CUB7        0.0000 
    105 DU         83.3600   52.1300   65.5000 H         6 CUB7        0.0000 
    106 DU         83.9000   51.8400   64.1300 H         6 CUB7        0.0000 
    107 DU         82.5700   53.2700   64.9500 H         6 CUB7        0.0000 
    108 DU         83.1100   52.9900   63.5700 H         6 CUB7        0.0000 
    109 DU         81.7700   54.4200   64.3900 H         6 CUB7        0.0000 
    110 DU         83.7200   54.2000   65.2000 H         6 CUB7        0.0000 
    111 DU         84.2600   53.9200   63.8300 H         6 CUB7        0.0000 
    112 DU         84.7900   53.6300   62.4600 H         6 CUB7        0.0000 
    113 DU         82.9200   55.3500   64.6500 H         6 CUB7        0.0000 
    114 DU         82.1200   56.4900   64.1000 H         6 CUB7        0.0000 
    115 DU         84.8700   55.1300   65.4600 H         6 CUB7        0.0000 
    116 DU         85.4000   54.8400   64.0900 H         6 CUB7        0.0000 
@<TRIPOS>BOND
@<TRIPOS>SUBSTRUCTURE
     1 SER1        1 GROUP   
     2 ALA2        9 GROUP   
     3 LYS4       54 GROUP   
     4 PHE5       58 GROUP   
     5 GLY6       80 GROUP   
     6 CUB7      100 GROUP   
@<TRIPOS>SET

