#    Name: 5o8r_1_FAD
#    Modification time : Fri May 22 19:18:07 2020

@<TRIPOS>MOLECULE
5o8r_1_FAD
   53    58     1     0     1
SMALL
NO_CHARGES


@<TRIPOS>ATOM
      1 PA        108.3370   23.0180   59.2180 P.3       1 FAD501      0.0000 
      2 O1A       109.0290   23.4940   57.9550 O.co2     1 FAD501      0.0000 
      3 O2A       108.3490   24.0550   60.3280 O.co2     1 FAD501      0.0000 
      4 O5B       106.7840   22.7700   58.7780 O.3       1 FAD501      0.0000 
      5 C5B       106.0000   21.9310   59.6290 C.3       1 FAD501      0.0000 
      6 C4B       104.4880   22.1830   59.6720 C.3       1 FAD501      0.0000 
      7 O4B       103.9400   21.9970   60.9920 O.3       1 FAD501      0.0000 
      8 C3B       103.9800   23.5600   59.2710 C.3       1 FAD501      0.0000 
      9 O3B       103.4740   23.3760   57.9400 O.3       1 FAD501      0.0000 
     10 C2B       102.9520   23.9270   60.3600 C.3       1 FAD501      0.0000 
     11 O2B       101.7750   24.5510   59.8440 O.3       1 FAD501      0.0000 
     12 C1B       102.6360   22.5520   60.9480 C.3       1 FAD501      0.0000 
     13 N9A       101.8790   22.4370   62.2430 N.pl3     1 FAD501      0.0000 
     14 C8A       102.2120   22.9380   63.4710 C.2       1 FAD501      0.0000 
     15 N7A       101.2670   22.6170   64.4120 N.2       1 FAD501      0.0000 
     16 C5A       100.3160   21.8950   63.7700 C.ar      1 FAD501      0.0000 
     17 C6A        99.0270   21.2740   64.1310 C.ar      1 FAD501      0.0000 
     18 N6A        98.5790   21.3410   65.3980 N.pl3     1 FAD501      0.0000 
     19 N1A        98.3150   20.6210   63.1880 N.ar      1 FAD501      0.0000 
     20 C2A        98.7400   20.5380   61.9230 C.ar      1 FAD501      0.0000 
     21 N3A        99.8880   21.1070   61.4900 N.ar      1 FAD501      0.0000 
     22 C4A       100.7080   21.7700   62.3520 C.ar      1 FAD501      0.0000 
     23 N1        118.8730   22.5910   56.8400 N.2       1 FAD501      0.0000 
     24 C2        119.7840   22.2180   55.9000 C.2       1 FAD501      0.0000 
     25 O2        120.4970   21.2470   56.1610 O.2       1 FAD501      0.0000 
     26 N3        119.9420   22.8370   54.6990 N.am      1 FAD501      0.0000 
     27 C4        119.2160   23.9170   54.3350 C.2       1 FAD501      0.0000 
     28 O4        119.4220   24.4880   53.2220 O.2       1 FAD501      0.0000 
     29 C4X       118.1740   24.3930   55.3160 C.2       1 FAD501      0.0000 
     30 N5        117.3860   25.4670   55.0340 N.2       1 FAD501      0.0000 
     31 C5X       116.4590   25.9010   55.9410 C.ar      1 FAD501      0.0000 
     32 C6        115.6320   27.0060   55.6930 C.ar      1 FAD501      0.0000 
     33 C7        114.6700   27.4170   56.6400 C.ar      1 FAD501      0.0000 
     34 C7M       113.8260   28.5630   56.3190 C.3       1 FAD501      0.0000 
     35 C8        114.4620   26.7400   57.9420 C.ar      1 FAD501      0.0000 
     36 C8M       113.4650   27.1000   59.0250 C.3       1 FAD501      0.0000 
     37 C9        115.2960   25.6870   58.1510 C.ar      1 FAD501      0.0000 
     38 C9A       116.2680   25.1990   57.2530 C.ar      1 FAD501      0.0000 
     39 N10       117.0730   24.0670   57.5940 N.pl3     1 FAD501      0.0000 
     40 C10       118.0440   23.6440   56.6310 C.2       1 FAD501      0.0000 
     41 C1'       116.8340   23.4200   58.9220 C.3       1 FAD501      0.0000 
     42 C2'       115.4400   22.7230   59.0270 C.3       1 FAD501      0.0000 
     43 O2'       115.0800   22.4250   57.6580 O.3       1 FAD501      0.0000 
     44 C3'       114.2520   23.4730   59.7610 C.3       1 FAD501      0.0000 
     45 O3'       114.6530   24.2680   60.9160 O.3       1 FAD501      0.0000 
     46 C4'       113.0360   22.6220   60.1440 C.3       1 FAD501      0.0000 
     47 O4'       113.2840   21.7050   61.2180 O.3       1 FAD501      0.0000 
     48 C5'       112.5230   21.8730   58.9210 C.3       1 FAD501      0.0000 
     49 O5'       111.1380   21.8440   59.0170 O.3       1 FAD501      0.0000 
     50 P         110.2950   20.6960   59.7470 P.3       1 FAD501      0.0000 
     51 O1P       110.1000   19.5300   58.8030 O.co2     1 FAD501      0.0000 
     52 O2P       110.9150   20.4090   61.1040 O.co2     1 FAD501      0.0000 
     53 O3P       108.8700   21.5440   59.8470 O.3       1 FAD501      0.0000 
@<TRIPOS>BOND
     1    1    2 ar   
     2    1    3 ar   
     3    1    4 1    
     4    1   53 1    
     5    4    5 1    
     6    5    6 1    
     7    6    7 1    
     8    6    8 1    
     9    7   12 1    
    10    8    9 1    
    11    8   10 1    
    12   10   11 1    
    13   10   12 1    
    14   12   13 1    
    15   13   14 1    
    16   13   22 1    
    17   14   15 2    
    18   15   16 1    
    19   16   17 ar   
    20   16   22 ar   
    21   17   18 1    
    22   17   19 ar   
    23   19   20 ar   
    24   20   21 ar   
    25   21   22 ar   
    26   23   24 1    
    27   23   40 2    
    28   24   25 2    
    29   24   26 am   
    30   26   27 am   
    31   27   28 2    
    32   27   29 1    
    33   29   30 2    
    34   29   40 1    
    35   30   31 1    
    36   31   32 ar   
    37   31   38 ar   
    38   32   33 ar   
    39   33   34 1    
    40   33   35 ar   
    41   35   36 1    
    42   35   37 ar   
    43   37   38 ar   
    44   38   39 1    
    45   39   40 1    
    46   39   41 1    
    47   41   42 1    
    48   42   43 1    
    49   42   44 1    
    50   44   45 1    
    51   44   46 1    
    52   46   47 1    
    53   46   48 1    
    54   48   49 1    
    55   49   50 1    
    56   50   51 ar   
    57   50   52 ar   
    58   50   53 1    
@<TRIPOS>SUBSTRUCTURE
     1 FAD501      1 GROUP   
@<TRIPOS>SET
ATOM$ORANGE STATIC     ATOMS   COLORGROUP SYSTEM 
54 5 5 6 6 8 8 10 10 12 12 14 14 16 16 17 17 20 \
20 22 22 24 24 27 27 29 29 31 31 32 32 33 33 34 34 35 \
35 36 36 37 37 38 38 40 40 41 41 42 42 44 44 46 46 48 \
48 

