#    Name: 6i5z_1_SAH
#    Modification time : Fri May 22 19:28:20 2020

@<TRIPOS>MOLECULE
6i5z_1_SAH
   26    28     1     0     0
SMALL
NO_CHARGES


@<TRIPOS>ATOM
      1 N          -7.0610   36.7270   37.6320 N.4       1 SAH401      0.0000 
      2 CA         -7.1110   38.0720   38.1980 C.3       1 SAH401      0.0000 
      3 CB         -6.6840   37.9630   39.6860 C.3       1 SAH401      0.0000 
      4 CG         -5.2380   38.1780   40.2210 C.3       1 SAH401      0.0000 
      5 SD         -4.7640   37.0710   41.5690 S.3       1 SAH401      0.0000 
      6 C          -6.3700   38.9720   37.2150 C.2       1 SAH401      0.0000 
      7 O          -6.4140   40.3090   37.2490 O.co2     1 SAH401      0.0000 
      8 OXT        -5.7450   38.5230   36.2770 O.co2     1 SAH401      0.0000 
      9 C5'        -5.3620   37.3000   43.1820 C.3       1 SAH401      0.0000 
     10 C4'        -6.6270   38.1410   43.2760 C.3       1 SAH401      0.0000 
     11 O4'        -7.4390   37.3360   44.0990 O.3       1 SAH401      0.0000 
     12 C3'        -6.4240   39.4680   44.0100 C.3       1 SAH401      0.0000 
     13 O3'        -6.9570   40.6400   43.3700 O.3       1 SAH401      0.0000 
     14 C2'        -6.9820   39.1920   45.3930 C.3       1 SAH401      0.0000 
     15 O2'        -7.5550   40.2770   46.0890 O.3       1 SAH401      0.0000 
     16 C1'        -7.9970   38.1370   45.1340 C.3       1 SAH401      0.0000 
     17 N9         -8.2770   37.4140   46.3960 N.pl3     1 SAH401      0.0000 
     18 C8         -7.4320   36.8230   47.2120 C.2       1 SAH401      0.0000 
     19 N7         -8.0810   36.2820   48.2700 N.2       1 SAH401      0.0000 
     20 C5         -9.3500   36.5070   48.1340 C.ar      1 SAH401      0.0000 
     21 C6        -10.5490   36.1640   48.8790 C.ar      1 SAH401      0.0000 
     22 N6        -10.5400   35.4800   50.0120 N.pl3     1 SAH401      0.0000 
     23 N1        -11.6950   36.5640   48.3570 N.ar      1 SAH401      0.0000 
     24 C2        -11.7780   37.2600   47.1890 C.ar      1 SAH401      0.0000 
     25 N3        -10.7260   37.6140   46.4420 N.ar      1 SAH401      0.0000 
     26 C4         -9.4950   37.2460   46.8790 C.ar      1 SAH401      0.0000 
@<TRIPOS>BOND
     1    1    2 1    
     2    2    3 1    
     3    2    6 1    
     4    3    4 1    
     5    4    5 1    
     6    5    9 1    
     7    6    7 ar   
     8    6    8 ar   
     9    9   10 1    
    10   10   11 1    
    11   10   12 1    
    12   11   16 1    
    13   12   13 1    
    14   12   14 1    
    15   14   15 1    
    16   14   16 1    
    17   16   17 1    
    18   17   18 1    
    19   17   26 1    
    20   18   19 2    
    21   19   20 1    
    22   20   21 ar   
    23   20   26 ar   
    24   21   22 1    
    25   21   23 ar   
    26   23   24 ar   
    27   24   25 ar   
    28   25   26 ar   
@<TRIPOS>SUBSTRUCTURE
     1 SAH401      1 GROUP   
@<TRIPOS>SET

