#    Name: 6i5z_3_SAM
#    Modification time : Fri May 22 19:28:32 2020

@<TRIPOS>MOLECULE
6i5z_3_SAM
   27    29     1     0     0
SMALL
NO_CHARGES


@<TRIPOS>ATOM
      1 N          48.3250   38.6940   36.6020 N.4       1 SAM401      0.0000 
      2 CA         47.5600   38.4840   37.8630 C.3       1 SAM401      0.0000 
      3 C          47.0860   37.0340   37.9170 C.2       1 SAM401      0.0000 
      4 O          46.8780   36.5310   39.0410 O.co2     1 SAM401      0.0000 
      5 OXT        46.9110   36.4810   36.8240 O.co2     1 SAM401      0.0000 
      6 CB         46.3260   39.3870   37.9340 C.3       1 SAM401      0.0000 
      7 CG         46.5300   40.8040   37.4390 C.3       1 SAM401      0.0000 
      8 SD         45.3040   41.9000   38.2110 S.3       1 SAM401      0.0000 
      9 CE         43.8760   41.8060   37.1360 C.3       1 SAM401      0.0000 
     10 C5'        46.0400   43.5350   37.8340 C.3       1 SAM401      0.0000 
     11 C4'        47.2720   43.8910   38.6730 C.3       1 SAM401      0.0000 
     12 O4'        47.7740   45.1780   38.2580 O.3       1 SAM401      0.0000 
     13 C3'        47.0700   44.0420   40.1840 C.3       1 SAM401      0.0000 
     14 O3'        47.7440   43.0290   40.9200 O.3       1 SAM401      0.0000 
     15 C2'        47.5830   45.4580   40.4900 C.3       1 SAM401      0.0000 
     16 O2'        48.2920   45.6370   41.6900 O.3       1 SAM401      0.0000 
     17 C1'        48.5140   45.6890   39.3280 C.3       1 SAM401      0.0000 
     18 N9         48.7960   47.0960   39.1070 N.pl3     1 SAM401      0.0000 
     19 C8         47.8930   48.1120   38.9490 C.2       1 SAM401      0.0000 
     20 N7         48.4460   49.2940   38.7920 N.2       1 SAM401      0.0000 
     21 C5         49.8030   49.0420   38.8630 C.ar      1 SAM401      0.0000 
     22 C6         50.9250   49.8900   38.7930 C.ar      1 SAM401      0.0000 
     23 N6         50.8630   51.2100   38.6450 N.pl3     1 SAM401      0.0000 
     24 N1         52.1380   49.3110   38.9310 N.ar      1 SAM401      0.0000 
     25 C2         52.2040   47.9790   39.0830 C.ar      1 SAM401      0.0000 
     26 N3         51.2210   47.0840   39.1660 N.ar      1 SAM401      0.0000 
     27 C4         50.0290   47.6880   39.0530 C.ar      1 SAM401      0.0000 
@<TRIPOS>BOND
     1    1    2 1    
     2    2    3 1    
     3    2    6 1    
     4    3    4 ar   
     5    3    5 ar   
     6    6    7 1    
     7    7    8 1    
     8    8    9 1    
     9    8   10 1    
    10   10   11 1    
    11   11   12 1    
    12   11   13 1    
    13   12   17 1    
    14   13   14 1    
    15   13   15 1    
    16   15   16 1    
    17   15   17 1    
    18   17   18 1    
    19   18   19 1    
    20   18   27 1    
    21   19   20 2    
    22   20   21 1    
    23   21   22 ar   
    24   21   27 ar   
    25   22   23 1    
    26   22   24 ar   
    27   24   25 ar   
    28   25   26 ar   
    29   26   27 ar   
@<TRIPOS>SUBSTRUCTURE
     1 SAM401      1 GROUP   
@<TRIPOS>SET

