#    Name: 6i5z_1_SAH_CAVITY_N1_4
#    Modification time : Fri May 22 19:28:21 2020

@<TRIPOS>MOLECULE
6i5z_1_SAH_CAVITY_N1_4
   57     0     6     0     0
SMALL
NO_CHARGES


@<TRIPOS>ATOM
      1 OG         -6.5300   40.3700   36.5300 O.3       1 SER1        0.0000 
      2 OG         -6.0400   40.5900   35.1300 O.3       1 SER1        0.0000 
      3 OG         -4.0800   40.0600   35.7400 O.3       1 SER1        0.0000 
      4 OG         -4.8600   41.3400   35.6600 O.3       1 SER1        0.0000 
      5 N          -8.2100   39.4000   37.4000 N.am      2 ALA2        0.0000 
      6 N          -5.9600   37.3700   39.4800 N.am      2 ALA2        0.0000 
      7 N          -5.4700   37.5900   38.0800 N.am      2 ALA2        0.0000 
      8 N          -6.7400   38.6600   39.4100 N.am      2 ALA2        0.0000 
      9 N          -7.0200   40.1500   37.9300 N.am      2 ALA2        0.0000 
     10 N          -7.8000   41.4300   37.8600 N.am      2 ALA2        0.0000 
     11 N          -4.0000   36.8400   40.0900 N.am      2 ALA2        0.0000 
     12 O          -7.4000   43.4600   38.3200 O.2       2 ALA2        0.0000 
     13 OD1        -5.2600   39.3100   35.2000 O.co2     3 ASP3        0.0000 
     14 CZ         -4.9800   37.8100   36.6800 C.ar      4 PHE5        0.0000 
     15 CZ         -4.2800   38.3400   38.6100 C.ar      4 PHE5        0.0000 
     16 CZ         -3.7900   38.5600   37.2100 C.ar      4 PHE5        0.0000 
     17 CZ         -2.3200   37.8100   39.2200 C.ar      4 PHE5        0.0000 
     18 CZ         -2.6100   39.3100   37.7400 C.ar      4 PHE5        0.0000 
     19 CZ         -2.1200   39.5300   36.3400 C.ar      4 PHE5        0.0000 
     20 CA         -7.4300   38.1200   37.4700 C.3       5 GLY6        0.0000 
     21 CA         -6.9400   38.3400   36.0700 C.3       5 GLY6        0.0000 
     22 CA         -5.7600   39.0900   36.6100 C.3       5 GLY6        0.0000 
     23 CA         -7.5200   39.9400   39.3300 C.3       5 GLY6        0.0000 
     24 CA         -7.3100   41.6500   36.4600 C.3       5 GLY6        0.0000 
     25 CA         -6.8200   41.8700   35.0600 C.3       5 GLY6        0.0000 
     26 CA         -3.5100   37.0600   38.6800 C.3       5 GLY6        0.0000 
     27 CA         -6.8200   40.4700   41.2700 C.3       5 GLY6        0.0000 
     28 CA         -6.3300   40.6900   39.8700 C.3       5 GLY6        0.0000 
     29 CA         -7.1100   41.9700   39.7900 C.3       5 GLY6        0.0000 
     30 CA         -6.6200   42.1800   38.3900 C.3       5 GLY6        0.0000 
     31 CA         -6.1300   42.4000   36.9900 C.3       5 GLY6        0.0000 
     32 CA         -5.6400   42.6200   35.5900 C.3       5 GLY6        0.0000 
     33 CA         -3.3900   40.5900   37.6700 C.3       5 GLY6        0.0000 
     34 CA         -2.8900   40.8100   36.2700 C.3       5 GLY6        0.0000 
     35 CA         -3.6700   42.0900   36.2000 C.3       5 GLY6        0.0000 
     36 CA         -6.4100   42.5000   41.7200 C.3       5 GLY6        0.0000 
     37 CA         -5.9200   42.7200   40.3200 C.3       5 GLY6        0.0000 
     38 CA         -7.1900   43.7800   41.6500 C.3       5 GLY6        0.0000 
     39 CA         -1.9100   39.8400   39.6800 C.3       5 GLY6        0.0000 
     40 CA         -2.6900   41.1200   39.6000 C.3       5 GLY6        0.0000 
     41 CA         -6.5000   44.3100   43.5800 C.3       5 GLY6        0.0000 
     42 DU         -6.2500   38.8700   38.0100 H         6 CUB7        0.0000 
     43 DU         -4.7700   38.1300   40.0100 H         6 CUB7        0.0000 
     44 DU         -5.5500   39.4100   39.9400 H         6 CUB7        0.0000 
     45 DU         -5.0600   39.6200   38.5400 H         6 CUB7        0.0000 
     46 DU         -4.5700   39.8400   37.1400 H         6 CUB7        0.0000 
     47 DU         -5.8400   40.9000   38.4600 H         6 CUB7        0.0000 
     48 DU         -5.3500   41.1200   37.0600 H         6 CUB7        0.0000 
     49 DU         -3.5900   38.8800   40.5400 H         6 CUB7        0.0000 
     50 DU         -3.1000   39.0900   39.1400 H         6 CUB7        0.0000 
     51 DU         -3.8800   40.3700   39.0700 H         6 CUB7        0.0000 
     52 DU         -5.6400   41.2200   41.8000 H         6 CUB7        0.0000 
     53 DU         -5.1500   41.4400   40.4000 H         6 CUB7        0.0000 
     54 DU         -4.1600   41.8700   37.6000 H         6 CUB7        0.0000 
     55 DU         -5.4300   42.9300   38.9200 H         6 CUB7        0.0000 
     56 DU         -4.9400   43.1500   37.5200 H         6 CUB7        0.0000 
     57 DU         -4.4500   43.3700   36.1200 H         6 CUB7        0.0000 
@<TRIPOS>BOND
@<TRIPOS>SUBSTRUCTURE
     1 SER1        1 GROUP   
     2 ALA2        5 GROUP   
     3 ASP3       13 GROUP   
     4 PHE5       14 GROUP   
     5 GLY6       20 GROUP   
     6 CUB7       42 GROUP   
@<TRIPOS>SET

