#    Name: 6i5z_2_SAH
#    Modification time : Fri May 22 19:28:26 2020

@<TRIPOS>MOLECULE
6i5z_2_SAH
   26    28     1     0     0
SMALL
NO_CHARGES


@<TRIPOS>ATOM
      1 N         -46.0430   90.4120  -11.9870 N.4       1 SAH401      0.0000 
      2 CA        -45.9170   91.2490  -10.7590 C.3       1 SAH401      0.0000 
      3 CB        -46.4760   90.6380   -9.4640 C.3       1 SAH401      0.0000 
      4 CG        -46.7920   89.1520   -9.5150 C.3       1 SAH401      0.0000 
      5 SD        -47.2630   88.6500   -7.8880 S.3       1 SAH401      0.0000 
      6 C         -44.4880   91.6130  -10.4790 C.2       1 SAH401      0.0000 
      7 O         -44.1730   92.2410   -9.3490 O.co2     1 SAH401      0.0000 
      8 OXT       -43.6050   91.3380  -11.2590 O.co2     1 SAH401      0.0000 
      9 C5'       -48.9540   88.1870   -7.8200 C.3       1 SAH401      0.0000 
     10 C4'       -49.8160   89.3940   -8.1470 C.3       1 SAH401      0.0000 
     11 O4'       -51.0440   88.8130   -8.4980 O.3       1 SAH401      0.0000 
     12 C3'       -50.0760   90.3590   -6.9910 C.3       1 SAH401      0.0000 
     13 O3'       -49.9000   91.7380   -7.3890 O.3       1 SAH401      0.0000 
     14 C2'       -51.4810   90.0380   -6.5100 C.3       1 SAH401      0.0000 
     15 O2'       -52.2130   91.1840   -6.0620 O.3       1 SAH401      0.0000 
     16 C1'       -52.0740   89.4730   -7.7790 C.3       1 SAH401      0.0000 
     17 N9        -53.2050   88.5580   -7.5870 N.pl3     1 SAH401      0.0000 
     18 C8        -53.3820   87.5530   -6.7260 C.2       1 SAH401      0.0000 
     19 N7        -54.5960   86.9730   -6.9100 N.2       1 SAH401      0.0000 
     20 C5        -55.1790   87.6310   -7.9000 C.ar      1 SAH401      0.0000 
     21 C6        -56.4640   87.5670   -8.5950 C.ar      1 SAH401      0.0000 
     22 N6        -57.3890   86.6530   -8.2950 N.pl3     1 SAH401      0.0000 
     23 N1        -56.6660   88.4500   -9.5760 N.ar      1 SAH401      0.0000 
     24 C2        -55.7410   89.3810   -9.9210 C.ar      1 SAH401      0.0000 
     25 N3        -54.5490   89.5180   -9.3270 N.ar      1 SAH401      0.0000 
     26 C4        -54.2470   88.6660   -8.3420 C.ar      1 SAH401      0.0000 
@<TRIPOS>BOND
     1    1    2 1    
     2    2    3 1    
     3    2    6 1    
     4    3    4 1    
     5    4    5 1    
     6    5    9 1    
     7    6    7 ar   
     8    6    8 ar   
     9    9   10 1    
    10   10   11 1    
    11   10   12 1    
    12   11   16 1    
    13   12   13 1    
    14   12   14 1    
    15   14   15 1    
    16   14   16 1    
    17   16   17 1    
    18   17   18 1    
    19   17   26 1    
    20   18   19 2    
    21   19   20 1    
    22   20   21 ar   
    23   20   26 ar   
    24   21   22 1    
    25   21   23 ar   
    26   23   24 ar   
    27   24   25 ar   
    28   25   26 ar   
@<TRIPOS>SUBSTRUCTURE
     1 SAH401      1 GROUP   
@<TRIPOS>SET

