#    Name: 6i5z_2_SAH_CAVITY_N1_12
#    Modification time : Fri May 22 19:28:27 2020

@<TRIPOS>MOLECULE
6i5z_2_SAH_CAVITY_N1_12
   80     0     6     0     0
SMALL
NO_CHARGES


@<TRIPOS>ATOM
      1 OG        -44.0900   92.0900  -11.9600 O.3       1 SER1        0.0000 
      2 OG        -44.8600   93.3700  -12.0400 O.3       1 SER1        0.0000 
      3 OG        -43.6800   94.1200  -11.5100 O.3       1 SER1        0.0000 
      4 OG        -42.2100   93.3800   -9.5000 O.3       1 SER1        0.0000 
      5 OG        -42.4900   94.8700  -10.9700 O.3       1 SER1        0.0000 
      6 N         -47.9300   89.9400   -8.8300 N.am      2 ALA2        0.0000 
      7 N         -45.6800   87.9100   -6.7500 N.am      2 ALA2        0.0000 
      8 N         -45.1900   88.1300   -8.1500 N.am      2 ALA2        0.0000 
      9 N         -45.9700   89.4100   -8.2200 N.am      2 ALA2        0.0000 
     10 N         -45.4800   89.6300   -9.6200 N.am      2 ALA2        0.0000 
     11 N         -46.2500   90.9100   -9.7000 N.am      2 ALA2        0.0000 
     12 N         -45.7600   91.1300  -11.1000 N.am      2 ALA2        0.0000 
     13 N         -45.2700   91.3400  -12.5000 N.am      2 ALA2        0.0000 
     14 O         -47.0300   92.1900   -9.7700 O.2       2 ALA2        0.0000 
     15 N         -46.5400   92.4100  -11.1700 N.am      2 ALA2        0.0000 
     16 N         -45.8500   92.9400   -9.2400 N.am      2 ALA2        0.0000 
     17 N         -45.3600   93.1600  -10.6400 N.am      2 ALA2        0.0000 
     18 N         -46.6200   94.2200   -9.3100 N.am      2 ALA2        0.0000 
     19 N         -44.9500   93.7800   -3.9700 N.am      2 ALA2        0.0000 
     20 N         -42.9900   93.2500   -3.3700 N.am      2 ALA2        0.0000 
     21 N         -41.5100   93.9100   -7.5700 N.am      2 ALA2        0.0000 
     22 N         -43.7700   94.5300   -3.4400 N.am      2 ALA2        0.0000 
     23 OD1       -44.5800   91.8800  -10.5600 O.co2     3 ASP3        0.0000 
     24 OD1       -42.6100   91.3500   -9.9600 O.co2     3 ASP3        0.0000 
     25 OD1       -43.3900   92.6300  -10.0300 O.co2     3 ASP3        0.0000 
     26 OD1       -41.4300   92.1000   -9.4300 O.co2     3 ASP3        0.0000 
     27 CZ        -44.0000   88.8800   -7.6200 C.ar      4 PHE5        0.0000 
     28 CZ        -43.5100   89.1000   -9.0200 C.ar      4 PHE5        0.0000 
     29 CZ        -44.2900   90.3800   -9.0900 C.ar      4 PHE5        0.0000 
     30 CZ        -43.8000   90.6000  -10.4900 C.ar      4 PHE5        0.0000 
     31 CZ        -42.8200   89.6300   -7.0800 C.ar      4 PHE5        0.0000 
     32 CZ        -43.1100   91.1300   -8.5600 C.ar      4 PHE5        0.0000 
     33 CZ        -41.9200   91.8800   -8.0300 C.ar      4 PHE5        0.0000 
     34 CA        -48.0100   91.7500   -6.9700 C.3       5 GLY6        0.0000 
     35 CA        -47.5200   91.9700   -8.3700 C.3       5 GLY6        0.0000 
     36 CA        -46.3400   92.7200   -7.8400 C.3       5 GLY6        0.0000 
     37 CA        -47.1200   94.0000   -7.9100 C.3       5 GLY6        0.0000 
     38 CA        -44.5800   90.4700   -4.3600 C.3       5 GLY6        0.0000 
     39 CA        -44.0900   90.6900   -5.7600 C.3       5 GLY6        0.0000 
     40 CA        -45.4400   94.9700   -8.7800 C.3       5 GLY6        0.0000 
     41 CA        -44.9500   95.1900  -10.1800 C.3       5 GLY6        0.0000 
     42 CA        -41.6300   90.3800   -6.5500 C.3       5 GLY6        0.0000 
     43 CA        -42.9000   91.4400   -5.2200 C.3       5 GLY6        0.0000 
     44 CA        -42.4100   91.6600   -6.6200 C.3       5 GLY6        0.0000 
     45 CA        -44.6600   92.2900   -2.5000 C.3       5 GLY6        0.0000 
     46 CA        -44.1700   92.5000   -3.9000 C.3       5 GLY6        0.0000 
     47 CA        -43.6800   92.7200   -5.3000 C.3       5 GLY6        0.0000 
     48 CA        -43.1900   92.9400   -6.7000 C.3       5 GLY6        0.0000 
     49 CA        -42.9900   94.6600   -9.5700 C.3       5 GLY6        0.0000 
     50 CA        -44.2500   95.7200   -8.2500 C.3       5 GLY6        0.0000 
     51 CA        -42.5000   93.4700   -4.7700 C.3       5 GLY6        0.0000 
     52 CA        -42.0100   93.6900   -6.1700 C.3       5 GLY6        0.0000 
     53 CA        -41.0200   94.1300   -8.9700 C.3       5 GLY6        0.0000 
     54 CA        -41.8000   95.4100   -9.0400 C.3       5 GLY6        0.0000 
     55 CA        -43.0700   96.4700   -7.7100 C.3       5 GLY6        0.0000 
     56 DU        -46.4600   89.1900   -6.8200 H         6 CUB7        0.0000 
     57 DU        -46.7400   90.6900   -8.3000 H         6 CUB7        0.0000 
     58 DU        -44.4900   88.6600   -6.2200 H         6 CUB7        0.0000 
     59 DU        -45.2700   89.9400   -6.2900 H         6 CUB7        0.0000 
     60 DU        -44.7800   90.1600   -7.6900 H         6 CUB7        0.0000 
     61 DU        -45.0700   91.6600   -9.1600 H         6 CUB7        0.0000 
     62 DU        -46.8300   92.5000   -6.4400 H         6 CUB7        0.0000 
     63 DU        -43.6000   90.9100   -7.1600 H         6 CUB7        0.0000 
     64 DU        -44.8700   91.9700   -5.8300 H         6 CUB7        0.0000 
     65 DU        -44.3700   92.1900   -7.2300 H         6 CUB7        0.0000 
     66 DU        -43.8800   92.4100   -8.6300 H         6 CUB7        0.0000 
     67 DU        -45.1500   93.4700   -7.3000 H         6 CUB7        0.0000 
     68 DU        -44.6600   93.6900   -8.7000 H         6 CUB7        0.0000 
     69 DU        -44.1700   93.9100  -10.1000 H         6 CUB7        0.0000 
     70 DU        -46.4200   94.5300   -5.9800 H         6 CUB7        0.0000 
     71 DU        -45.9300   94.7500   -7.3800 H         6 CUB7        0.0000 
     72 DU        -42.7000   93.1600   -8.1000 H         6 CUB7        0.0000 
     73 DU        -44.4600   94.0000   -5.3700 H         6 CUB7        0.0000 
     74 DU        -43.4800   94.4400   -8.1700 H         6 CUB7        0.0000 
     75 DU        -45.2400   95.2800   -5.4400 H         6 CUB7        0.0000 
     76 DU        -44.7500   95.5000   -6.8500 H         6 CUB7        0.0000 
     77 DU        -43.2700   94.7500   -4.8400 H         6 CUB7        0.0000 
     78 DU        -42.7800   94.9700   -6.2400 H         6 CUB7        0.0000 
     79 DU        -42.2900   95.1900   -7.6400 H         6 CUB7        0.0000 
     80 DU        -43.5600   96.2500   -6.3100 H         6 CUB7        0.0000 
@<TRIPOS>BOND
@<TRIPOS>SUBSTRUCTURE
     1 SER1        1 GROUP   
     2 ALA2        6 GROUP   
     3 ASP3       23 GROUP   
     4 PHE5       27 GROUP   
     5 GLY6       34 GROUP   
     6 CUB7       56 GROUP   
@<TRIPOS>SET

