#    Name: 5mlv_11_ANP_CAVITY_N1_4
#    Modification time : Fri May 22 19:18:03 2020

@<TRIPOS>MOLECULE
5mlv_11_ANP_CAVITY_N1_4
    1     0     1     0     0
SMALL
NO_CHARGES


@<TRIPOS>ATOM
      1 CA         80.0200  145.1400  137.7500 C.3       1 GLY6        0.0000 
@<TRIPOS>BOND
@<TRIPOS>SUBSTRUCTURE
     1 GLY6        1 GROUP   
@<TRIPOS>SET

