#    Name: 5mlv_7_ANP_CAVITY_N1_4
#    Modification time : Fri May 22 19:17:48 2020

@<TRIPOS>MOLECULE
5mlv_7_ANP_CAVITY_N1_4
   46     0     5     0     0
SMALL
NO_CHARGES


@<TRIPOS>ATOM
      1 N          75.7600  142.9500  215.8800 N.am      1 ALA2        0.0000 
      2 O          77.0800  143.0600  215.1800 O.2       1 ALA2        0.0000 
      3 N          76.5900  144.2900  214.4600 N.am      1 ALA2        0.0000 
      4 N          76.1000  145.5200  213.7500 N.am      1 ALA2        0.0000 
      5 O          76.7600  142.5700  217.7100 O.2       1 ALA2        0.0000 
      6 O          73.6400  143.5700  218.4000 O.2       1 ALA2        0.0000 
      7 O          74.4700  144.9100  216.9900 O.2       1 ALA2        0.0000 
      8 N          76.6200  146.3700  214.8700 N.am      1 ALA2        0.0000 
      9 O          75.4700  144.5400  218.8200 O.2       1 ALA2        0.0000 
     10 N          76.9700  142.9400  221.3600 N.am      1 ALA2        0.0000 
     11 O          75.9900  145.3900  219.9300 O.2       1 ALA2        0.0000 
     12 O          77.3100  145.5100  219.2300 O.2       1 ALA2        0.0000 
     13 O          78.3200  145.1400  221.0600 O.2       1 ALA2        0.0000 
     14 OD1        74.1500  144.4200  219.5200 O.co2     2 ASP3        0.0000 
     15 CZ         78.9800  148.2000  216.4000 C.ar      3 PHE5        0.0000 
     16 CZ         80.4700  146.6000  218.9400 C.ar      3 PHE5        0.0000 
     17 CA         77.4200  145.6300  213.0500 C.3       4 GLY6        0.0000 
     18 CA         75.4400  142.4600  218.4100 C.3       4 GLY6        0.0000 
     19 CA         78.0800  142.6900  217.0100 C.3       4 GLY6        0.0000 
     20 CA         74.9600  143.6800  217.7000 C.3       4 GLY6        0.0000 
     21 CA         76.2800  143.8000  217.0000 C.3       4 GLY6        0.0000 
     22 CA         75.7900  145.0300  216.2800 C.3       4 GLY6        0.0000 
     23 CA         77.4500  147.7200  213.4500 C.3       4 GLY6        0.0000 
     24 CA         74.6400  143.1900  220.2300 C.3       4 GLY6        0.0000 
     25 CA         75.9600  143.3100  219.5300 C.3       4 GLY6        0.0000 
     26 CA         77.2800  143.4300  218.8300 C.3       4 GLY6        0.0000 
     27 CA         78.6000  143.5500  218.1200 C.3       4 GLY6        0.0000 
     28 CA         76.3100  145.8800  217.4000 C.3       4 GLY6        0.0000 
     29 CA         77.1400  147.2300  215.9900 C.3       4 GLY6        0.0000 
     30 CA         77.9700  148.5700  214.5700 C.3       4 GLY6        0.0000 
     31 CA         76.4800  144.1700  220.6500 C.3       4 GLY6        0.0000 
     32 CA         77.8000  144.2800  219.9400 C.3       4 GLY6        0.0000 
     33 CA         79.1200  144.4000  219.2400 C.3       4 GLY6        0.0000 
     34 CA         78.6300  145.6300  218.5300 C.3       4 GLY6        0.0000 
     35 CA         76.8300  146.7400  218.5200 C.3       4 GLY6        0.0000 
     36 CA         78.1500  146.8600  217.8200 C.3       4 GLY6        0.0000 
     37 CA         79.4700  146.9700  217.1100 C.3       4 GLY6        0.0000 
     38 CA         77.6600  148.0800  217.1000 C.3       4 GLY6        0.0000 
     39 CA         78.8100  143.9100  221.7700 C.3       4 GLY6        0.0000 
     40 CA         79.6400  145.2600  220.3600 C.3       4 GLY6        0.0000 
     41 CA         79.1500  146.4800  219.6500 C.3       4 GLY6        0.0000 
     42 DU         77.6000  143.9200  216.2900 H         5 CUB7        0.0000 
     43 DU         77.1100  145.1500  215.5800 H         5 CUB7        0.0000 
     44 DU         76.7900  144.6600  218.1100 H         5 CUB7        0.0000 
     45 DU         78.1200  144.7700  217.4100 H         5 CUB7        0.0000 
     46 DU         77.6300  146.0000  216.7000 H         5 CUB7        0.0000 
@<TRIPOS>BOND
@<TRIPOS>SUBSTRUCTURE
     1 ALA2        1 GROUP   
     2 ASP3       14 GROUP   
     3 PHE5       15 GROUP   
     4 GLY6       17 GROUP   
     5 CUB7       42 GROUP   
@<TRIPOS>SET

