#    Name: 5mlv_11_ANP
#    Modification time : Fri May 22 19:18:02 2020

@<TRIPOS>MOLECULE
5mlv_11_ANP
   31    33     1     0     1
SMALL
NO_CHARGES


@<TRIPOS>ATOM
      1 PG         71.9870  142.9480  138.3300 P.3       1 ANP502      0.0000 
      2 O1G        71.2420  141.5650  138.3370 O.co2     1 ANP502      0.0000 
      3 O2G        71.2200  143.9150  139.0990 O.co2     1 ANP502      0.0000 
      4 O3G        73.3940  142.8020  139.0070 O.co2     1 ANP502      0.0000 
      5 PB         73.0860  144.6100  136.1870 P.3       1 ANP502      0.0000 
      6 O1B        72.3680  145.3870  135.1890 O.co2     1 ANP502      0.0000 
      7 O2B        73.4460  145.6070  137.3280 O.co2     1 ANP502      0.0000 
      8 N3B        72.2010  143.3980  136.7910 N.3       1 ANP502      0.0000 
      9 PA         75.7100  144.8300  135.1500 P.3       1 ANP502      0.0000 
     10 O1A        75.3040  145.4930  133.8480 O.co2     1 ANP502      0.0000 
     11 O2A        76.0320  145.8440  136.1740 O.co2     1 ANP502      0.0000 
     12 O3A        74.4350  144.0170  135.6410 O.3       1 ANP502      0.0000 
     13 O5'        76.9910  143.9430  134.8210 O.3       1 ANP502      0.0000 
     14 C5'        78.2880  144.5080  135.1020 C.3       1 ANP502      0.0000 
     15 C4'        79.1200  144.6140  133.8480 C.3       1 ANP502      0.0000 
     16 O4'        78.5030  145.5410  132.9230 O.3       1 ANP502      0.0000 
     17 C3'        80.5420  145.1300  134.0700 C.3       1 ANP502      0.0000 
     18 O3'        81.4570  144.4990  133.1830 O.3       1 ANP502      0.0000 
     19 C2'        80.4040  146.6200  133.7650 C.3       1 ANP502      0.0000 
     20 O2'        81.6320  147.2130  133.3600 O.3       1 ANP502      0.0000 
     21 C1'        79.4140  146.5750  132.6070 C.3       1 ANP502      0.0000 
     22 N9         78.6650  147.8120  132.4240 N.pl3     1 ANP502      0.0000 
     23 C8         77.3260  148.0060  132.6340 C.2       1 ANP502      0.0000 
     24 N7         76.9250  149.2380  132.4300 N.2       1 ANP502      0.0000 
     25 C5         78.0830  149.9020  132.0560 C.ar      1 ANP502      0.0000 
     26 C6         78.3400  151.2430  131.7080 C.ar      1 ANP502      0.0000 
     27 N6         77.4050  152.1970  131.6830 N.pl3     1 ANP502      0.0000 
     28 N1         79.6090  151.5750  131.3850 N.ar      1 ANP502      0.0000 
     29 C2         80.5500  150.6270  131.4100 C.ar      1 ANP502      0.0000 
     30 N3         80.4280  149.3350  131.7230 N.ar      1 ANP502      0.0000 
     31 C4         79.1620  149.0340  132.0420 C.ar      1 ANP502      0.0000 
@<TRIPOS>BOND
     1    1    2 ar   
     2    1    3 ar   
     3    1    4 ar   
     4    1    8 1    
     5    5    6 ar   
     6    5    7 ar   
     7    5    8 1    
     8    5   12 1    
     9    9   10 ar   
    10    9   11 ar   
    11    9   12 1    
    12    9   13 1    
    13   13   14 1    
    14   14   15 1    
    15   15   16 1    
    16   15   17 1    
    17   16   21 1    
    18   17   18 1    
    19   17   19 1    
    20   19   20 1    
    21   19   21 1    
    22   21   22 1    
    23   22   23 1    
    24   22   31 1    
    25   23   24 2    
    26   24   25 1    
    27   25   26 ar   
    28   25   31 ar   
    29   26   27 1    
    30   26   28 ar   
    31   28   29 ar   
    32   29   30 ar   
    33   30   31 ar   
@<TRIPOS>SUBSTRUCTURE
     1 ANP502      1 GROUP   
@<TRIPOS>SET
ATOM$ORANGE STATIC     ATOMS   COLORGROUP SYSTEM 
20 14 14 15 15 17 17 19 19 21 21 23 23 25 25 26 26 29 \
29 31 31 

