#    Name: 5mlv_2_EPB
#    Modification time : Fri May 22 19:16:57 2020

@<TRIPOS>MOLECULE
5mlv_2_EPB
   35    37     1     0     0
SMALL
NO_CHARGES


@<TRIPOS>ATOM
      1 O16        58.7860   92.1630  245.8550 O.2       1 EPB502      0.0000 
      2 C51        54.9580   88.6630  250.2560 C.3       1 EPB502      0.0000 
      3 O41        54.2890   90.5890  248.8360 O.3       1 EPB502      0.0000 
      4 C5         55.3630   89.9690  249.6000 C.3       1 EPB502      0.0000 
      5 C4         55.4470   90.0760  248.1360 C.3       1 EPB502      0.0000 
      6 C16        58.9030   90.9750  245.7090 C.2       1 EPB502      0.0000 
      7 O1         57.8710   90.1040  245.6160 O.3       1 EPB502      0.0000 
      8 C2         56.4590   90.5250  245.8960 C.3       1 EPB502      0.0000 
      9 C3         56.2510   91.0680  247.3140 C.3       1 EPB502      0.0000 
     10 C20        55.7070   91.2480  244.7740 C.2       1 EPB502      0.0000 
     11 C21        54.2310   90.9700  244.7650 C.3       1 EPB502      0.0000 
     12 C22        56.3620   92.0300  243.9040 C.2       1 EPB502      0.0000 
     13 C23        55.9960   92.8110  242.7370 C.2       1 EPB502      0.0000 
     14 N26        54.7480   92.8780  242.1590 N.2       1 EPB502      0.0000 
     15 C25        54.7440   93.6130  241.0820 C.2       1 EPB502      0.0000 
     16 C27        53.5270   93.8500  240.2520 C.3       1 EPB502      0.0000 
     17 C24        56.9430   93.5400  242.0470 C.2       1 EPB502      0.0000 
     18 S1         56.2680   94.3060  240.6650 S.3       1 EPB502      0.0000 
     19 C15        60.2150   90.2590  245.5530 C.3       1 EPB502      0.0000 
     20 C14        61.4320   91.0280  246.0530 C.3       1 EPB502      0.0000 
     21 O14        62.5480   90.7600  245.2010 O.3       1 EPB502      0.0000 
     22 C13        61.9300   90.7910  247.5000 C.3       1 EPB502      0.0000 
     23 C29        62.5100   89.3750  247.6330 C.3       1 EPB502      0.0000 
     24 C30        63.0180   91.8150  247.8550 C.3       1 EPB502      0.0000 
     25 C12        60.7530   91.0010  248.4790 C.2       1 EPB502      0.0000 
     26 O12        60.1900   92.0670  248.4500 O.2       1 EPB502      0.0000 
     27 C11        60.1780   90.0060  249.4770 C.3       1 EPB502      0.0000 
     28 C28        59.0150   89.1790  248.9410 C.3       1 EPB502      0.0000 
     29 C10        59.8210   90.7340  250.7820 C.3       1 EPB502      0.0000 
     30 O10        59.1990   91.9720  250.4650 O.3       1 EPB502      0.0000 
     31 C9         58.9350   89.9390  251.7490 C.3       1 EPB502      0.0000 
     32 C91        59.7770   89.2430  252.8120 C.3       1 EPB502      0.0000 
     33 C8         57.8100   90.7560  252.4020 C.3       1 EPB502      0.0000 
     34 C7         56.4050   90.4580  251.8920 C.3       1 EPB502      0.0000 
     35 C6         56.1400   90.9420  250.4660 C.3       1 EPB502      0.0000 
@<TRIPOS>BOND
     1    1    6 2    
     2    2    4 1    
     3    3    4 1    
     4    3    5 1    
     5    4    5 1    
     6    4   35 1    
     7    5    9 1    
     8    6    7 1    
     9    6   19 1    
    10    7    8 1    
    11    8    9 1    
    12    8   10 1    
    13   10   11 1    
    14   10   12 2    
    15   12   13 1    
    16   13   14 1    
    17   13   17 2    
    18   14   15 2    
    19   15   16 1    
    20   15   18 1    
    21   17   18 1    
    22   19   20 1    
    23   20   21 1    
    24   20   22 1    
    25   22   23 1    
    26   22   24 1    
    27   22   25 1    
    28   25   26 2    
    29   25   27 1    
    30   27   28 1    
    31   27   29 1    
    32   29   30 1    
    33   29   31 1    
    34   31   32 1    
    35   31   33 1    
    36   33   34 1    
    37   34   35 1    
@<TRIPOS>SUBSTRUCTURE
     1 EPB502      1 GROUP   
@<TRIPOS>SET

