#    Name: 5mlv_1_EPB
#    Modification time : Fri May 22 19:16:46 2020

@<TRIPOS>MOLECULE
5mlv_1_EPB
   35    37     1     0     0
SMALL
NO_CHARGES


@<TRIPOS>ATOM
      1 O16        20.6800  117.9430  236.3200 O.2       1 EPB502      0.0000 
      2 C51        18.8880  113.0390  240.6990 C.3       1 EPB502      0.0000 
      3 O41        17.4240  114.4580  239.2790 O.3       1 EPB502      0.0000 
      4 C5         18.6610  114.3880  240.0440 C.3       1 EPB502      0.0000 
      5 C4         18.6890  114.5250  238.5800 C.3       1 EPB502      0.0000 
      6 C16        21.3430  116.9520  236.1660 C.2       1 EPB502      0.0000 
      7 O1         20.8440  115.6980  236.0680 O.3       1 EPB502      0.0000 
      8 C2         19.4010  115.4030  236.3440 C.3       1 EPB502      0.0000 
      9 C3         18.9580  115.7780  237.7630 C.3       1 EPB502      0.0000 
     10 C20        18.3990  115.6900  235.2210 C.2       1 EPB502      0.0000 
     11 C21        17.2350  114.7400  235.1990 C.3       1 EPB502      0.0000 
     12 C22        18.6030  116.6980  234.3600 C.2       1 EPB502      0.0000 
     13 C23        17.9070  117.2190  233.1950 C.2       1 EPB502      0.0000 
     14 N26        16.7750  116.6860  232.6160 N.2       1 EPB502      0.0000 
     15 C25        16.4160  117.3360  231.5450 C.2       1 EPB502      0.0000 
     16 C27        15.2320  116.9640  230.7170 C.3       1 EPB502      0.0000 
     17 C24        18.3870  118.3190  232.5090 C.2       1 EPB502      0.0000 
     18 S1         17.4200  118.6770  231.1330 S.3       1 EPB502      0.0000 
     19 C15        22.8370  116.9410  236.0080 C.3       1 EPB502      0.0000 
     20 C14        23.5470  118.1900  236.5180 C.3       1 EPB502      0.0000 
     21 O14        24.6500  118.4930  235.6600 O.3       1 EPB502      0.0000 
     22 C13        24.1080  118.1990  237.9620 C.3       1 EPB502      0.0000 
     23 C29        25.2780  117.2120  238.0810 C.3       1 EPB502      0.0000 
     24 C30        24.6000  119.6080  238.3230 C.3       1 EPB502      0.0000 
     25 C12        22.9720  117.8290  238.9430 C.2       1 EPB502      0.0000 
     26 O12        21.9780  118.5090  238.9220 O.2       1 EPB502      0.0000 
     27 C11        22.9270  116.6740  239.9350 C.3       1 EPB502      0.0000 
     28 C28        22.2770  115.4070  239.3890 C.3       1 EPB502      0.0000 
     29 C10        22.2760  117.1440  241.2450 C.3       1 EPB502      0.0000 
     30 O10        21.1490  117.9510  240.9350 O.3       1 EPB502      0.0000 
     31 C9         21.8600  116.0210  242.2040 C.3       1 EPB502      0.0000 
     32 C91        22.9240  115.7930  243.2720 C.3       1 EPB502      0.0000 
     33 C8         20.4800  116.2110  242.8510 C.3       1 EPB502      0.0000 
     34 C7         19.3810  115.2900  242.3330 C.3       1 EPB502      0.0000 
     35 C6         18.9170  115.6060  240.9110 C.3       1 EPB502      0.0000 
@<TRIPOS>BOND
     1    1    6 2    
     2    2    4 1    
     3    3    4 1    
     4    3    5 1    
     5    4    5 1    
     6    4   35 1    
     7    5    9 1    
     8    6    7 1    
     9    6   19 1    
    10    7    8 1    
    11    8    9 1    
    12    8   10 1    
    13   10   11 1    
    14   10   12 2    
    15   12   13 1    
    16   13   14 1    
    17   13   17 2    
    18   14   15 2    
    19   15   16 1    
    20   15   18 1    
    21   17   18 1    
    22   19   20 1    
    23   20   21 1    
    24   20   22 1    
    25   22   23 1    
    26   22   24 1    
    27   22   25 1    
    28   25   26 2    
    29   25   27 1    
    30   27   28 1    
    31   27   29 1    
    32   29   30 1    
    33   29   31 1    
    34   31   32 1    
    35   31   33 1    
    36   33   34 1    
    37   34   35 1    
@<TRIPOS>SUBSTRUCTURE
     1 EPB502      1 GROUP   
@<TRIPOS>SET

