#    Name: 5mlv_6_EPB
#    Modification time : Fri May 22 19:17:40 2020

@<TRIPOS>MOLECULE
5mlv_6_EPB
   35    37     1     0     0
SMALL
NO_CHARGES


@<TRIPOS>ATOM
      1 O16        80.6130   51.6470  255.3560 O.2       1 EPB502      0.0000 
      2 C51        75.5640   50.4110  259.7670 C.3       1 EPB502      0.0000 
      3 O41        75.9140   52.4080  258.3300 O.3       1 EPB502      0.0000 
      4 C5         76.5520   51.3530  259.1060 C.3       1 EPB502      0.0000 
      5 C4         76.6820   51.3930  257.6410 C.3       1 EPB502      0.0000 
      6 C16        80.1610   50.5410  255.2150 C.2       1 EPB502      0.0000 
      7 O1         78.8420   50.2530  255.1230 O.3       1 EPB502      0.0000 
      8 C2         77.7920   51.2840  255.4000 C.3       1 EPB502      0.0000 
      9 C3         77.8650   51.8690  256.8150 C.3       1 EPB502      0.0000 
     10 C20        77.4650   52.2700  254.2740 C.2       1 EPB502      0.0000 
     11 C21        76.0260   52.7030  254.2550 C.3       1 EPB502      0.0000 
     12 C22        78.4110   52.6620  253.4070 C.2       1 EPB502      0.0000 
     13 C23        78.4500   53.5280  252.2400 C.2       1 EPB502      0.0000 
     14 N26        77.3760   54.1720  251.6650 N.2       1 EPB502      0.0000 
     15 C25        77.7130   54.8330  250.5940 C.2       1 EPB502      0.0000 
     16 C27        76.7450   55.6120  249.7680 C.3       1 EPB502      0.0000 
     17 C24        79.6290   53.7400  251.5510 C.2       1 EPB502      0.0000 
     18 S1         79.3840   54.7430  250.1760 S.3       1 EPB502      0.0000 
     19 C15        80.9880   49.2940  255.0690 C.3       1 EPB502      0.0000 
     20 C14        82.4250   49.4020  255.5650 C.3       1 EPB502      0.0000 
     21 O14        83.2770   48.6170  254.7280 O.3       1 EPB502      0.0000 
     22 C13        82.7570   48.9870  257.0210 C.3       1 EPB502      0.0000 
     23 C29        82.6240   47.4660  257.1790 C.3       1 EPB502      0.0000 
     24 C30        84.1930   49.4050  257.3700 C.3       1 EPB502      0.0000 
     25 C12        81.8050   49.7250  257.9900 C.2       1 EPB502      0.0000 
     26 O12        81.7940   50.9300  257.9520 O.2       1 EPB502      0.0000 
     27 C11        80.8350   49.1140  258.9920 C.3       1 EPB502      0.0000 
     28 C28        79.4200   48.9260  258.4560 C.3       1 EPB502      0.0000 
     29 C10        80.8590   49.9300  260.2930 C.3       1 EPB502      0.0000 
     30 O10        80.8780   51.3140  259.9700 O.3       1 EPB502      0.0000 
     31 C9         79.7090   49.6380  261.2650 C.3       1 EPB502      0.0000 
     32 C91        80.1410   48.6440  262.3360 C.3       1 EPB502      0.0000 
     33 C8         79.0860   50.8870  261.9090 C.3       1 EPB502      0.0000 
     34 C7         77.7050   51.2710  261.3930 C.3       1 EPB502      0.0000 
     35 C6         77.6990   51.8370  259.9720 C.3       1 EPB502      0.0000 
@<TRIPOS>BOND
     1    1    6 2    
     2    2    4 1    
     3    3    4 1    
     4    3    5 1    
     5    4    5 1    
     6    4   35 1    
     7    5    9 1    
     8    6    7 1    
     9    6   19 1    
    10    7    8 1    
    11    8    9 1    
    12    8   10 1    
    13   10   11 1    
    14   10   12 2    
    15   12   13 1    
    16   13   14 1    
    17   13   17 2    
    18   14   15 2    
    19   15   16 1    
    20   15   18 1    
    21   17   18 1    
    22   19   20 1    
    23   20   21 1    
    24   20   22 1    
    25   22   23 1    
    26   22   24 1    
    27   22   25 1    
    28   25   26 2    
    29   25   27 1    
    30   27   28 1    
    31   27   29 1    
    32   29   30 1    
    33   29   31 1    
    34   31   32 1    
    35   31   33 1    
    36   33   34 1    
    37   34   35 1    
@<TRIPOS>SUBSTRUCTURE
     1 EPB502      1 GROUP   
@<TRIPOS>SET

