#    Name: 5mlv_8_ANP_CAVITY_N1_8
#    Modification time : Fri May 22 19:17:55 2020

@<TRIPOS>MOLECULE
5mlv_8_ANP_CAVITY_N1_8
   35     0     4     0     0
SMALL
NO_CHARGES


@<TRIPOS>ATOM
      1 N         124.4100   88.5100  230.9400 N.am      1 ALA2        0.0000 
      2 N         125.9100   86.9100  233.4800 N.am      1 ALA2        0.0000 
      3 N         124.1000   88.0200  233.4700 N.am      1 ALA2        0.0000 
      4 N         125.4200   88.1400  232.7700 N.am      1 ALA2        0.0000 
      5 N         123.6100   89.2500  232.7600 N.am      1 ALA2        0.0000 
      6 N         123.3000   88.7600  235.2900 N.am      1 ALA2        0.0000 
      7 OD1       120.1400   87.6700  235.5800 O.co2     2 ASP3        0.0000 
      8 OD1       120.6600   88.5200  236.7000 O.co2     2 ASP3        0.0000 
      9 OD1       121.1800   89.3800  237.8100 O.co2     2 ASP3        0.0000 
     10 OD1       120.6900   90.6000  237.1000 O.co2     2 ASP3        0.0000 
     11 CA        124.8700   85.2000  231.2400 C.3       3 GLY6        0.0000 
     12 CA        121.9200   84.4800  235.1800 C.3       3 GLY6        0.0000 
     13 CA        124.5600   84.7100  233.7800 C.3       3 GLY6        0.0000 
     14 CA        120.1100   85.5900  235.1700 C.3       3 GLY6        0.0000 
     15 CA        121.4300   85.7000  234.4700 C.3       3 GLY6        0.0000 
     16 CA        122.7500   85.8200  233.7700 C.3       3 GLY6        0.0000 
     17 CA        124.0700   85.9400  233.0600 C.3       3 GLY6        0.0000 
     18 CA        125.3900   86.0600  232.3600 C.3       3 GLY6        0.0000 
     19 CA        120.9400   86.9300  233.7600 C.3       3 GLY6        0.0000 
     20 CA        122.2600   87.0500  233.0600 C.3       3 GLY6        0.0000 
     21 CA        123.5800   87.1600  232.3500 C.3       3 GLY6        0.0000 
     22 CA        124.9000   87.2800  231.6500 C.3       3 GLY6        0.0000 
     23 CA        121.7700   88.2700  232.3400 C.3       3 GLY6        0.0000 
     24 CA        123.0900   88.3900  231.6400 C.3       3 GLY6        0.0000 
     25 CA        120.6300   86.4400  236.2900 C.3       3 GLY6        0.0000 
     26 CA        121.4600   87.7800  234.8800 C.3       3 GLY6        0.0000 
     27 CA        122.7800   87.9000  234.1700 C.3       3 GLY6        0.0000 
     28 CA        121.1500   87.3000  237.4100 C.3       3 GLY6        0.0000 
     29 CA        121.9800   88.6400  235.9900 C.3       3 GLY6        0.0000 
     30 CA        122.5000   89.5000  237.1100 C.3       3 GLY6        0.0000 
     31 CA        122.0100   90.7200  236.4000 C.3       3 GLY6        0.0000 
     32 DU        121.9500   86.5600  235.5900 H         4 CUB7        0.0000 
     33 DU        123.2700   86.6800  234.8900 H         4 CUB7        0.0000 
     34 DU        124.5900   86.7900  234.1800 H         4 CUB7        0.0000 
     35 DU        122.4700   87.4100  236.7100 H         4 CUB7        0.0000 
@<TRIPOS>BOND
@<TRIPOS>SUBSTRUCTURE
     1 ALA2        1 GROUP   
     2 ASP3        7 GROUP   
     3 GLY6       11 GROUP   
     4 CUB7       32 GROUP   
@<TRIPOS>SET

