#    Name: 5mlv_7_ANP
#    Modification time : Fri May 22 19:17:47 2020

@<TRIPOS>MOLECULE
5mlv_7_ANP
   31    33     1     0     1
SMALL
NO_CHARGES


@<TRIPOS>ATOM
      1 PG         71.9990  142.9040  221.2710 P.3       1 ANP502      0.0000 
      2 O1G        71.2500  141.5210  221.2870 O.co2     1 ANP502      0.0000 
      3 O2G        71.2390  143.8820  222.0330 O.co2     1 ANP502      0.0000 
      4 O3G        73.4070  142.7520  221.9440 O.co2     1 ANP502      0.0000 
      5 PB         73.0930  144.5590  219.1210 P.3       1 ANP502      0.0000 
      6 O1B        72.3780  145.3240  218.1120 O.co2     1 ANP502      0.0000 
      7 O2B        73.4430  145.5610  220.2630 O.co2     1 ANP502      0.0000 
      8 N3B        72.2120  143.3460  219.7290 N.3       1 ANP502      0.0000 
      9 PA         75.7140  144.7850  218.0940 P.3       1 ANP502      0.0000 
     10 O1A        75.2990  145.4370  216.7900 O.co2     1 ANP502      0.0000 
     11 O2A        76.0290  145.8040  219.1160 O.co2     1 ANP502      0.0000 
     12 O3A        74.4460  143.9650  218.5900 O.3       1 ANP502      0.0000 
     13 O5'        77.0020  143.9100  217.7640 O.3       1 ANP502      0.0000 
     14 C5'        78.2910  144.4850  218.0610 C.3       1 ANP502      0.0000 
     15 C4'        79.1310  144.6140  216.8140 C.3       1 ANP502      0.0000 
     16 O4'        78.5090  145.5410  215.8930 O.3       1 ANP502      0.0000 
     17 C3'        80.5450  145.1440  217.0520 C.3       1 ANP502      0.0000 
     18 O3'        81.4750  144.5190  216.1760 O.3       1 ANP502      0.0000 
     19 C2'        80.3960  146.6330  216.7460 C.3       1 ANP502      0.0000 
     20 O2'        81.6220  147.2380  216.3510 O.3       1 ANP502      0.0000 
     21 C1'        79.4170  146.5790  215.5800 C.3       1 ANP502      0.0000 
     22 N9         78.6600  147.8100  215.3870 N.pl3     1 ANP502      0.0000 
     23 C8         77.3160  147.9860  215.5770 C.2       1 ANP502      0.0000 
     24 N7         76.9020  149.2130  215.3720 N.2       1 ANP502      0.0000 
     25 C5         78.0570  149.8940  215.0170 C.ar      1 ANP502      0.0000 
     26 C6         78.3000  151.2380  214.6760 C.ar      1 ANP502      0.0000 
     27 N6         77.3520  152.1800  214.6400 N.pl3     1 ANP502      0.0000 
     28 N1         79.5690  151.5890  214.3710 N.ar      1 ANP502      0.0000 
     29 C2         80.5220  150.6530  214.4060 C.ar      1 ANP502      0.0000 
     30 N3         80.4130  149.3580  214.7150 N.ar      1 ANP502      0.0000 
     31 C4         79.1470  149.0400  215.0160 C.ar      1 ANP502      0.0000 
@<TRIPOS>BOND
     1    1    2 ar   
     2    1    3 ar   
     3    1    4 ar   
     4    1    8 1    
     5    5    6 ar   
     6    5    7 ar   
     7    5    8 1    
     8    5   12 1    
     9    9   10 ar   
    10    9   11 ar   
    11    9   12 1    
    12    9   13 1    
    13   13   14 1    
    14   14   15 1    
    15   15   16 1    
    16   15   17 1    
    17   16   21 1    
    18   17   18 1    
    19   17   19 1    
    20   19   20 1    
    21   19   21 1    
    22   21   22 1    
    23   22   23 1    
    24   22   31 1    
    25   23   24 2    
    26   24   25 1    
    27   25   26 ar   
    28   25   31 ar   
    29   26   27 1    
    30   26   28 ar   
    31   28   29 ar   
    32   29   30 ar   
    33   30   31 ar   
@<TRIPOS>SUBSTRUCTURE
     1 ANP502      1 GROUP   
@<TRIPOS>SET
ATOM$ORANGE STATIC     ATOMS   COLORGROUP SYSTEM 
20 14 14 15 15 17 17 19 19 21 21 23 23 25 25 26 26 29 \
29 31 31 

