#    Name: 5mlv_3_EPB_CAVITY_N1_6
#    Modification time : Fri May 22 19:17:09 2020

@<TRIPOS>MOLECULE
5mlv_3_EPB_CAVITY_N1_6
   86     0     6     0     0
SMALL
NO_CHARGES


@<TRIPOS>ATOM
      1 OG         62.5800   84.4600  162.0800 O.3       1 SER1        0.0000 
      2 OG         63.9000   84.5700  161.3800 O.3       1 SER1        0.0000 
      3 OG         63.5800   84.0800  163.9100 O.3       1 SER1        0.0000 
      4 OG         63.1000   85.3100  163.2000 O.3       1 SER1        0.0000 
      5 OG         64.4200   85.4300  162.5000 O.3       1 SER1        0.0000 
      6 OG         65.7400   85.5500  161.7900 O.3       1 SER1        0.0000 
      7 OG         63.6100   86.1700  164.3200 O.3       1 SER1        0.0000 
      8 OG         64.9400   86.2800  163.6100 O.3       1 SER1        0.0000 
      9 OG         61.8100   87.2700  164.3100 O.3       1 SER1        0.0000 
     10 OG         63.1300   87.3900  163.6000 O.3       1 SER1        0.0000 
     11 OG         64.1300   87.0200  165.4300 O.3       1 SER1        0.0000 
     12 OG         62.3200   88.1300  165.4200 O.3       1 SER1        0.0000 
     13 OG         63.6500   88.2500  164.7200 O.3       1 SER1        0.0000 
     14 N          60.2500   84.7100  160.9500 N.am      2 ALA2        0.0000 
     15 N          61.0800   86.0500  159.5400 N.am      2 ALA2        0.0000 
     16 N          60.2800   86.7900  161.3600 N.am      2 ALA2        0.0000 
     17 N          66.2600   86.4000  162.9100 N.am      2 ALA2        0.0000 
     18 N          59.8500   92.1800  161.4600 N.am      2 ALA2        0.0000 
     19 N          65.4500   87.1400  164.7300 N.am      2 ALA2        0.0000 
     20 N          64.1600   89.1000  165.8400 N.am      2 ALA2        0.0000 
     21 N          65.4800   89.2200  165.1400 N.am      2 ALA2        0.0000 
     22 N          65.0000   90.4500  164.4300 N.am      2 ALA2        0.0000 
     23 OD1        63.4100   85.8000  160.6700 O.co2     3 ASP3        0.0000 
     24 OD1        64.7300   85.9200  159.9600 O.co2     3 ASP3        0.0000 
     25 OD1        62.9200   87.0300  159.9500 O.co2     3 ASP3        0.0000 
     26 OD1        65.2500   86.7700  161.0800 O.co2     3 ASP3        0.0000 
     27 OD1        66.5700   86.8900  160.3800 O.co2     3 ASP3        0.0000 
     28 OD1        63.4400   87.8800  161.0700 O.co2     3 ASP3        0.0000 
     29 OD1        64.7600   88.0000  160.3700 O.co2     3 ASP3        0.0000 
     30 CZ         64.1000   84.9400  165.0300 C.ar      4 PHE5        0.0000 
     31 CZ         63.4700   89.9600  161.4800 C.ar      4 PHE5        0.0000 
     32 CZ         61.6600   91.0700  161.4700 C.ar      4 PHE5        0.0000 
     33 CZ         62.6700   90.7000  163.3000 C.ar      4 PHE5        0.0000 
     34 CZ         63.9900   90.8200  162.6000 C.ar      4 PHE5        0.0000 
     35 CZ         62.1800   91.9300  162.5900 C.ar      4 PHE5        0.0000 
     36 CZ         62.3600   90.2100  165.8300 C.ar      4 PHE5        0.0000 
     37 CZ         64.5100   91.6700  163.7100 C.ar      4 PHE5        0.0000 
     38 CZ         63.3600   89.8400  167.6600 C.ar      4 PHE5        0.0000 
     39 CA         62.4000   86.1700  158.8400 C.3       5 GLY6        0.0000 
     40 CA         61.6000   86.9100  160.6600 C.3       5 GLY6        0.0000 
     41 CA         59.7900   88.0200  160.6500 C.3       5 GLY6        0.0000 
     42 CA         60.3100   88.8700  161.7600 C.3       5 GLY6        0.0000 
     43 CA         61.6300   88.9900  161.0600 C.3       5 GLY6        0.0000 
     44 CA         62.9500   89.1100  160.3600 C.3       5 GLY6        0.0000 
     45 CA         58.5000   89.9800  161.7500 C.3       5 GLY6        0.0000 
     46 CA         65.7700   87.6300  162.2000 C.3       5 GLY6        0.0000 
     47 CA         63.9600   88.7400  162.1900 C.3       5 GLY6        0.0000 
     48 CA         65.2800   88.8500  161.4900 C.3       5 GLY6        0.0000 
     49 CA         64.9700   88.3700  164.0200 C.3       5 GLY6        0.0000 
     50 CA         64.4800   89.5900  163.3100 C.3       5 GLY6        0.0000 
     51 CA         60.3700   93.0400  162.5800 C.3       5 GLY6        0.0000 
     52 CA         63.6800   90.3300  165.1300 C.3       5 GLY6        0.0000 
     53 CA         58.7400   92.4300  165.8100 C.3       5 GLY6        0.0000 
     54 CA         61.3800   92.6700  164.4100 C.3       5 GLY6        0.0000 
     55 CA         62.7000   92.7800  163.7000 C.3       5 GLY6        0.0000 
     56 CA         59.5700   93.7700  164.4000 C.3       5 GLY6        0.0000 
     57 CA         62.8700   91.0700  166.9500 C.3       5 GLY6        0.0000 
     58 CA         61.0700   92.1800  166.9400 C.3       5 GLY6        0.0000 
     59 CA         62.3900   92.2900  166.2400 C.3       5 GLY6        0.0000 
     60 CA         63.7100   92.4100  165.5300 C.3       5 GLY6        0.0000 
     61 CA         60.5800   93.4000  166.2300 C.3       5 GLY6        0.0000 
     62 CA         61.9000   93.5200  165.5200 C.3       5 GLY6        0.0000 
     63 CA         63.2200   93.6400  164.8200 C.3       5 GLY6        0.0000 
     64 CA         60.0900   94.6300  165.5100 C.3       5 GLY6        0.0000 
     65 CA         62.4200   94.3800  166.6400 C.3       5 GLY6        0.0000 
     66 DU         60.7700   85.5600  162.0700 H         6 CUB7        0.0000 
     67 DU         62.0900   85.6800  161.3700 H         6 CUB7        0.0000 
     68 DU         61.2900   86.4200  163.1900 H         6 CUB7        0.0000 
     69 DU         62.6100   86.5400  162.4900 H         6 CUB7        0.0000 
     70 DU         63.9300   86.6500  161.7800 H         6 CUB7        0.0000 
     71 DU         60.8000   87.6500  162.4800 H         6 CUB7        0.0000 
     72 DU         62.1200   87.7600  161.7700 H         6 CUB7        0.0000 
     73 DU         64.4500   87.5100  162.9000 H         6 CUB7        0.0000 
     74 DU         61.3200   88.5000  163.5900 H         6 CUB7        0.0000 
     75 DU         60.8300   89.7300  162.8800 H         6 CUB7        0.0000 
     76 DU         62.1500   89.8500  162.1800 H         6 CUB7        0.0000 
     77 DU         59.0200   90.8400  162.8700 H         6 CUB7        0.0000 
     78 DU         60.3400   90.9500  162.1700 H         6 CUB7        0.0000 
     79 DU         61.8400   89.3600  164.7100 H         6 CUB7        0.0000 
     80 DU         63.1600   89.4700  164.0100 H         6 CUB7        0.0000 
     81 DU         59.5400   91.6900  163.9900 H         6 CUB7        0.0000 
     82 DU         60.8600   91.8100  163.2900 H         6 CUB7        0.0000 
     83 DU         60.5500   91.3200  165.8200 H         6 CUB7        0.0000 
     84 DU         61.8700   91.4400  165.1200 H         6 CUB7        0.0000 
     85 DU         63.1900   91.5600  164.4200 H         6 CUB7        0.0000 
     86 DU         60.0600   92.5500  165.1100 H         6 CUB7        0.0000 
@<TRIPOS>BOND
@<TRIPOS>SUBSTRUCTURE
     1 SER1        1 GROUP   
     2 ALA2       14 GROUP   
     3 ASP3       23 GROUP   
     4 PHE5       30 GROUP   
     5 GLY6       39 GROUP   
     6 CUB7       66 GROUP   
@<TRIPOS>SET

