#    Name: 5mlv_8_ANP
#    Modification time : Fri May 22 19:17:54 2020

@<TRIPOS>MOLECULE
5mlv_8_ANP
   31    33     1     0     1
SMALL
NO_CHARGES


@<TRIPOS>ATOM
      1 PG        115.8500   90.3230  230.7600 P.3       1 ANP502      0.0000 
      2 O1G       114.5750   89.4070  230.7770 O.co2     1 ANP502      0.0000 
      3 O2G       115.6030   91.5150  231.5550 O.co2     1 ANP502      0.0000 
      4 O3G       117.0460   89.5480  231.4090 O.co2     1 ANP502      0.0000 
      5 PB        117.5560   91.3360  228.5960 P.3       1 ANP502      0.0000 
      6 O1B       117.2600   92.3630  227.6100 O.co2     1 ANP502      0.0000 
      7 O2B       118.3620   92.0390  229.7310 O.co2     1 ANP502      0.0000 
      8 N3B       116.2200   90.6620  229.2190 N.3       1 ANP502      0.0000 
      9 PA        119.9810   90.3290  227.5470 P.3       1 ANP502      0.0000 
     10 O1A       119.9360   91.1090  226.2480 O.co2     1 ANP502      0.0000 
     11 O2A       120.7230   91.0710  228.5870 O.co2     1 ANP502      0.0000 
     12 O3A       118.4690   90.1940  228.0200 O.3       1 ANP502      0.0000 
     13 O5'       120.7210   88.9610  227.2070 O.3       1 ANP502      0.0000 
     14 C5'       122.1270   88.8650  227.5150 C.3       1 ANP502      0.0000 
     15 C4'       122.9330   88.5490  226.2800 C.3       1 ANP502      0.0000 
     16 O4'       122.8210   89.6340  225.3280 O.3       1 ANP502      0.0000 
     17 C3'       124.4300   88.3660  226.5280 C.3       1 ANP502      0.0000 
     18 O3'       124.9730   87.3780  225.6620 O.3       1 ANP502      0.0000 
     19 C2'       124.9870   89.7540  226.2180 C.3       1 ANP502      0.0000 
     20 O2'       126.3580   89.7250  225.8420 O.3       1 ANP502      0.0000 
     21 C1'       124.1060   90.1500  225.0390 C.3       1 ANP502      0.0000 
     22 N9        123.9910   91.5900  224.8450 N.pl3     1 ANP502      0.0000 
     23 C8        122.8740   92.3590  225.0270 C.2       1 ANP502      0.0000 
     24 N7        123.0670   93.6400  224.8260 N.2       1 ANP502      0.0000 
     25 C5        124.4080   93.7200  224.4840 C.ar      1 ANP502      0.0000 
     26 C6        125.2410   94.8060  224.1540 C.ar      1 ANP502      0.0000 
     27 N6        124.8300   96.0770  224.1200 N.pl3     1 ANP502      0.0000 
     28 N1        126.5330   94.5390  223.8580 N.ar      1 ANP502      0.0000 
     29 C2        126.9530   93.2710  223.8930 C.ar      1 ANP502      0.0000 
     30 N3        126.2630   92.1690  224.1940 N.ar      1 ANP502      0.0000 
     31 C4        124.9890   92.4630  224.4850 C.ar      1 ANP502      0.0000 
@<TRIPOS>BOND
     1    1    2 ar   
     2    1    3 ar   
     3    1    4 ar   
     4    1    8 1    
     5    5    6 ar   
     6    5    7 ar   
     7    5    8 1    
     8    5   12 1    
     9    9   10 ar   
    10    9   11 ar   
    11    9   12 1    
    12    9   13 1    
    13   13   14 1    
    14   14   15 1    
    15   15   16 1    
    16   15   17 1    
    17   16   21 1    
    18   17   18 1    
    19   17   19 1    
    20   19   20 1    
    21   19   21 1    
    22   21   22 1    
    23   22   23 1    
    24   22   31 1    
    25   23   24 2    
    26   24   25 1    
    27   25   26 ar   
    28   25   31 ar   
    29   26   27 1    
    30   26   28 ar   
    31   28   29 ar   
    32   29   30 ar   
    33   30   31 ar   
@<TRIPOS>SUBSTRUCTURE
     1 ANP502      1 GROUP   
@<TRIPOS>SET
ATOM$ORANGE STATIC     ATOMS   COLORGROUP SYSTEM 
20 14 14 15 15 17 17 19 19 21 21 23 23 25 25 26 26 29 \
29 31 31 

