#    Name: 5mlv_4_EPB
#    Modification time : Fri May 22 19:17:20 2020

@<TRIPOS>MOLECULE
5mlv_4_EPB
   35    37     1     0     0
SMALL
NO_CHARGES


@<TRIPOS>ATOM
      1 O16        80.6040   51.6670  172.4260 O.2       1 EPB502      0.0000 
      2 C51        75.5460   50.4100  176.8180 C.3       1 EPB502      0.0000 
      3 O41        75.8950   52.4140  175.3900 O.3       1 EPB502      0.0000 
      4 C5         76.5340   51.3560  176.1620 C.3       1 EPB502      0.0000 
      5 C4         76.6660   51.4030  174.6980 C.3       1 EPB502      0.0000 
      6 C16        80.1540   50.5620  172.2800 C.2       1 EPB502      0.0000 
      7 O1         78.8360   50.2720  172.1830 O.3       1 EPB502      0.0000 
      8 C2         77.7830   51.3010  172.4610 C.3       1 EPB502      0.0000 
      9 C3         77.8510   51.8820  173.8770 C.3       1 EPB502      0.0000 
     10 C20        77.4540   52.2870  171.3360 C.2       1 EPB502      0.0000 
     11 C21        76.0120   52.7100  171.3110 C.3       1 EPB502      0.0000 
     12 C22        78.4020   52.6880  170.4770 C.2       1 EPB502      0.0000 
     13 C23        78.4420   53.5550  169.3100 C.2       1 EPB502      0.0000 
     14 N26        77.3650   54.1880  168.7280 N.2       1 EPB502      0.0000 
     15 C25        77.7030   54.8510  167.6580 C.2       1 EPB502      0.0000 
     16 C27        76.7320   55.6220  166.8270 C.3       1 EPB502      0.0000 
     17 C24        79.6230   53.7760  168.6270 C.2       1 EPB502      0.0000 
     18 S1         79.3770   54.7750  167.2490 S.3       1 EPB502      0.0000 
     19 C15        80.9820   49.3160  172.1300 C.3       1 EPB502      0.0000 
     20 C14        82.4180   49.4160  172.6320 C.3       1 EPB502      0.0000 
     21 O14        83.2700   48.6350  171.7910 O.3       1 EPB502      0.0000 
     22 C13        82.7430   48.9900  174.0850 C.3       1 EPB502      0.0000 
     23 C29        82.5990   47.4680  174.2330 C.3       1 EPB502      0.0000 
     24 C30        84.1810   49.3950  174.4410 C.3       1 EPB502      0.0000 
     25 C12        81.7950   49.7300  175.0560 C.2       1 EPB502      0.0000 
     26 O12        81.7900   50.9350  175.0230 O.2       1 EPB502      0.0000 
     27 C11        80.8190   49.1220  176.0540 C.3       1 EPB502      0.0000 
     28 C28        79.4050   48.9370  175.5140 C.3       1 EPB502      0.0000 
     29 C10        80.8420   49.9350  177.3570 C.3       1 EPB502      0.0000 
     30 O10        80.8680   51.3210  177.0410 O.3       1 EPB502      0.0000 
     31 C9         79.6870   49.6440  178.3260 C.3       1 EPB502      0.0000 
     32 C91        80.1140   48.6450  179.3950 C.3       1 EPB502      0.0000 
     33 C8         79.0620   50.8900  178.9700 C.3       1 EPB502      0.0000 
     34 C7         77.6810   51.2730  178.4510 C.3       1 EPB502      0.0000 
     35 C6         77.6800   51.8380  177.0300 C.3       1 EPB502      0.0000 
@<TRIPOS>BOND
     1    1    6 2    
     2    2    4 1    
     3    3    4 1    
     4    3    5 1    
     5    4    5 1    
     6    4   35 1    
     7    5    9 1    
     8    6    7 1    
     9    6   19 1    
    10    7    8 1    
    11    8    9 1    
    12    8   10 1    
    13   10   11 1    
    14   10   12 2    
    15   12   13 1    
    16   13   14 1    
    17   13   17 2    
    18   14   15 2    
    19   15   16 1    
    20   15   18 1    
    21   17   18 1    
    22   19   20 1    
    23   20   21 1    
    24   20   22 1    
    25   22   23 1    
    26   22   24 1    
    27   22   25 1    
    28   25   26 2    
    29   25   27 1    
    30   27   28 1    
    31   27   29 1    
    32   29   30 1    
    33   29   31 1    
    34   31   32 1    
    35   31   33 1    
    36   33   34 1    
    37   34   35 1    
@<TRIPOS>SUBSTRUCTURE
     1 EPB502      1 GROUP   
@<TRIPOS>SET

