#    Name: 5mlv_5_EPB
#    Modification time : Fri May 22 19:17:27 2020

@<TRIPOS>MOLECULE
5mlv_5_EPB
   35    37     1     0     0
SMALL
NO_CHARGES


@<TRIPOS>ATOM
      1 O16        20.6810  117.9420  153.3510 O.2       1 EPB502      0.0000 
      2 C51        18.8900  113.0300  157.7250 C.3       1 EPB502      0.0000 
      3 O41        17.4290  114.4530  156.3060 O.3       1 EPB502      0.0000 
      4 C5         18.6660  114.3810  157.0710 C.3       1 EPB502      0.0000 
      5 C4         18.6940  114.5180  155.6070 C.3       1 EPB502      0.0000 
      6 C16        21.3450  116.9520  153.1930 C.2       1 EPB502      0.0000 
      7 O1         20.8480  115.6980  153.0920 O.3       1 EPB502      0.0000 
      8 C2         19.4060  115.3990  153.3700 C.3       1 EPB502      0.0000 
      9 C3         18.9640  115.7700  154.7890 C.3       1 EPB502      0.0000 
     10 C20        18.4030  115.6860  152.2480 C.2       1 EPB502      0.0000 
     11 C21        17.2370  114.7390  152.2280 C.3       1 EPB502      0.0000 
     12 C22        18.6080  116.6930  151.3850 C.2       1 EPB502      0.0000 
     13 C23        17.9090  117.2150  150.2200 C.2       1 EPB502      0.0000 
     14 N26        16.7750  116.6850  149.6450 N.2       1 EPB502      0.0000 
     15 C25        16.4150  117.3350  148.5740 C.2       1 EPB502      0.0000 
     16 C27        15.2280  116.9650  147.7490 C.3       1 EPB502      0.0000 
     17 C24        18.3910  118.3120  149.5320 C.2       1 EPB502      0.0000 
     18 S1         17.4230  118.6720  148.1580 S.3       1 EPB502      0.0000 
     19 C15        22.8390  116.9450  153.0310 C.3       1 EPB502      0.0000 
     20 C14        23.5510  118.1920  153.5410 C.3       1 EPB502      0.0000 
     21 O14        24.6500  118.4970  152.6790 O.3       1 EPB502      0.0000 
     22 C13        24.1170  118.1960  154.9830 C.3       1 EPB502      0.0000 
     23 C29        25.2840  117.2040  155.0950 C.3       1 EPB502      0.0000 
     24 C30        24.6150  119.6030  155.3460 C.3       1 EPB502      0.0000 
     25 C12        22.9820  117.8290  155.9660 C.2       1 EPB502      0.0000 
     26 O12        21.9890  118.5110  155.9430 O.2       1 EPB502      0.0000 
     27 C11        22.9350  116.6770  156.9600 C.3       1 EPB502      0.0000 
     28 C28        22.2850  115.4100  156.4170 C.3       1 EPB502      0.0000 
     29 C10        22.2810  117.1520  158.2670 C.3       1 EPB502      0.0000 
     30 O10        21.1480  117.9490  157.9510 O.3       1 EPB502      0.0000 
     31 C9         21.8740  116.0330  159.2350 C.3       1 EPB502      0.0000 
     32 C91        22.9350  115.8270  160.3090 C.3       1 EPB502      0.0000 
     33 C8         20.4890  116.2140  159.8740 C.3       1 EPB502      0.0000 
     34 C7         19.4000  115.2800  159.3550 C.3       1 EPB502      0.0000 
     35 C6         18.9250  115.5980  157.9380 C.3       1 EPB502      0.0000 
@<TRIPOS>BOND
     1    1    6 2    
     2    2    4 1    
     3    3    4 1    
     4    3    5 1    
     5    4    5 1    
     6    4   35 1    
     7    5    9 1    
     8    6    7 1    
     9    6   19 1    
    10    7    8 1    
    11    8    9 1    
    12    8   10 1    
    13   10   11 1    
    14   10   12 2    
    15   12   13 1    
    16   13   14 1    
    17   13   17 2    
    18   14   15 2    
    19   15   16 1    
    20   15   18 1    
    21   17   18 1    
    22   19   20 1    
    23   20   21 1    
    24   20   22 1    
    25   22   23 1    
    26   22   24 1    
    27   22   25 1    
    28   25   26 2    
    29   25   27 1    
    30   27   28 1    
    31   27   29 1    
    32   29   30 1    
    33   29   31 1    
    34   31   32 1    
    35   31   33 1    
    36   33   34 1    
    37   34   35 1    
@<TRIPOS>SUBSTRUCTURE
     1 EPB502      1 GROUP   
@<TRIPOS>SET

