#    Name: 5mlv_3_EPB
#    Modification time : Fri May 22 19:17:08 2020

@<TRIPOS>MOLECULE
5mlv_3_EPB
   35    37     1     0     0
SMALL
NO_CHARGES


@<TRIPOS>ATOM
      1 O16        58.7620   92.1570  162.9130 O.2       1 EPB502      0.0000 
      2 C51        54.9210   88.6470  167.3030 C.3       1 EPB502      0.0000 
      3 O41        54.2630   90.5800  165.8860 O.3       1 EPB502      0.0000 
      4 C5         55.3330   89.9530  166.6500 C.3       1 EPB502      0.0000 
      5 C4         55.4190   90.0630  165.1860 C.3       1 EPB502      0.0000 
      6 C16        58.8800   90.9700  162.7620 C.2       1 EPB502      0.0000 
      7 O1         57.8500   90.0970  162.6680 O.3       1 EPB502      0.0000 
      8 C2         56.4380   90.5130  162.9480 C.3       1 EPB502      0.0000 
      9 C3         56.2270   91.0540  164.3660 C.3       1 EPB502      0.0000 
     10 C20        55.6850   91.2350  161.8260 C.2       1 EPB502      0.0000 
     11 C21        54.2080   90.9570  161.8170 C.3       1 EPB502      0.0000 
     12 C22        56.3390   92.0170  160.9550 C.2       1 EPB502      0.0000 
     13 C23        55.9720   92.7970  159.7880 C.2       1 EPB502      0.0000 
     14 N26        54.7240   92.8640  159.2100 N.2       1 EPB502      0.0000 
     15 C25        54.7190   93.5990  158.1340 C.2       1 EPB502      0.0000 
     16 C27        53.5010   93.8350  157.3050 C.3       1 EPB502      0.0000 
     17 C24        56.9190   93.5270  159.0980 C.2       1 EPB502      0.0000 
     18 S1         56.2430   94.2920  157.7160 S.3       1 EPB502      0.0000 
     19 C15        60.1940   90.2570  162.6010 C.3       1 EPB502      0.0000 
     20 C14        61.4130   91.0220  163.1030 C.3       1 EPB502      0.0000 
     21 O14        62.5260   90.7560  162.2460 O.3       1 EPB502      0.0000 
     22 C13        61.9130   90.7750  164.5480 C.3       1 EPB502      0.0000 
     23 C29        62.4860   89.3550  164.6730 C.3       1 EPB502      0.0000 
     24 C30        63.0060   91.7920  164.9050 C.3       1 EPB502      0.0000 
     25 C12        60.7380   90.9880  165.5280 C.2       1 EPB502      0.0000 
     26 O12        60.1800   92.0560  165.5010 O.2       1 EPB502      0.0000 
     27 C11        60.1600   89.9960  166.5280 C.3       1 EPB502      0.0000 
     28 C28        58.9950   89.1710  165.9920 C.3       1 EPB502      0.0000 
     29 C10        59.8020   90.7290  167.8300 C.3       1 EPB502      0.0000 
     30 O10        59.1670   91.9590  167.5060 O.3       1 EPB502      0.0000 
     31 C9         58.9260   89.9320  168.8050 C.3       1 EPB502      0.0000 
     32 C91        59.7760   89.2600  169.8760 C.3       1 EPB502      0.0000 
     33 C8         57.7900   90.7410  169.4490 C.3       1 EPB502      0.0000 
     34 C7         56.3900   90.4250  168.9380 C.3       1 EPB502      0.0000 
     35 C6         56.1130   90.9210  167.5180 C.3       1 EPB502      0.0000 
@<TRIPOS>BOND
     1    1    6 2    
     2    2    4 1    
     3    3    4 1    
     4    3    5 1    
     5    4    5 1    
     6    4   35 1    
     7    5    9 1    
     8    6    7 1    
     9    6   19 1    
    10    7    8 1    
    11    8    9 1    
    12    8   10 1    
    13   10   11 1    
    14   10   12 2    
    15   12   13 1    
    16   13   14 1    
    17   13   17 2    
    18   14   15 2    
    19   15   16 1    
    20   15   18 1    
    21   17   18 1    
    22   19   20 1    
    23   20   21 1    
    24   20   22 1    
    25   22   23 1    
    26   22   24 1    
    27   22   25 1    
    28   25   26 2    
    29   25   27 1    
    30   27   28 1    
    31   27   29 1    
    32   29   30 1    
    33   29   31 1    
    34   31   32 1    
    35   31   33 1    
    36   33   34 1    
    37   34   35 1    
@<TRIPOS>SUBSTRUCTURE
     1 EPB502      1 GROUP   
@<TRIPOS>SET

