#    Name: 5mlv_12_ANP
#    Modification time : Fri May 22 19:18:09 2020

@<TRIPOS>MOLECULE
5mlv_12_ANP
   31    33     1     0     1
SMALL
NO_CHARGES


@<TRIPOS>ATOM
      1 PG        130.2590   23.5520  240.3290 P.3       1 ANP502      0.0000 
      2 O1G       128.7010   23.3490  240.3340 O.co2     1 ANP502      0.0000 
      3 O2G       130.6090   24.7180  241.1240 O.co2     1 ANP502      0.0000 
      4 O3G       130.9520   22.3060  240.9760 O.co2     1 ANP502      0.0000 
      5 PB        132.2460   23.6430  238.1870 P.3       1 ANP502      0.0000 
      6 O1B       132.4650   24.6600  237.1710 O.co2     1 ANP502      0.0000 
      7 O2B       133.2620   23.9370  239.3340 O.co2     1 ANP502      0.0000 
      8 N3B       130.7480   23.6790  238.7930 N.3       1 ANP502      0.0000 
      9 PA        133.9110   21.6000  237.1600 P.3       1 ANP502      0.0000 
     10 O1A       134.2120   22.3140  235.8570 O.co2     1 ANP502      0.0000 
     11 O2A       134.9360   21.9080  238.1780 O.co2     1 ANP502      0.0000 
     12 O3A       132.5230   22.1890  237.6650 O.3       1 ANP502      0.0000 
     13 O5'       133.9110   20.0450  236.8250 O.3       1 ANP502      0.0000 
     14 C5'       135.1160   19.3050  237.1150 C.3       1 ANP502      0.0000 
     15 C4'       135.6660   18.6500  235.8720 C.3       1 ANP502      0.0000 
     16 O4'       136.0710   19.6610  234.9180 O.3       1 ANP502      0.0000 
     17 C3'       136.9030   17.7860  236.1090 C.3       1 ANP502      0.0000 
     18 O3'       136.9130   16.6670  235.2310 O.3       1 ANP502      0.0000 
     19 C2'       138.0430   18.7540  235.8030 C.3       1 ANP502      0.0000 
     20 O2'       139.2460   18.0920  235.4330 O.3       1 ANP502      0.0000 
     21 C1'       137.4480   19.5170  234.6250 C.3       1 ANP502      0.0000 
     22 N9        138.0190   20.8450  234.4350 N.pl3     1 ANP502      0.0000 
     23 C8        137.3900   22.0450  234.6270 C.2       1 ANP502      0.0000 
     24 N7        138.1590   23.0890  234.4350 N.2       1 ANP502      0.0000 
     25 C5        139.3820   22.5370  234.0870 C.ar      1 ANP502      0.0000 
     26 C6        140.6250   23.1110  233.7600 C.ar      1 ANP502      0.0000 
     27 N6        140.8550   24.4270  233.7410 N.pl3     1 ANP502      0.0000 
     28 N1        141.6420   22.2750  233.4560 N.ar      1 ANP502      0.0000 
     29 C2        141.4210   20.9570  233.4790 C.ar      1 ANP502      0.0000 
     30 N3        140.2970   20.3020  233.7760 N.ar      1 ANP502      0.0000 
     31 C4        139.3080   21.1540  234.0760 C.ar      1 ANP502      0.0000 
@<TRIPOS>BOND
     1    1    2 ar   
     2    1    3 ar   
     3    1    4 ar   
     4    1    8 1    
     5    5    6 ar   
     6    5    7 ar   
     7    5    8 1    
     8    5   12 1    
     9    9   10 ar   
    10    9   11 ar   
    11    9   12 1    
    12    9   13 1    
    13   13   14 1    
    14   14   15 1    
    15   15   16 1    
    16   15   17 1    
    17   16   21 1    
    18   17   18 1    
    19   17   19 1    
    20   19   20 1    
    21   19   21 1    
    22   21   22 1    
    23   22   23 1    
    24   22   31 1    
    25   23   24 2    
    26   24   25 1    
    27   25   26 ar   
    28   25   31 ar   
    29   26   27 1    
    30   26   28 ar   
    31   28   29 ar   
    32   29   30 ar   
    33   30   31 ar   
@<TRIPOS>SUBSTRUCTURE
     1 ANP502      1 GROUP   
@<TRIPOS>SET
ATOM$ORANGE STATIC     ATOMS   COLORGROUP SYSTEM 
20 14 14 15 15 17 17 19 19 21 21 23 23 25 25 26 26 29 \
29 31 31 

