#    Name: 5mlv_11_ANP_CAVITY_N1_8
#    Modification time : Fri May 22 19:18:03 2020

@<TRIPOS>MOLECULE
5mlv_11_ANP_CAVITY_N1_8
   38     0     5     0     0
SMALL
NO_CHARGES


@<TRIPOS>ATOM
      1 OG         77.5200  141.1100  141.9900 O.3       1 SER1        0.0000 
      2 N          79.7000  144.6500  140.2800 N.am      2 ALA2        0.0000 
      3 N          81.0200  144.7700  139.5800 N.am      2 ALA2        0.0000 
      4 N          79.2100  145.8800  139.5700 N.am      2 ALA2        0.0000 
      5 N          80.5300  146.0000  138.8700 N.am      2 ALA2        0.0000 
      6 N          80.7100  144.2800  142.1100 N.am      2 ALA2        0.0000 
      7 N          82.0300  144.4000  141.4100 N.am      2 ALA2        0.0000 
      8 N          78.9000  145.3900  142.1000 N.am      2 ALA2        0.0000 
      9 N          81.5400  145.6300  140.7000 N.am      2 ALA2        0.0000 
     10 N          82.0600  146.4800  141.8200 N.am      2 ALA2        0.0000 
     11 OD1        76.7500  143.9300  144.2200 O.co2     3 ASP3        0.0000 
     12 OD1        77.2700  144.7800  145.3400 O.co2     3 ASP3        0.0000 
     13 CA         79.3300  140.0000  142.0000 C.3       4 GLY6        0.0000 
     14 CA         78.8400  141.2300  141.2900 C.3       4 GLY6        0.0000 
     15 CA         77.0300  142.3300  141.2800 C.3       4 GLY6        0.0000 
     16 CA         78.3500  142.4500  140.5800 C.3       4 GLY6        0.0000 
     17 CA         77.8600  143.6800  139.8700 C.3       4 GLY6        0.0000 
     18 CA         79.1800  143.8000  139.1700 C.3       4 GLY6        0.0000 
     19 CA         80.0200  145.1400  137.7500 C.3       4 GLY6        0.0000 
     20 CA         78.5300  140.7400  143.8200 C.3       4 GLY6        0.0000 
     21 CA         79.8500  140.8500  143.1200 C.3       4 GLY6        0.0000 
     22 CA         76.7200  141.8500  143.8100 C.3       4 GLY6        0.0000 
     23 CA         78.0400  141.9600  143.1100 C.3       4 GLY6        0.0000 
     24 CA         79.3600  142.0800  142.4100 C.3       4 GLY6        0.0000 
     25 CA         80.6800  142.2000  141.7100 C.3       4 GLY6        0.0000 
     26 CA         82.0000  142.3200  141.0100 C.3       4 GLY6        0.0000 
     27 CA         77.5500  143.1900  142.4000 C.3       4 GLY6        0.0000 
     28 CA         78.8700  143.3100  141.7000 C.3       4 GLY6        0.0000 
     29 CA         80.1900  143.4300  141.0000 C.3       4 GLY6        0.0000 
     30 CA         81.5100  143.5400  140.2900 C.3       4 GLY6        0.0000 
     31 CA         78.5600  142.8200  144.2300 C.3       4 GLY6        0.0000 
     32 CA         78.0700  144.0500  143.5200 C.3       4 GLY6        0.0000 
     33 CA         79.3900  144.1600  142.8200 C.3       4 GLY6        0.0000 
     34 CA         78.5900  144.9000  144.6400 C.3       4 GLY6        0.0000 
     35 CA         75.4600  145.8900  145.3300 C.3       4 GLY6        0.0000 
     36 CA         76.7800  146.0100  144.6300 C.3       4 GLY6        0.0000 
     37 CA         78.1000  146.1300  143.9200 C.3       4 GLY6        0.0000 
     38 DU         79.8800  142.9400  143.5300 H         5 CUB7        0.0000 
@<TRIPOS>BOND
@<TRIPOS>SUBSTRUCTURE
     1 SER1        1 GROUP   
     2 ALA2        2 GROUP   
     3 ASP3       11 GROUP   
     4 GLY6       13 GROUP   
     5 CUB7       38 GROUP   
@<TRIPOS>SET

