#    Name: 6rft_6_ACO
#    Modification time : Fri May 22 19:32:35 2020

@<TRIPOS>MOLECULE
6rft_6_ACO
   45    47     1     0     1
SMALL
NO_CHARGES


@<TRIPOS>ATOM
      1 N1A        -0.0740   13.5320   19.0490 N.ar      1 ACO501      0.0000 
      2 C2A        -0.8330   14.2410   18.2130 C.ar      1 ACO501      0.0000 
      3 N3A        -1.8380   13.8390   17.4430 N.ar      1 ACO501      0.0000 
      4 C4A        -2.0940   12.5110   17.5560 C.ar      1 ACO501      0.0000 
      5 C5A        -1.3640   11.6300   18.4100 C.ar      1 ACO501      0.0000 
      6 C6A        -0.3310   12.2030   19.1610 C.ar      1 ACO501      0.0000 
      7 N6A         0.4270   11.4410   20.0090 N.pl3     1 ACO501      0.0000 
      8 N7A        -1.8590   10.3320   18.3080 N.2       1 ACO501      0.0000 
      9 C8A        -2.8600   10.4470   17.4130 C.2       1 ACO501      0.0000 
     10 N9A        -3.0420   11.7130   16.9390 N.pl3     1 ACO501      0.0000 
     11 C1B        -4.0480   12.1600   15.9480 C.3       1 ACO501      0.0000 
     12 C2B        -3.4290   12.0490   14.5280 C.3       1 ACO501      0.0000 
     13 O2B        -3.1840   13.3440   13.9690 O.3       1 ACO501      0.0000 
     14 C3B        -4.5340   11.3060   13.7530 C.3       1 ACO501      0.0000 
     15 O3B        -5.4150   12.2430   13.0940 O.3       1 ACO501      0.0000 
     16 P3B        -5.0230   12.4350   11.5530 P.3       1 ACO501      0.0000 
     17 O7A        -6.2190   12.2320   10.6630 O.co2     1 ACO501      0.0000 
     18 O8A        -4.4690   13.8460   11.4570 O.co2     1 ACO501      0.0000 
     19 O9A        -3.8860   11.4510   11.4090 O.co2     1 ACO501      0.0000 
     20 C4B        -5.2940   10.5230   14.8170 C.3       1 ACO501      0.0000 
     21 O4B        -5.1490   11.2850   16.0360 O.3       1 ACO501      0.0000 
     22 C5B        -4.8130    9.1080   15.0320 C.3       1 ACO501      0.0000 
     23 O5B        -4.7590    8.4240   13.7700 O.3       1 ACO501      0.0000 
     24 P1A        -4.2410    6.8840   13.6770 P.3       1 ACO501      0.0000 
     25 O1A        -3.2750    6.7380   12.5590 O.co2     1 ACO501      0.0000 
     26 O2A        -5.3290    5.8440   13.6810 O.co2     1 ACO501      0.0000 
     27 O3A        -3.2770    6.5600   15.0050 O.3       1 ACO501      0.0000 
     28 P2A        -1.8750    5.8270   15.1680 P.3       1 ACO501      0.0000 
     29 O4A        -1.9820    4.4680   14.5890 O.co2     1 ACO501      0.0000 
     30 O5A        -0.7100    6.5950   14.5980 O.co2     1 ACO501      0.0000 
     31 O6A        -1.6450    5.7010   16.7440 O.3       1 ACO501      0.0000 
     32 CBP        -0.7340    6.4050   18.8980 C.3       1 ACO501      0.0000 
     33 CCP        -1.3010    6.8360   17.5480 C.3       1 ACO501      0.0000 
     34 CDP        -1.7200    5.4470   19.5430 C.3       1 ACO501      0.0000 
     35 CEP        -0.5350    7.6640   19.7450 C.3       1 ACO501      0.0000 
     36 CAP         0.6240    5.6810   18.6460 C.3       1 ACO501      0.0000 
     37 OAP         1.3960    6.4240   17.7140 O.3       1 ACO501      0.0000 
     38 C9P         1.5320    5.5740   19.8970 C.2       1 ACO501      0.0000 
     39 O9P         2.7440    5.7000   19.7580 O.2       1 ACO501      0.0000 
     40 N8P         0.9710    5.3170   21.0840 N.am      1 ACO501      0.0000 
     41 C7P         1.7510    5.1970   22.3220 C.3       1 ACO501      0.0000 
     42 C6P         0.8150    5.2260   23.5430 C.3       1 ACO501      0.0000 
     43 C5P        -0.0350    6.4740   23.6010 C.2       1 ACO501      0.0000 
     44 O5P         0.0830    7.4080   22.8230 O.2       1 ACO501      0.0000 
     45 N4P        -0.9440    6.4950   24.5760 N.am      1 ACO501      0.0000 
@<TRIPOS>BOND
     1    1    2 ar   
     2    1    6 ar   
     3    2    3 ar   
     4    3    4 ar   
     5    4    5 ar   
     6    4   10 1    
     7    5    6 ar   
     8    5    8 1    
     9    6    7 1    
    10    8    9 2    
    11    9   10 1    
    12   10   11 1    
    13   11   12 1    
    14   11   21 1    
    15   12   13 1    
    16   12   14 1    
    17   14   15 1    
    18   14   20 1    
    19   15   16 1    
    20   16   17 ar   
    21   16   18 ar   
    22   16   19 ar   
    23   20   21 1    
    24   20   22 1    
    25   22   23 1    
    26   23   24 1    
    27   24   25 ar   
    28   24   26 ar   
    29   24   27 1    
    30   27   28 1    
    31   28   29 ar   
    32   28   30 ar   
    33   28   31 1    
    34   31   33 1    
    35   32   33 1    
    36   32   34 1    
    37   32   35 1    
    38   32   36 1    
    39   36   37 1    
    40   36   38 1    
    41   38   39 2    
    42   38   40 am   
    43   40   41 1    
    44   41   42 1    
    45   42   43 1    
    46   43   44 2    
    47   43   45 am   
@<TRIPOS>SUBSTRUCTURE
     1 ACO501      1 GROUP   
@<TRIPOS>SET
ATOM$ORANGE STATIC     ATOMS   COLORGROUP SYSTEM 
38 2 2 4 4 5 5 6 6 9 9 11 11 12 12 14 14 20 \
20 22 22 32 32 33 33 34 34 35 35 36 36 38 38 41 41 42 \
42 43 43 

