#    Name: 6rft_3_ACO
#    Modification time : Fri May 22 19:32:14 2020

@<TRIPOS>MOLECULE
6rft_3_ACO
   51    53     1     0     1
SMALL
NO_CHARGES


@<TRIPOS>ATOM
      1 N1A        50.5320   31.8530   40.2350 N.ar      1 ACO501      0.0000 
      2 C2A        51.6950   31.2330   40.0290 C.ar      1 ACO501      0.0000 
      3 N3A        52.9310   31.6620   40.2630 N.ar      1 ACO501      0.0000 
      4 C4A        52.9670   32.9140   40.7860 C.ar      1 ACO501      0.0000 
      5 C5A        51.8060   33.6940   41.0580 C.ar      1 ACO501      0.0000 
      6 C6A        50.5720   33.1060   40.7580 C.ar      1 ACO501      0.0000 
      7 N6A        49.4010   33.7780   40.9850 N.pl3     1 ACO501      0.0000 
      8 N7A        52.1680   34.9260   41.5900 N.2       1 ACO501      0.0000 
      9 C8A        53.5110   34.8810   41.6290 C.2       1 ACO501      0.0000 
     10 N9A        54.0330   33.7160   41.1630 N.pl3     1 ACO501      0.0000 
     11 C1B        55.4580   33.3600   41.0870 C.3       1 ACO501      0.0000 
     12 C2B        56.0170   33.6530   39.6920 C.3       1 ACO501      0.0000 
     13 O2B        55.7530   32.5830   38.7820 O.3       1 ACO501      0.0000 
     14 C3B        57.4970   33.7160   40.0640 C.3       1 ACO501      0.0000 
     15 O3B        57.9630   32.3690   40.2810 O.3       1 ACO501      0.0000 
     16 P3B        59.5500   32.2580   40.2060 P.3       1 ACO501      0.0000 
     17 O7A        60.2110   32.9380   41.3750 O.co2     1 ACO501      0.0000 
     18 O8A        59.8390   30.7680   40.1730 O.co2     1 ACO501      0.0000 
     19 O9A        59.7930   32.8400   38.8350 O.co2     1 ACO501      0.0000 
     20 C4B        57.4790   34.4740   41.4020 C.3       1 ACO501      0.0000 
     21 O4B        56.1580   34.2210   41.9570 O.3       1 ACO501      0.0000 
     22 C5B        57.7720   35.9610   41.3250 C.3       1 ACO501      0.0000 
     23 O5B        57.0620   36.5510   40.2160 O.3       1 ACO501      0.0000 
     24 P1A        57.1360   38.1500   39.8970 P.3       1 ACO501      0.0000 
     25 O1A        57.5510   38.3710   38.4880 O.co2     1 ACO501      0.0000 
     26 O2A        57.9200   38.9680   40.8890 O.co2     1 ACO501      0.0000 
     27 O3A        55.5840   38.7760   39.8790 O.3       1 ACO501      0.0000 
     28 P2A        54.7530   39.5020   38.7340 P.3       1 ACO501      0.0000 
     29 O4A        55.4270   40.7790   38.4040 O.co2     1 ACO501      0.0000 
     30 O5A        54.5280   38.6470   37.5120 O.co2     1 ACO501      0.0000 
     31 O6A        53.3200   39.8220   39.3570 O.3       1 ACO501      0.0000 
     32 CBP        51.3670   38.7700   40.3780 C.3       1 ACO501      0.0000 
     33 CCP        52.8370   39.1550   40.5210 C.3       1 ACO501      0.0000 
     34 CDP        50.7110   38.8710   41.7420 C.3       1 ACO501      0.0000 
     35 CEP        51.2930   37.3380   39.8520 C.3       1 ACO501      0.0000 
     36 CAP        50.6510   39.7030   39.3870 C.3       1 ACO501      0.0000 
     37 OAP        50.8750   39.2630   38.0550 O.3       1 ACO501      0.0000 
     38 C9P        49.1350   39.6120   39.6260 C.2       1 ACO501      0.0000 
     39 O9P        48.5120   38.5620   39.5010 O.2       1 ACO501      0.0000 
     40 N8P        48.5370   40.7460   39.9690 N.am      1 ACO501      0.0000 
     41 C7P        47.1030   40.8140   40.2290 C.3       1 ACO501      0.0000 
     42 C6P        46.8560   40.7010   41.7280 C.3       1 ACO501      0.0000 
     43 C5P        46.8210   39.2680   42.2050 C.2       1 ACO501      0.0000 
     44 O5P        46.4970   38.3240   41.4950 O.2       1 ACO501      0.0000 
     45 N4P        47.1750   39.0900   43.4780 N.am      1 ACO501      0.0000 
     46 C3P        47.5740   40.1850   44.3670 C.3       1 ACO501      0.0000 
     47 C2P        46.4650   40.6280   45.3000 C.3       1 ACO501      0.0000 
     48 S1P        46.8500   40.1970   47.0300 S.3       1 ACO501      0.0000 
     49 C          46.5020   41.7870   47.7420 C.2       1 ACO501      0.0000 
     50 O          47.3220   42.6800   47.7290 O.2       1 ACO501      0.0000 
     51 CH3        45.1470   41.9620   48.3590 C.3       1 ACO501      0.0000 
@<TRIPOS>BOND
     1    1    2 ar   
     2    1    6 ar   
     3    2    3 ar   
     4    3    4 ar   
     5    4    5 ar   
     6    4   10 1    
     7    5    6 ar   
     8    5    8 1    
     9    6    7 1    
    10    8    9 2    
    11    9   10 1    
    12   10   11 1    
    13   11   12 1    
    14   11   21 1    
    15   12   13 1    
    16   12   14 1    
    17   14   15 1    
    18   14   20 1    
    19   15   16 1    
    20   16   17 ar   
    21   16   18 ar   
    22   16   19 ar   
    23   20   21 1    
    24   20   22 1    
    25   22   23 1    
    26   23   24 1    
    27   24   25 ar   
    28   24   26 ar   
    29   24   27 1    
    30   27   28 1    
    31   28   29 ar   
    32   28   30 ar   
    33   28   31 1    
    34   31   33 1    
    35   32   33 1    
    36   32   34 1    
    37   32   35 1    
    38   32   36 1    
    39   36   37 1    
    40   36   38 1    
    41   38   39 2    
    42   38   40 am   
    43   40   41 1    
    44   41   42 1    
    45   42   43 1    
    46   43   44 2    
    47   43   45 am   
    48   45   46 1    
    49   46   47 1    
    50   47   48 1    
    51   48   49 1    
    52   49   50 2    
    53   49   51 1    
@<TRIPOS>SUBSTRUCTURE
     1 ACO501      1 GROUP   
@<TRIPOS>SET
ATOM$ORANGE STATIC     ATOMS   COLORGROUP SYSTEM 
46 2 2 4 4 5 5 6 6 9 9 11 11 12 12 14 14 20 \
20 22 22 32 32 33 33 34 34 35 35 36 36 38 38 41 41 42 \
42 43 43 46 46 47 47 49 49 51 51 

