#    Name: 6rft_5_ACO
#    Modification time : Fri May 22 19:32:28 2020

@<TRIPOS>MOLECULE
6rft_5_ACO
   45    47     1     0     1
SMALL
NO_CHARGES


@<TRIPOS>ATOM
      1 N1A         4.4530   32.5890   61.2260 N.ar      1 ACO501      0.0000 
      2 C2A         3.9700   31.9080   62.2700 C.ar      1 ACO501      0.0000 
      3 N3A         3.2420   32.3500   63.2950 N.ar      1 ACO501      0.0000 
      4 C4A         2.9760   33.6840   63.2270 C.ar      1 ACO501      0.0000 
      5 C5A         3.4270   34.5250   62.1790 C.ar      1 ACO501      0.0000 
      6 C6A         4.1850   33.9280   61.1660 C.ar      1 ACO501      0.0000 
      7 N6A         4.6600   34.6740   60.1160 N.pl3     1 ACO501      0.0000 
      8 N7A         2.9950   35.8180   62.3930 N.2       1 ACO501      0.0000 
      9 C8A         2.3130   35.7650   63.5320 C.2       1 ACO501      0.0000 
     10 N9A         2.2690   34.5350   64.0680 N.pl3     1 ACO501      0.0000 
     11 C1B         1.5900   34.1780   65.2900 C.3       1 ACO501      0.0000 
     12 C2B         2.5550   34.3140   66.4650 C.3       1 ACO501      0.0000 
     13 O2B         3.1180   33.0510   66.8120 O.3       1 ACO501      0.0000 
     14 C3B         1.5580   34.7580   67.5290 C.3       1 ACO501      0.0000 
     15 O3B         0.7090   33.6460   67.8610 O.3       1 ACO501      0.0000 
     16 P3B         0.9870   33.0840   69.3120 P.3       1 ACO501      0.0000 
     17 O7A         0.1890   33.8190   70.3430 O.co2     1 ACO501      0.0000 
     18 O8A         0.6090   31.6230   69.2360 O.co2     1 ACO501      0.0000 
     19 O9A         2.4880   33.2050   69.3890 O.co2     1 ACO501      0.0000 
     20 C4B         0.7460   35.7640   66.7840 C.3       1 ACO501      0.0000 
     21 O4B         0.5890   35.1560   65.4760 O.3       1 ACO501      0.0000 
     22 C5B         1.4240   37.1020   66.6840 C.3       1 ACO501      0.0000 
     23 O5B         1.4960   37.6900   67.9910 O.3       1 ACO501      0.0000 
     24 P1A         1.5980   39.2830   68.1110 P.3       1 ACO501      0.0000 
     25 O1A         2.7610   39.6820   68.9180 O.co2     1 ACO501      0.0000 
     26 O2A         0.3190   39.9830   68.4420 O.co2     1 ACO501      0.0000 
     27 O3A         2.0870   39.8350   66.6540 O.3       1 ACO501      0.0000 
     28 P2A         3.5080   40.1630   66.0850 P.3       1 ACO501      0.0000 
     29 O4A         3.8960   41.4950   66.5730 O.co2     1 ACO501      0.0000 
     30 O5A         4.5150   39.1190   66.4340 O.co2     1 ACO501      0.0000 
     31 O6A         3.3740   40.1530   64.5110 O.3       1 ACO501      0.0000 
     32 CBP         4.3190   39.3770   62.4450 C.3       1 ACO501      0.0000 
     33 CCP         3.6310   38.9730   63.7160 C.3       1 ACO501      0.0000 
     34 CDP         3.5510   40.5870   61.9210 C.3       1 ACO501      0.0000 
     35 CEP         4.2910   38.2220   61.4470 C.3       1 ACO501      0.0000 
     36 CAP         5.8060   39.7100   62.7770 C.3       1 ACO501      0.0000 
     37 OAP         6.3850   38.6320   63.5140 O.3       1 ACO501      0.0000 
     38 C9P         6.6390   39.7780   61.4910 C.2       1 ACO501      0.0000 
     39 O9P         7.7620   39.2850   61.4440 O.2       1 ACO501      0.0000 
     40 N8P         6.0730   40.4170   60.4660 N.am      1 ACO501      0.0000 
     41 C7P         6.6340   40.6070   59.1450 C.3       1 ACO501      0.0000 
     42 C6P         5.5130   41.1500   58.2290 C.3       1 ACO501      0.0000 
     43 C5P         4.7680   40.0580   57.4850 C.2       1 ACO501      0.0000 
     44 O5P         5.2080   38.9350   57.3200 O.2       1 ACO501      0.0000 
     45 N4P         3.5810   40.3960   57.0040 N.am      1 ACO501      0.0000 
@<TRIPOS>BOND
     1    1    2 ar   
     2    1    6 ar   
     3    2    3 ar   
     4    3    4 ar   
     5    4    5 ar   
     6    4   10 1    
     7    5    6 ar   
     8    5    8 1    
     9    6    7 1    
    10    8    9 2    
    11    9   10 1    
    12   10   11 1    
    13   11   12 1    
    14   11   21 1    
    15   12   13 1    
    16   12   14 1    
    17   14   15 1    
    18   14   20 1    
    19   15   16 1    
    20   16   17 ar   
    21   16   18 ar   
    22   16   19 ar   
    23   20   21 1    
    24   20   22 1    
    25   22   23 1    
    26   23   24 1    
    27   24   25 ar   
    28   24   26 ar   
    29   24   27 1    
    30   27   28 1    
    31   28   29 ar   
    32   28   30 ar   
    33   28   31 1    
    34   31   33 1    
    35   32   33 1    
    36   32   34 1    
    37   32   35 1    
    38   32   36 1    
    39   36   37 1    
    40   36   38 1    
    41   38   39 2    
    42   38   40 am   
    43   40   41 1    
    44   41   42 1    
    45   42   43 1    
    46   43   44 2    
    47   43   45 am   
@<TRIPOS>SUBSTRUCTURE
     1 ACO501      1 GROUP   
@<TRIPOS>SET
ATOM$ORANGE STATIC     ATOMS   COLORGROUP SYSTEM 
38 2 2 4 4 5 5 6 6 9 9 11 11 12 12 14 14 20 \
20 22 22 32 32 33 33 34 34 35 35 36 36 38 38 41 41 42 \
42 43 43 

