#    Name: 6rft_1_ACO
#    Modification time : Fri May 22 19:31:59 2020

@<TRIPOS>MOLECULE
6rft_1_ACO
   51    53     1     0     1
SMALL
NO_CHARGES


@<TRIPOS>ATOM
      1 N1A        15.1020   15.8770   66.7740 N.ar      1 ACO501      0.0000 
      2 C2A        14.5280   16.6040   67.7330 C.ar      1 ACO501      0.0000 
      3 N3A        14.2770   16.2840   68.9990 N.ar      1 ACO501      0.0000 
      4 C4A        14.6800   15.0270   69.3140 C.ar      1 ACO501      0.0000 
      5 C5A        15.3070   14.1410   68.3910 C.ar      1 ACO501      0.0000 
      6 C6A        15.5040   14.6200   67.0950 C.ar      1 ACO501      0.0000 
      7 N6A        16.0970   13.8370   66.1420 N.pl3     1 ACO501      0.0000 
      8 N7A        15.6080   12.9360   69.0060 N.2       1 ACO501      0.0000 
      9 C8A        15.1630   13.0970   70.2610 C.2       1 ACO501      0.0000 
     10 N9A        14.6040   14.3120   70.4970 N.pl3     1 ACO501      0.0000 
     11 C1B        14.0480   14.7880   71.7720 C.3       1 ACO501      0.0000 
     12 C2B        12.5660   14.3630   71.9220 C.3       1 ACO501      0.0000 
     13 O2B        11.6660   15.3910   71.5070 O.3       1 ACO501      0.0000 
     14 C3B        12.5630   14.2010   73.4320 C.3       1 ACO501      0.0000 
     15 O3B        12.8040   15.5000   74.0180 O.3       1 ACO501      0.0000 
     16 P3B        11.5100   16.1690   74.6670 P.3       1 ACO501      0.0000 
     17 O7A        11.3180   15.7100   76.0850 O.co2     1 ACO501      0.0000 
     18 O8A        11.7630   17.6640   74.5780 O.co2     1 ACO501      0.0000 
     19 O9A        10.4450   15.7940   73.6650 O.co2     1 ACO501      0.0000 
     20 C4B        13.8010   13.3860   73.6070 C.3       1 ACO501      0.0000 
     21 O4B        14.7520   14.1160   72.7950 O.3       1 ACO501      0.0000 
     22 C5B        13.7100   11.9880   73.0470 C.3       1 ACO501      0.0000 
     23 O5B        13.2780   11.0700   74.0530 O.3       1 ACO501      0.0000 
     24 P1A        12.6640    9.6210   73.6340 P.3       1 ACO501      0.0000 
     25 O1A        11.1860    9.7150   73.5250 O.co2     1 ACO501      0.0000 
     26 O2A        13.1430    8.4620   74.4650 O.co2     1 ACO501      0.0000 
     27 O3A        13.0770    9.2580   72.0510 O.3       1 ACO501      0.0000 
     28 P2A        12.3570    8.3470   70.9620 P.3       1 ACO501      0.0000 
     29 O4A        11.8480    7.1380   71.6480 O.co2     1 ACO501      0.0000 
     30 O5A        11.2760    9.0530   70.1840 O.co2     1 ACO501      0.0000 
     31 O6A        13.4710    7.9010   69.9130 O.3       1 ACO501      0.0000 
     32 CBP        14.9480    8.9240   68.2670 C.3       1 ACO501      0.0000 
     33 CCP        14.6850    8.6210   69.7370 C.3       1 ACO501      0.0000 
     34 CDP        16.4430    8.8590   68.0210 C.3       1 ACO501      0.0000 
     35 CEP        14.4250   10.3230   67.9690 C.3       1 ACO501      0.0000 
     36 CAP        14.2270    7.9190   67.3510 C.3       1 ACO501      0.0000 
     37 OAP        12.8660    8.2940   67.1920 O.3       1 ACO501      0.0000 
     38 C9P        14.8610    7.9950   65.9560 C.2       1 ACO501      0.0000 
     39 O9P        14.7990    9.0060   65.2660 O.2       1 ACO501      0.0000 
     40 N8P        15.4790    6.8970   65.5380 N.am      1 ACO501      0.0000 
     41 C7P        16.1300    6.8280   64.2340 C.3       1 ACO501      0.0000 
     42 C6P        17.6430    6.9110   64.4220 C.3       1 ACO501      0.0000 
     43 C5P        18.1740    8.3100   64.2130 C.2       1 ACO501      0.0000 
     44 O5P        17.6690    9.1180   63.4450 O.2       1 ACO501      0.0000 
     45 N4P        19.2530    8.6190   64.9360 N.am      1 ACO501      0.0000 
     46 C3P        19.8980    7.6930   65.8730 C.3       1 ACO501      0.0000 
     47 C2P        21.1710    7.0760   65.3210 C.3       1 ACO501      0.0000 
     48 S1P        22.6570    7.8730   66.0260 S.3       1 ACO501      0.0000 
     49 C          23.7600    6.4670   65.9760 C.2       1 ACO501      0.0000 
     50 O          24.9220    6.5790   65.6600 O.2       1 ACO501      0.0000 
     51 CH3        23.1770    5.1370   66.3400 C.3       1 ACO501      0.0000 
@<TRIPOS>BOND
     1    1    2 ar   
     2    1    6 ar   
     3    2    3 ar   
     4    3    4 ar   
     5    4    5 ar   
     6    4   10 1    
     7    5    6 ar   
     8    5    8 1    
     9    6    7 1    
    10    8    9 2    
    11    9   10 1    
    12   10   11 1    
    13   11   12 1    
    14   11   21 1    
    15   12   13 1    
    16   12   14 1    
    17   14   15 1    
    18   14   20 1    
    19   15   16 1    
    20   16   17 ar   
    21   16   18 ar   
    22   16   19 ar   
    23   20   21 1    
    24   20   22 1    
    25   22   23 1    
    26   23   24 1    
    27   24   25 ar   
    28   24   26 ar   
    29   24   27 1    
    30   27   28 1    
    31   28   29 ar   
    32   28   30 ar   
    33   28   31 1    
    34   31   33 1    
    35   32   33 1    
    36   32   34 1    
    37   32   35 1    
    38   32   36 1    
    39   36   37 1    
    40   36   38 1    
    41   38   39 2    
    42   38   40 am   
    43   40   41 1    
    44   41   42 1    
    45   42   43 1    
    46   43   44 2    
    47   43   45 am   
    48   45   46 1    
    49   46   47 1    
    50   47   48 1    
    51   48   49 1    
    52   49   50 2    
    53   49   51 1    
@<TRIPOS>SUBSTRUCTURE
     1 ACO501      1 GROUP   
@<TRIPOS>SET
ATOM$ORANGE STATIC     ATOMS   COLORGROUP SYSTEM 
46 2 2 4 4 5 5 6 6 9 9 11 11 12 12 14 14 20 \
20 22 22 32 32 33 33 34 34 35 35 36 36 38 38 41 41 42 \
42 43 43 46 46 47 47 49 49 51 51 

