#    Name: 6rft_2_ACO
#    Modification time : Fri May 22 19:32:06 2020

@<TRIPOS>MOLECULE
6rft_2_ACO
   51    53     1     0     1
SMALL
NO_CHARGES


@<TRIPOS>ATOM
      1 N1A         9.5570   30.0600   10.9110 N.ar      1 ACO501      0.0000 
      2 C2A         8.7920   29.4410   10.0130 C.ar      1 ACO501      0.0000 
      3 N3A         8.2690   29.9110    8.8860 N.ar      1 ACO501      0.0000 
      4 C4A         8.5860   31.2100    8.6590 C.ar      1 ACO501      0.0000 
      5 C5A         9.3940   31.9960    9.5310 C.ar      1 ACO501      0.0000 
      6 C6A         9.8730   31.3590   10.6810 C.ar      1 ACO501      0.0000 
      7 N6A        10.6560   32.0250   11.5840 N.pl3     1 ACO501      0.0000 
      8 N7A         9.5420   33.2810    9.0230 N.2       1 ACO501      0.0000 
      9 C8A         8.8300   33.2590    7.8800 C.2       1 ACO501      0.0000 
     10 N9A         8.2440   32.0580    7.6240 N.pl3     1 ACO501      0.0000 
     11 C1B         7.4220   31.7120    6.4600 C.3       1 ACO501      0.0000 
     12 C2B         5.9690   32.1910    6.6560 C.3       1 ACO501      0.0000 
     13 O2B         5.1460   31.1640    7.2120 O.3       1 ACO501      0.0000 
     14 C3B         5.6280   32.4400    5.1940 C.3       1 ACO501      0.0000 
     15 O3B         5.5670   31.1650    4.5230 O.3       1 ACO501      0.0000 
     16 P3B         4.1090   30.8300    3.9860 P.3       1 ACO501      0.0000 
     17 O7A         3.7460   31.7090    2.8210 O.co2     1 ACO501      0.0000 
     18 O8A         4.1570   29.3590    3.6100 O.co2     1 ACO501      0.0000 
     19 O9A         3.3070   30.9880    5.2550 O.co2     1 ACO501      0.0000 
     20 C4B         6.8610   33.1660    4.7210 C.3       1 ACO501      0.0000 
     21 O4B         7.9380   32.4540    5.3770 O.3       1 ACO501      0.0000 
     22 C5B         6.9550   34.6230    5.1040 C.3       1 ACO501      0.0000 
     23 O5B         5.6550   35.2210    5.0800 O.3       1 ACO501      0.0000 
     24 P1A         5.4660   36.8140    5.3560 P.3       1 ACO501      0.0000 
     25 O1A         4.0650   37.0910    5.7580 O.co2     1 ACO501      0.0000 
     26 O2A         5.9820   37.7180    4.2680 O.co2     1 ACO501      0.0000 
     27 O3A         6.2800   37.2410    6.7530 O.3       1 ACO501      0.0000 
     28 P2A         5.7880   37.9630    8.0810 P.3       1 ACO501      0.0000 
     29 O4A         5.0400   39.1830    7.7010 O.co2     1 ACO501      0.0000 
     30 O5A         4.9940   37.0780    9.0060 O.co2     1 ACO501      0.0000 
     31 O6A         7.1100   38.3900    8.8500 O.3       1 ACO501      0.0000 
     32 CBP         8.8820   37.2600   10.0730 C.3       1 ACO501      0.0000 
     33 CCP         8.3080   37.6380    8.7210 C.3       1 ACO501      0.0000 
     34 CDP        10.3950   37.3670    9.9920 C.3       1 ACO501      0.0000 
     35 CEP         8.4650   35.8270   10.3860 C.3       1 ACO501      0.0000 
     36 CAP         8.3490   38.1850   11.1800 C.3       1 ACO501      0.0000 
     37 OAP         7.1010   37.7040   11.6640 O.3       1 ACO501      0.0000 
     38 C9P         9.3260   38.1410   12.3610 C.2       1 ACO501      0.0000 
     39 O9P         9.5470   37.1130   12.9930 O.2       1 ACO501      0.0000 
     40 N8P         9.9200   39.2890   12.6590 N.am      1 ACO501      0.0000 
     41 C7P        10.8800   39.4020   13.7510 C.3       1 ACO501      0.0000 
     42 C6P        12.2970   39.3390   13.1820 C.3       1 ACO501      0.0000 
     43 C5P        12.9210   37.9710   13.3290 C.2       1 ACO501      0.0000 
     44 O5P        12.5880   37.1630   14.1840 O.2       1 ACO501      0.0000 
     45 N4P        13.8800   37.6880   12.4460 N.am      1 ACO501      0.0000 
     46 C3P        14.3210   38.6110   11.4000 C.3       1 ACO501      0.0000 
     47 C2P        15.6610   39.2470   11.7090 C.3       1 ACO501      0.0000 
     48 S1P        16.9370   38.7340   10.5120 S.3       1 ACO501      0.0000 
     49 C          18.0360   40.1110   10.7480 C.2       1 ACO501      0.0000 
     50 O          17.7510   41.2240   10.3600 O.2       1 ACO501      0.0000 
     51 CH3        19.3290   39.8200   11.4490 C.3       1 ACO501      0.0000 
@<TRIPOS>BOND
     1    1    2 ar   
     2    1    6 ar   
     3    2    3 ar   
     4    3    4 ar   
     5    4    5 ar   
     6    4   10 1    
     7    5    6 ar   
     8    5    8 1    
     9    6    7 1    
    10    8    9 2    
    11    9   10 1    
    12   10   11 1    
    13   11   12 1    
    14   11   21 1    
    15   12   13 1    
    16   12   14 1    
    17   14   15 1    
    18   14   20 1    
    19   15   16 1    
    20   16   17 ar   
    21   16   18 ar   
    22   16   19 ar   
    23   20   21 1    
    24   20   22 1    
    25   22   23 1    
    26   23   24 1    
    27   24   25 ar   
    28   24   26 ar   
    29   24   27 1    
    30   27   28 1    
    31   28   29 ar   
    32   28   30 ar   
    33   28   31 1    
    34   31   33 1    
    35   32   33 1    
    36   32   34 1    
    37   32   35 1    
    38   32   36 1    
    39   36   37 1    
    40   36   38 1    
    41   38   39 2    
    42   38   40 am   
    43   40   41 1    
    44   41   42 1    
    45   42   43 1    
    46   43   44 2    
    47   43   45 am   
    48   45   46 1    
    49   46   47 1    
    50   47   48 1    
    51   48   49 1    
    52   49   50 2    
    53   49   51 1    
@<TRIPOS>SUBSTRUCTURE
     1 ACO501      1 GROUP   
@<TRIPOS>SET
ATOM$ORANGE STATIC     ATOMS   COLORGROUP SYSTEM 
46 2 2 4 4 5 5 6 6 9 9 11 11 12 12 14 14 20 \
20 22 22 32 32 33 33 34 34 35 35 36 36 38 38 41 41 42 \
42 43 43 46 46 47 47 49 49 51 51 

