#    Name: 6rft_4_ACO
#    Modification time : Fri May 22 19:32:21 2020

@<TRIPOS>MOLECULE
6rft_4_ACO
   42    44     1     0     1
SMALL
NO_CHARGES


@<TRIPOS>ATOM
      1 N1A        49.4280   14.5580   29.3720 N.ar      1 ACO501      0.0000 
      2 C2A        50.5310   15.2470   29.0740 C.ar      1 ACO501      0.0000 
      3 N3A        51.7420   14.8030   28.7540 N.ar      1 ACO501      0.0000 
      4 C4A        51.8210   13.4480   28.7420 C.ar      1 ACO501      0.0000 
      5 C5A        50.7240   12.5870   29.0400 C.ar      1 ACO501      0.0000 
      6 C6A        49.5100   13.2030   29.3590 C.ar      1 ACO501      0.0000 
      7 N6A        48.4010   12.4580   29.6600 N.pl3     1 ACO501      0.0000 
      8 N7A        51.1130   11.2580   28.9440 N.2       1 ACO501      0.0000 
      9 C8A        52.4100   11.3290   28.5990 C.2       1 ACO501      0.0000 
     10 N9A        52.8810   12.5990   28.4690 N.pl3     1 ACO501      0.0000 
     11 C1B        54.2540   13.0020   28.0960 C.3       1 ACO501      0.0000 
     12 C2B        55.1730   12.9750   29.3440 C.3       1 ACO501      0.0000 
     13 O2B        55.3590   14.2830   29.8910 O.3       1 ACO501      0.0000 
     14 C3B        56.4540   12.4400   28.6990 C.3       1 ACO501      0.0000 
     15 O3B        57.0950   13.4760   27.9260 O.3       1 ACO501      0.0000 
     16 P3B        58.2390   14.2150   28.7520 P.3       1 ACO501      0.0000 
     17 O7A        59.3390   14.6840   27.8390 O.co2     1 ACO501      0.0000 
     18 O8A        57.5400   15.3670   29.4520 O.co2     1 ACO501      0.0000 
     19 O9A        58.5880   13.1540   29.7690 O.co2     1 ACO501      0.0000 
     20 C4B        55.9150   11.3990   27.7610 C.3       1 ACO501      0.0000 
     21 O4B        54.7410   12.0310   27.1960 O.3       1 ACO501      0.0000 
     22 C5B        55.5040   10.1140   28.4280 C.3       1 ACO501      0.0000 
     23 O5B        56.6510    9.4570   28.9790 O.3       1 ACO501      0.0000 
     24 P1A        56.5920    7.8590   29.2630 P.3       1 ACO501      0.0000 
     25 O1A        57.0810    7.5520   30.6310 O.co2     1 ACO501      0.0000 
     26 O2A        57.1940    7.0000   28.1840 O.co2     1 ACO501      0.0000 
     27 O3A        54.9820    7.4220   29.3720 O.3       1 ACO501      0.0000 
     28 P2A        54.0800    6.9400   30.5870 P.3       1 ACO501      0.0000 
     29 O4A        54.3860    5.5200   30.8690 O.co2     1 ACO501      0.0000 
     30 O5A        54.2000    7.7990   31.8190 O.co2     1 ACO501      0.0000 
     31 O6A        52.5760    7.0590   30.0840 O.3       1 ACO501      0.0000 
     32 CBP        50.1510    7.1100   30.3160 C.3       1 ACO501      0.0000 
     33 CCP        51.4880    6.8610   30.9950 C.3       1 ACO501      0.0000 
     34 CDP        50.1860    6.4210   28.9570 C.3       1 ACO501      0.0000 
     35 CEP        49.9660    8.6240   30.2040 C.3       1 ACO501      0.0000 
     36 CAP        49.0440    6.4910   31.2410 C.3       1 ACO501      0.0000 
     37 OAP        49.0880    7.1210   32.5160 O.3       1 ACO501      0.0000 
     38 C9P        47.5670    6.6520   30.7380 C.2       1 ACO501      0.0000 
     39 O9P        46.6500    6.2370   31.4380 O.2       1 ACO501      0.0000 
     40 N8P        47.3400    7.2360   29.5620 N.am      1 ACO501      0.0000 
     41 C7P        45.9980    7.4240   29.0200 C.3       1 ACO501      0.0000 
     42 C6P        45.5020    6.1030   28.4320 C.3       1 ACO501      0.0000 
@<TRIPOS>BOND
     1    1    2 ar   
     2    1    6 ar   
     3    2    3 ar   
     4    3    4 ar   
     5    4    5 ar   
     6    4   10 1    
     7    5    6 ar   
     8    5    8 1    
     9    6    7 1    
    10    8    9 2    
    11    9   10 1    
    12   10   11 1    
    13   11   12 1    
    14   11   21 1    
    15   12   13 1    
    16   12   14 1    
    17   14   15 1    
    18   14   20 1    
    19   15   16 1    
    20   16   17 ar   
    21   16   18 ar   
    22   16   19 ar   
    23   20   21 1    
    24   20   22 1    
    25   22   23 1    
    26   23   24 1    
    27   24   25 ar   
    28   24   26 ar   
    29   24   27 1    
    30   27   28 1    
    31   28   29 ar   
    32   28   30 ar   
    33   28   31 1    
    34   31   33 1    
    35   32   33 1    
    36   32   34 1    
    37   32   35 1    
    38   32   36 1    
    39   36   37 1    
    40   36   38 1    
    41   38   39 2    
    42   38   40 am   
    43   40   41 1    
    44   41   42 1    
@<TRIPOS>SUBSTRUCTURE
     1 ACO501      1 GROUP   
@<TRIPOS>SET
ATOM$ORANGE STATIC     ATOMS   COLORGROUP SYSTEM 
36 2 2 4 4 5 5 6 6 9 9 11 11 12 12 14 14 20 \
20 22 22 32 32 33 33 34 34 35 35 36 36 38 38 41 41 42 \
42 

