#    Name: 6pkx_1_AR6
#    Modification time : Fri May 22 19:27:55 2020

@<TRIPOS>MOLECULE
6pkx_1_AR6
   57    60     1     0     0
SMALL
NO_CHARGES


@<TRIPOS>ATOM
      1 N1       -128.5480  197.9930  139.7800 N.ar      1 AR61602     0.0000 
      2 C2       -129.1510  199.1610  139.8250 C.ar      1 AR61602     0.0000 
      3 N3       -129.9310  199.5760  138.8550 N.ar      1 AR61602     0.0000 
      4 C4       -130.1330  198.8210  137.7830 C.ar      1 AR61602     0.0000 
      5 C5       -129.5220  197.5980  137.7010 C.ar      1 AR61602     0.0000 
      6 C6       -128.7050  197.2010  138.7540 C.ar      1 AR61602     0.0000 
      7 N6       -128.0300  195.9270  138.7350 N.pl3     1 AR61602     0.0000 
      8 N7       -129.8860  197.0500  136.5400 N.2       1 AR61602     0.0000 
      9 C8       -130.7000  197.8900  135.9370 C.2       1 AR61602     0.0000 
     10 N9       -130.8420  198.9750  136.6780 N.pl3     1 AR61602     0.0000 
     11 PA       -136.2560  198.3090  134.6410 P.3       1 AR61602     0.0000 
     12 PB       -134.2930  196.3030  134.7420 P.3       1 AR61602     0.0000 
     13 C1'      -131.6240  200.1460  136.4130 C.3       1 AR61602     0.0000 
     14 O1A      -136.0070  197.9480  133.2060 O.co2     1 AR61602     0.0000 
     15 O1B      -133.2860  197.1650  134.0380 O.co2     1 AR61602     0.0000 
     16 C1D      -132.2780  192.2100  137.6960 C.3       1 AR61602     0.0000 
     17 O1D      -131.6880  192.0680  138.9880 O.3       1 AR61602     0.0000 
     18 C2'      -131.1350  200.8260  135.4140 C.3       1 AR61602     0.0000 
     19 O2'      -130.2350  201.8910  135.9340 O.3       1 AR61602     0.0000 
     20 O2A      -137.7290  198.1550  134.9280 O.co2     1 AR61602     0.0000 
     21 O2B      -135.0320  195.4630  133.7360 O.co2     1 AR61602     0.0000 
     22 C2D      -131.2360  191.9660  136.5740 C.3       1 AR61602     0.0000 
     23 O2D      -130.1950  191.2530  137.0590 O.3       1 AR61602     0.0000 
     24 C3'      -132.3250  201.4360  134.7190 C.3       1 AR61602     0.0000 
     25 O3'      -132.3730  202.7630  134.9570 O.3       1 AR61602     0.0000 
     26 O3A      -135.3530  197.2720  135.5240 O.3       1 AR61602     0.0000 
     27 C3D      -130.7130  193.3190  136.1820 C.3       1 AR61602     0.0000 
     28 O3D      -129.3970  193.5390  136.8910 O.3       1 AR61602     0.0000 
     29 C4'      -133.5620  200.7460  135.3630 C.3       1 AR61602     0.0000 
     30 O4'      -133.1080  199.7250  135.9600 O.3       1 AR61602     0.0000 
     31 C4D      -131.6460  194.1550  136.5300 C.3       1 AR61602     0.0000 
     32 O4D      -132.6580  193.4080  137.5470 O.3       1 AR61602     0.0000 
     33 C5'      -134.5610  200.2680  134.2770 C.3       1 AR61602     0.0000 
     34 O5'      -135.7320  199.8430  134.9120 O.3       1 AR61602     0.0000 
     35 C5D      -132.4490  194.5890  135.3320 C.3       1 AR61602     0.0000 
     36 O5D      -133.5050  195.3480  135.8080 O.3       1 AR61602     0.0000 
     37 H2       -129.0160  199.6990  140.5680 H         1 AR61602     0.0000 
     38 HN6      -127.9820  195.4750  138.0070 H         1 AR61602     0.0000 
     39 HN6A     -127.6780  195.6310  139.4580 H         1 AR61602     0.0000 
     40 H8       -131.0970  197.7630  135.1040 H         1 AR61602     0.0000 
     41 H1'      -131.6840  200.7120  137.1960 H         1 AR61602     0.0000 
     42 H1D      -133.0280  191.6090  137.6040 H         1 AR61602     0.0000 
     43 H2'      -130.6460  200.2980  134.7770 H         1 AR61602     0.0000 
     44 HO2'     -129.7180  202.0950  135.2970 H         1 AR61602     0.0000 
     45 H2D      -131.6490  191.5430  135.8100 H         1 AR61602     0.0000 
     46 HO2D     -129.6730  191.7880  137.4620 H         1 AR61602     0.0000 
     47 H3'      -132.2790  201.2630  133.7720 H         1 AR61602     0.0000 
     48 HO3'     -133.1860  203.0000  134.9520 H         1 AR61602     0.0000 
     49 H3D      -130.5720  193.3480  135.2300 H         1 AR61602     0.0000 
     50 HO3D     -129.4800  194.0780  137.5400 H         1 AR61602     0.0000 
     51 H4'      -133.9850  201.3470  135.9890 H         1 AR61602     0.0000 
     52 H4D      -131.2770  194.9280  136.9610 H         1 AR61602     0.0000 
     53 H5'      -134.7550  200.9990  133.6770 H         1 AR61602     0.0000 
     54 H5'A     -134.1620  199.5320  133.7930 H         1 AR61602     0.0000 
     55 H5D      -132.7990  193.8120  134.8830 H         1 AR61602     0.0000 
     56 H5DA     -131.9190  195.1250  134.7330 H         1 AR61602     0.0000 
     57 HD1      -131.9420  192.7150  139.4790 H         1 AR61602     0.0000 
@<TRIPOS>BOND
     1    1    2 ar   
     2    1    6 ar   
     3    2    3 ar   
     4    3    4 ar   
     5    2   37 1    
     6    4    5 ar   
     7    4   10 1    
     8    5    6 ar   
     9    5    8 1    
    10    6    7 1    
    11    8    9 2    
    12    7   38 1    
    13    7   39 1    
    14    9   10 1    
    15   10   13 1    
    16    9   40 1    
    17   11   14 ar   
    18   11   20 ar   
    19   11   26 1    
    20   11   34 1    
    21   12   15 ar   
    22   12   21 ar   
    23   12   26 1    
    24   12   36 1    
    25   13   18 1    
    26   13   30 1    
    27   13   41 1    
    28   16   17 1    
    29   16   22 1    
    30   16   32 1    
    31   16   42 1    
    32   17   57 1    
    33   18   19 1    
    34   18   24 1    
    35   18   43 1    
    36   22   23 1    
    37   19   44 1    
    38   22   27 1    
    39   22   45 1    
    40   23   46 1    
    41   24   25 1    
    42   24   29 1    
    43   24   47 1    
    44   25   48 1    
    45   27   28 1    
    46   27   31 1    
    47   27   49 1    
    48   31   52 1    
    49   29   30 1    
    50   28   50 1    
    51   29   33 1    
    52   29   51 1    
    53   31   32 1    
    54   31   35 1    
    55   33   34 1    
    56   33   53 1    
    57   33   54 1    
    58   35   36 1    
    59   35   55 1    
    60   35   56 1    
@<TRIPOS>SUBSTRUCTURE
     1 AR61602     1 GROUP   
@<TRIPOS>SET

