#    Name: 6pkx_2_AR6
#    Modification time : Fri May 22 19:28:08 2020

@<TRIPOS>MOLECULE
6pkx_2_AR6
   57    60     1     0     0
SMALL
NO_CHARGES


@<TRIPOS>ATOM
      1 N1       -227.2970  157.8410  139.7720 N.ar      1 AR61602     0.0000 
      2 C2       -226.6940  156.6730  139.8160 C.ar      1 AR61602     0.0000 
      3 N3       -225.9140  156.2590  138.8460 N.ar      1 AR61602     0.0000 
      4 C4       -225.7120  157.0140  137.7740 C.ar      1 AR61602     0.0000 
      5 C5       -226.3240  158.2370  137.6930 C.ar      1 AR61602     0.0000 
      6 C6       -227.1410  158.6340  138.7460 C.ar      1 AR61602     0.0000 
      7 N6       -227.8160  159.9080  138.7260 N.pl3     1 AR61602     0.0000 
      8 N7       -225.9600  158.7840  136.5320 N.2       1 AR61602     0.0000 
      9 C8       -225.1460  157.9440  135.9280 C.2       1 AR61602     0.0000 
     10 N9       -225.0030  156.8590  136.6690 N.pl3     1 AR61602     0.0000 
     11 PA       -219.5910  157.5260  134.6310 P.3       1 AR61602     0.0000 
     12 PB       -221.5540  159.5320  134.7320 P.3       1 AR61602     0.0000 
     13 C1'      -224.2210  155.6880  136.4040 C.3       1 AR61602     0.0000 
     14 O1A      -219.8400  157.8870  133.1960 O.co2     1 AR61602     0.0000 
     15 O1B      -222.5610  158.6700  134.0290 O.co2     1 AR61602     0.0000 
     16 C1D      -223.5680  163.6250  137.6880 C.3       1 AR61602     0.0000 
     17 O1D      -224.1580  163.7670  138.9800 O.3       1 AR61602     0.0000 
     18 C2'      -224.7110  155.0090  135.4040 C.3       1 AR61602     0.0000 
     19 O2'      -225.6110  153.9430  135.9240 O.3       1 AR61602     0.0000 
     20 O2A      -218.1180  157.6810  134.9180 O.co2     1 AR61602     0.0000 
     21 O2B      -220.8150  160.3720  133.7260 O.co2     1 AR61602     0.0000 
     22 C2D      -224.6100  163.8680  136.5660 C.3       1 AR61602     0.0000 
     23 O2D      -225.6510  164.5810  137.0510 O.3       1 AR61602     0.0000 
     24 C3'      -223.5210  154.3990  134.7090 C.3       1 AR61602     0.0000 
     25 O3'      -223.4730  153.0720  134.9480 O.3       1 AR61602     0.0000 
     26 O3A      -220.4940  158.5620  135.5140 O.3       1 AR61602     0.0000 
     27 C3D      -225.1330  162.5150  136.1740 C.3       1 AR61602     0.0000 
     28 O3D      -226.4490  162.2950  136.8830 O.3       1 AR61602     0.0000 
     29 C4'      -222.2840  155.0890  135.3530 C.3       1 AR61602     0.0000 
     30 O4'      -222.7380  156.1090  135.9500 O.3       1 AR61602     0.0000 
     31 C4D      -224.2000  161.6790  136.5210 C.3       1 AR61602     0.0000 
     32 O4D      -223.1880  162.4270  137.5380 O.3       1 AR61602     0.0000 
     33 C5'      -221.2850  155.5670  134.2670 C.3       1 AR61602     0.0000 
     34 O5'      -220.1140  155.9920  134.9020 O.3       1 AR61602     0.0000 
     35 C5D      -223.3980  161.2460  135.3230 C.3       1 AR61602     0.0000 
     36 O5D      -222.3410  160.4860  135.7980 O.3       1 AR61602     0.0000 
     37 H2       -226.8290  156.1350  140.5590 H         1 AR61602     0.0000 
     38 HN6      -227.8640  160.3590  137.9990 H         1 AR61602     0.0000 
     39 HN6A     -228.1680  160.2030  139.4500 H         1 AR61602     0.0000 
     40 H8       -224.7500  158.0720  135.0950 H         1 AR61602     0.0000 
     41 H1'      -224.1610  155.1230  137.1860 H         1 AR61602     0.0000 
     42 H1D      -222.8180  164.2260  137.5960 H         1 AR61602     0.0000 
     43 H2'      -225.2000  155.5370  134.7680 H         1 AR61602     0.0000 
     44 HO2'     -226.1280  153.7400  135.2870 H         1 AR61602     0.0000 
     45 H2D      -224.1970  164.2910  135.8020 H         1 AR61602     0.0000 
     46 HO2D     -226.1730  164.0460  137.4540 H         1 AR61602     0.0000 
     47 H3'      -223.5670  154.5720  133.7620 H         1 AR61602     0.0000 
     48 HO3'     -222.6600  152.8350  134.9420 H         1 AR61602     0.0000 
     49 H3D      -225.2750  162.4870  135.2220 H         1 AR61602     0.0000 
     50 HO3D     -226.3660  161.7560  137.5320 H         1 AR61602     0.0000 
     51 H4'      -221.8610  154.4870  135.9790 H         1 AR61602     0.0000 
     52 H4D      -224.5690  160.9060  136.9520 H         1 AR61602     0.0000 
     53 H5'      -221.0910  154.8360  133.6670 H         1 AR61602     0.0000 
     54 H5'A     -221.6850  156.3030  133.7830 H         1 AR61602     0.0000 
     55 H5D      -223.0480  162.0230  134.8740 H         1 AR61602     0.0000 
     56 H5DA     -223.9280  160.7100  134.7240 H         1 AR61602     0.0000 
     57 HD1      -223.9040  163.1190  139.4700 H         1 AR61602     0.0000 
@<TRIPOS>BOND
     1    1    2 ar   
     2    1    6 ar   
     3    2    3 ar   
     4    3    4 ar   
     5    2   37 1    
     6    4    5 ar   
     7    4   10 1    
     8    5    6 ar   
     9    5    8 1    
    10    6    7 1    
    11    8    9 2    
    12    7   38 1    
    13    7   39 1    
    14    9   10 1    
    15   10   13 1    
    16    9   40 1    
    17   11   14 ar   
    18   11   20 ar   
    19   11   26 1    
    20   11   34 1    
    21   12   15 ar   
    22   12   21 ar   
    23   12   26 1    
    24   12   36 1    
    25   13   18 1    
    26   13   30 1    
    27   13   41 1    
    28   16   17 1    
    29   16   22 1    
    30   16   32 1    
    31   16   42 1    
    32   17   57 1    
    33   18   19 1    
    34   18   24 1    
    35   18   43 1    
    36   22   23 1    
    37   19   44 1    
    38   22   27 1    
    39   22   45 1    
    40   23   46 1    
    41   24   25 1    
    42   24   29 1    
    43   24   47 1    
    44   25   48 1    
    45   27   28 1    
    46   27   31 1    
    47   27   49 1    
    48   31   52 1    
    49   29   30 1    
    50   28   50 1    
    51   29   33 1    
    52   29   51 1    
    53   31   32 1    
    54   31   35 1    
    55   33   34 1    
    56   33   53 1    
    57   33   54 1    
    58   35   36 1    
    59   35   55 1    
    60   35   56 1    
@<TRIPOS>SUBSTRUCTURE
     1 AR61602     1 GROUP   
@<TRIPOS>SET

