#    Name: 6bwi_17_Y01
#    Modification time : Fri May 22 19:34:55 2020

@<TRIPOS>MOLECULE
6bwi_17_Y01
   35    38     1     0     0
SMALL
NO_CHARGES


@<TRIPOS>ATOM
      1 CAA       144.8890  140.2250  122.3470 C.3       1 Y011202     0.0000 
      2 CBA       145.8880  141.3810  122.3900 C.3       1 Y011202     0.0000 
      3 CAB       145.1720  142.6570  122.8330 C.3       1 Y011202     0.0000 
      4 CAN       146.4810  141.5910  121.0030 C.3       1 Y011202     0.0000 
      5 CAJ       147.0630  140.2750  120.5000 C.3       1 Y011202     0.0000 
      6 CAO       146.1850  139.7490  119.3760 C.3       1 Y011202     0.0000 
      7 CBB       147.0240  139.6670  118.1110 C.3       1 Y011202     0.0000 
      8 CAC       148.2210  138.7690  118.3680 C.3       1 Y011202     0.0000 
      9 CBE       146.1940  139.0500  117.0010 C.3       1 Y011202     0.0000 
     10 CAP       144.9230  139.8760  116.8210 C.3       1 Y011202     0.0000 
     11 CAQ       144.7150  140.0050  115.3080 C.3       1 Y011202     0.0000 
     12 CBG       145.6860  138.9880  114.7660 C.3       1 Y011202     0.0000 
     13 CBI       146.8690  139.1940  115.6550 C.3       1 Y011202     0.0000 
     14 CAE       147.5050  140.5740  115.4520 C.3       1 Y011202     0.0000 
     15 CAU       147.8830  138.1310  115.3390 C.3       1 Y011202     0.0000 
     16 CAS       148.3070  138.2960  113.8750 C.3       1 Y011202     0.0000 
     17 CBF       147.0770  138.1990  112.9670 C.3       1 Y011202     0.0000 
     18 CBD       146.0800  139.2710  113.3540 C.3       1 Y011202     0.0000 
     19 CAK       144.8440  139.1440  112.4750 C.3       1 Y011202     0.0000 
     20 CAI       145.1060  139.0280  111.1020 C.2       1 Y011202     0.0000 
     21 CAZ       146.3400  138.6010  110.6070 C.2       1 Y011202     0.0000 
     22 CAV       146.5110  138.5140  109.2270 C.3       1 Y011202     0.0000 
     23 CBH       147.4340  138.2760  111.4440 C.3       1 Y011202     0.0000 
     24 CAD       148.5100  139.3340  111.2280 C.3       1 Y011202     0.0000 
     25 CAT       147.9950  136.9060  111.0620 C.3       1 Y011202     0.0000 
     26 CAR       148.2540  136.7800  109.5610 C.3       1 Y011202     0.0000 
     27 CBC       146.9640  137.1150  108.8360 C.3       1 Y011202     0.0000 
     28 OAW       147.1960  137.0610  107.4300 O.3       1 Y011202     0.0000 
     29 CAY       146.0220  137.1030  106.7500 C.2       1 Y011202     0.0000 
     30 OAG       145.1240  137.9070  106.9850 O.2       1 Y011202     0.0000 
     31 CAM       145.8750  136.0630  105.6360 C.3       1 Y011202     0.0000 
     32 CAL       147.2530  135.5870  105.1670 C.3       1 Y011202     0.0000 
     33 CAX       147.5530  136.1350  103.7680 C.2       1 Y011202     0.0000 
     34 OAH       147.8450  135.2990  102.8850 O.co2     1 Y011202     0.0000 
     35 OAF       147.4870  137.3750  103.6120 O.co2     1 Y011202     0.0000 
@<TRIPOS>BOND
     1    1    2 1    
     2    2    3 1    
     3    2    4 1    
     4    4    5 1    
     5    5    6 1    
     6    6    7 1    
     7    7    8 1    
     8    7    9 1    
     9    9   10 1    
    10    9   13 1    
    11   10   11 1    
    12   11   12 1    
    13   12   13 1    
    14   12   18 1    
    15   13   14 1    
    16   13   15 1    
    17   15   16 1    
    18   16   17 1    
    19   17   18 1    
    20   17   23 1    
    21   18   19 1    
    22   19   20 1    
    23   20   21 2    
    24   21   22 1    
    25   21   23 1    
    26   22   27 1    
    27   23   24 1    
    28   23   25 1    
    29   25   26 1    
    30   26   27 1    
    31   27   28 1    
    32   28   29 1    
    33   29   30 2    
    34   29   31 1    
    35   31   32 1    
    36   32   33 1    
    37   33   34 ar   
    38   33   35 ar   
@<TRIPOS>SUBSTRUCTURE
     1 Y011202     1 GROUP   
@<TRIPOS>SET

