#    Name: 6bwi_9_Y01
#    Modification time : Fri May 22 19:34:13 2020

@<TRIPOS>MOLECULE
6bwi_9_Y01
   35    38     1     0     0
SMALL
NO_CHARGES


@<TRIPOS>ATOM
      1 CAA       129.0590  184.0790  124.4670 C.3       1 Y011206     0.0000 
      2 CBA       129.2010  182.5880  124.1580 C.3       1 Y011206     0.0000 
      3 CAB       127.9990  181.8350  124.7280 C.3       1 Y011206     0.0000 
      4 CAN       130.4860  182.0590  124.7960 C.3       1 Y011206     0.0000 
      5 CAJ       130.4490  182.3360  126.2980 C.3       1 Y011206     0.0000 
      6 CAO       131.8690  182.2870  126.8570 C.3       1 Y011206     0.0000 
      7 CBB       132.4270  180.8760  126.6840 C.3       1 Y011206     0.0000 
      8 CAC       133.9370  180.9750  126.4480 C.3       1 Y011206     0.0000 
      9 CBE       132.0390  180.0190  127.9150 C.3       1 Y011206     0.0000 
     10 CAP       131.8010  178.5520  127.5450 C.3       1 Y011206     0.0000 
     11 CAQ       131.8750  177.8410  128.9160 C.3       1 Y011206     0.0000 
     12 CBG       132.2940  178.9630  129.8730 C.3       1 Y011206     0.0000 
     13 CBI       133.1110  179.8520  129.0000 C.3       1 Y011206     0.0000 
     14 CAE       134.3990  179.1280  128.5610 C.3       1 Y011206     0.0000 
     15 CAU       133.4480  181.1050  129.7650 C.3       1 Y011206     0.0000 
     16 CAS       134.3010  180.7000  130.9660 C.3       1 Y011206     0.0000 
     17 CBF       133.5430  179.7120  131.8410 C.3       1 Y011206     0.0000 
     18 CBD       133.1340  178.4900  131.0350 C.3       1 Y011206     0.0000 
     19 CAK       132.3180  177.5520  131.9360 C.3       1 Y011206     0.0000 
     20 CAI       132.8460  177.3430  133.2250 C.2       1 Y011206     0.0000 
     21 CAZ       133.8340  178.1770  133.7660 C.2       1 Y011206     0.0000 
     22 CAV       134.2850  177.8840  135.0520 C.3       1 Y011206     0.0000 
     23 CBH       134.4250  179.2300  133.0100 C.3       1 Y011206     0.0000 
     24 CAD       135.7090  178.6810  132.4110 C.3       1 Y011206     0.0000 
     25 CAT       134.7690  180.4370  133.8710 C.3       1 Y011206     0.0000 
     26 CAR       135.5550  180.0160  135.0890 C.3       1 Y011206     0.0000 
     27 CBC       134.6480  179.1060  135.8760 C.3       1 Y011206     0.0000 
     28 OAW       135.3330  178.6400  137.0320 O.3       1 Y011206     0.0000 
     29 CAY       135.2920  179.5090  138.0720 C.2       1 Y011206     0.0000 
     30 OAG       135.2330  180.7300  137.9580 O.2       1 Y011206     0.0000 
     31 CAM       135.3480  178.8470  139.4450 C.3       1 Y011206     0.0000 
     32 CAL       135.2540  179.8990  140.5450 C.3       1 Y011206     0.0000 
     33 CAX       135.8100  179.3030  141.8390 C.2       1 Y011206     0.0000 
     34 OAH       135.2800  179.6620  142.9090 O.co2     1 Y011206     0.0000 
     35 OAF       136.7550  178.4960  141.7270 O.co2     1 Y011206     0.0000 
@<TRIPOS>BOND
     1    1    2 1    
     2    2    3 1    
     3    2    4 1    
     4    4    5 1    
     5    5    6 1    
     6    6    7 1    
     7    7    8 1    
     8    7    9 1    
     9    9   10 1    
    10    9   13 1    
    11   10   11 1    
    12   11   12 1    
    13   12   13 1    
    14   12   18 1    
    15   13   14 1    
    16   13   15 1    
    17   15   16 1    
    18   16   17 1    
    19   17   18 1    
    20   17   23 1    
    21   18   19 1    
    22   19   20 1    
    23   20   21 2    
    24   21   22 1    
    25   21   23 1    
    26   22   27 1    
    27   23   24 1    
    28   23   25 1    
    29   25   26 1    
    30   26   27 1    
    31   27   28 1    
    32   28   29 1    
    33   29   30 2    
    34   29   31 1    
    35   31   32 1    
    36   32   33 1    
    37   33   34 ar   
    38   33   35 ar   
@<TRIPOS>SUBSTRUCTURE
     1 Y011206     1 GROUP   
@<TRIPOS>SET

