#    Name: 6bwi_11_Y01_CAVITY_N1_4
#    Modification time : Fri May 22 19:34:29 2020

@<TRIPOS>MOLECULE
6bwi_11_Y01_CAVITY_N1_4
   15     0     3     0     0
SMALL
NO_CHARGES


@<TRIPOS>ATOM
      1 O         165.8500  180.4500  111.5600 O.2       1 ALA2        0.0000 
      2 N         166.5000  178.3900  117.7300 N.am      1 ALA2        0.0000 
      3 CA        167.9600  178.1400  113.4800 C.3       2 GLY6        0.0000 
      4 CA        170.7000  177.7500  112.3300 C.3       2 GLY6        0.0000 
      5 CA        167.2700  177.5900  115.9200 C.3       2 GLY6        0.0000 
      6 CA        171.3800  176.9900  114.1900 C.3       2 GLY6        0.0000 
      7 CA        172.7500  176.8000  113.6200 C.3       2 GLY6        0.0000 
      8 CA        172.6800  178.1500  112.9900 C.3       2 GLY6        0.0000 
      9 CA        170.6800  176.4400  116.6300 C.3       2 GLY6        0.0000 
     10 DU        167.2900  178.9000  111.6200 H         3 CUB7        0.0000 
     11 DU        168.6600  178.7000  111.0400 H         3 CUB7        0.0000 
     12 DU        169.3300  177.9500  112.9100 H         3 CUB7        0.0000 
     13 DU        168.6400  177.3900  115.3500 H         3 CUB7        0.0000 
     14 DU        170.0100  177.1900  114.7700 H         3 CUB7        0.0000 
     15 DU        167.9400  176.8300  117.7900 H         3 CUB7        0.0000 
@<TRIPOS>BOND
@<TRIPOS>SUBSTRUCTURE
     1 ALA2        1 GROUP   
     2 GLY6        3 GROUP   
     3 CUB7       10 GROUP   
@<TRIPOS>SET

