#    Name: 6bwi_8_Y01
#    Modification time : Fri May 22 19:34:08 2020

@<TRIPOS>MOLECULE
6bwi_8_Y01
   35    38     1     0     0
SMALL
NO_CHARGES


@<TRIPOS>ATOM
      1 CAA       169.4570  175.1140  121.8640 C.3       1 Y011204     0.0000 
      2 CBA       168.5730  173.8970  121.6120 C.3       1 Y011204     0.0000 
      3 CAB       169.1850  172.6720  122.2890 C.3       1 Y011204     0.0000 
      4 CAN       168.4860  173.6540  120.1120 C.3       1 Y011204     0.0000 
      5 CAJ       167.5960  174.7180  119.4850 C.3       1 Y011204     0.0000 
      6 CAO       168.4440  175.9380  119.1690 C.3       1 Y011204     0.0000 
      7 CBB       169.1200  175.7190  117.8170 C.3       1 Y011204     0.0000 
      8 CAC       170.2050  174.6720  118.0110 C.3       1 Y011204     0.0000 
      9 CBE       168.1570  175.2100  116.7280 C.3       1 Y011204     0.0000 
     10 CAP       166.7170  175.6970  116.9230 C.3       1 Y011204     0.0000 
     11 CAQ       166.1440  175.9020  115.5110 C.3       1 Y011204     0.0000 
     12 CBG       167.2710  175.4660  114.6040 C.3       1 Y011204     0.0000 
     13 CBI       168.4690  175.8620  115.4110 C.3       1 Y011204     0.0000 
     14 CAE       168.5780  177.3870  115.5680 C.3       1 Y011204     0.0000 
     15 CAU       169.6860  175.3270  114.7130 C.3       1 Y011204     0.0000 
     16 CAS       169.7940  176.0400  113.3650 C.3       1 Y011204     0.0000 
     17 CBF       168.5320  175.8300  112.5330 C.3       1 Y011204     0.0000 
     18 CBD       167.2880  176.2280  113.3070 C.3       1 Y011204     0.0000 
     19 CAK       166.0570  175.8900  112.4520 C.3       1 Y011204     0.0000 
     20 CAI       166.1330  176.3260  111.1100 C.2       1 Y011204     0.0000 
     21 CAZ       167.3470  176.6820  110.5050 C.2       1 Y011204     0.0000 
     22 CAV       167.3240  177.1090  109.1730 C.3       1 Y011204     0.0000 
     23 CBH       168.5780  176.6630  111.2220 C.3       1 Y011204     0.0000 
     24 CAD       168.9130  178.1010  111.5960 C.3       1 Y011204     0.0000 
     25 CAT       169.7200  176.0940  110.3740 C.3       1 Y011204     0.0000 
     26 CAR       169.7470  176.6860  108.9730 C.3       1 Y011204     0.0000 
     27 CBC       168.4030  176.4010  108.3590 C.3       1 Y011204     0.0000 
     28 OAW       168.3960  176.8310  106.9810 O.3       1 Y011204     0.0000 
     29 CAY       168.4780  178.1770  106.7900 C.2       1 Y011204     0.0000 
     30 OAG       168.7030  178.9980  107.6760 O.2       1 Y011204     0.0000 
     31 CAM       168.2590  178.6250  105.3450 C.3       1 Y011204     0.0000 
     32 CAL       168.7080  177.5160  104.3840 C.3       1 Y011204     0.0000 
     33 CAX       167.5630  177.0890  103.4540 C.2       1 Y011204     0.0000 
     34 OAH       166.5450  177.8130  103.4200 O.co2     1 Y011204     0.0000 
     35 OAF       167.7350  176.0430  102.7920 O.co2     1 Y011204     0.0000 
@<TRIPOS>BOND
     1    1    2 1    
     2    2    3 1    
     3    2    4 1    
     4    4    5 1    
     5    5    6 1    
     6    6    7 1    
     7    7    8 1    
     8    7    9 1    
     9    9   10 1    
    10    9   13 1    
    11   10   11 1    
    12   11   12 1    
    13   12   13 1    
    14   12   18 1    
    15   13   14 1    
    16   13   15 1    
    17   15   16 1    
    18   16   17 1    
    19   17   18 1    
    20   17   23 1    
    21   18   19 1    
    22   19   20 1    
    23   20   21 2    
    24   21   22 1    
    25   21   23 1    
    26   22   27 1    
    27   23   24 1    
    28   23   25 1    
    29   25   26 1    
    30   26   27 1    
    31   27   28 1    
    32   28   29 1    
    33   29   30 2    
    34   29   31 1    
    35   31   32 1    
    36   32   33 1    
    37   33   34 ar   
    38   33   35 ar   
@<TRIPOS>SUBSTRUCTURE
     1 Y011204     1 GROUP   
@<TRIPOS>SET

