#    Name: 6bwi_15_Y01_CAVITY_N1_ALL
#    Modification time : Fri May 22 19:34:44 2020

@<TRIPOS>MOLECULE
6bwi_15_Y01_CAVITY_N1_ALL
   71     0     6     0     0
SMALL
NO_CHARGES


@<TRIPOS>ATOM
      1 OG        126.6400  151.0000  141.6100 O.3       1 SER1        0.0000 
      2 OG        133.4200  151.3700  138.0900 O.3       1 SER1        0.0000 
      3 OG        132.7300  150.8100  140.5300 O.3       1 SER1        0.0000 
      4 OG        131.2900  152.3700  140.4800 O.3       1 SER1        0.0000 
      5 OG        132.6600  152.1700  139.9000 O.3       1 SER1        0.0000 
      6 OG        134.5600  153.9400  139.9300 O.3       1 SER1        0.0000 
      7 OG        133.8000  154.7400  141.7400 O.3       1 SER1        0.0000 
      8 N         135.3300  153.1400  138.1200 N.am      2 ALA2        0.0000 
      9 N         134.6300  152.5800  140.5600 N.am      2 ALA2        0.0000 
     10 OD1       125.8700  151.8000  143.4200 O.co2     3 ASP3        0.0000 
     11 OD1       127.2500  151.6000  142.8400 O.co2     3 ASP3        0.0000 
     12 OD1       127.9200  150.8500  144.7100 O.co2     3 ASP3        0.0000 
     13 OD1       129.2900  150.6500  144.1300 O.co2     3 ASP3        0.0000 
     14 OD1       126.4800  152.4000  144.6500 O.co2     3 ASP3        0.0000 
     15 OD1       127.8500  152.2100  144.0700 O.co2     3 ASP3        0.0000 
     16 OD1       127.1600  151.6500  146.5100 O.co2     3 ASP3        0.0000 
     17 OD1       128.5300  151.4500  145.9400 O.co2     3 ASP3        0.0000 
     18 CZ        127.9400  152.1600  140.4000 C.ar      4 PHE5        0.0000 
     19 CZ        134.7200  152.5300  136.8900 C.ar      4 PHE5        0.0000 
     20 CZ        128.6900  150.0500  142.9000 C.ar      4 PHE5        0.0000 
     21 CZ        128.6200  151.4100  142.2600 C.ar      4 PHE5        0.0000 
     22 CZ        128.5500  152.7600  141.6300 C.ar      4 PHE5        0.0000 
     23 CZ        129.9200  152.5700  141.0600 C.ar      4 PHE5        0.0000 
     24 CZ        132.5900  153.5300  139.2700 C.ar      4 PHE5        0.0000 
     25 CZ        133.9600  153.3300  138.7000 C.ar      4 PHE5        0.0000 
     26 CZ        131.1500  155.0900  139.2200 C.ar      4 PHE5        0.0000 
     27 CZ        132.5200  154.8900  138.6400 C.ar      4 PHE5        0.0000 
     28 CZ        133.8900  154.6900  138.0600 C.ar      4 PHE5        0.0000 
     29 CZ        130.6600  150.4500  143.5500 C.ar      4 PHE5        0.0000 
     30 CZ        129.2200  152.0100  143.5000 C.ar      4 PHE5        0.0000 
     31 CZ        130.5900  151.8100  142.9200 C.ar      4 PHE5        0.0000 
     32 CZ        131.9600  151.6100  142.3400 C.ar      4 PHE5        0.0000 
     33 CZ        130.5200  153.1700  142.2900 C.ar      4 PHE5        0.0000 
     34 CA        126.5700  152.3600  140.9800 C.3       5 GLY6        0.0000 
     35 CA        134.7900  151.1700  137.5200 C.3       5 GLY6        0.0000 
     36 CA        134.1000  150.6200  139.9600 C.3       5 GLY6        0.0000 
     37 CA        125.8000  153.1600  142.7900 C.3       5 GLY6        0.0000 
     38 CA        127.1800  152.9600  142.2100 C.3       5 GLY6        0.0000 
     39 CA        135.4000  151.7800  138.7500 C.3       5 GLY6        0.0000 
     40 CA        127.1100  154.3200  141.5800 C.3       5 GLY6        0.0000 
     41 CA        135.2600  154.4900  137.4900 C.3       5 GLY6        0.0000 
     42 CA        132.0300  150.2600  142.9800 C.3       5 GLY6        0.0000 
     43 CA        133.4000  150.0600  142.4000 C.3       5 GLY6        0.0000 
     44 CA        133.3300  151.4200  141.7700 C.3       5 GLY6        0.0000 
     45 CA        134.7000  151.2200  141.1900 C.3       5 GLY6        0.0000 
     46 CA        125.0400  153.9600  144.6000 C.3       5 GLY6        0.0000 
     47 CA        126.4100  153.7600  144.0200 C.3       5 GLY6        0.0000 
     48 CA        127.7800  153.5700  143.4400 C.3       5 GLY6        0.0000 
     49 CA        135.9300  153.7400  139.3500 C.3       5 GLY6        0.0000 
     50 CA        133.1200  155.4900  139.8700 C.3       5 GLY6        0.0000 
     51 CA        134.4900  155.3000  139.3000 C.3       5 GLY6        0.0000 
     52 CA        129.9000  151.2500  145.3600 C.3       5 GLY6        0.0000 
     53 CA        134.0100  150.6600  143.6300 C.3       5 GLY6        0.0000 
     54 CA        133.9400  152.0200  143.0000 C.3       5 GLY6        0.0000 
     55 CA        135.2400  153.1800  141.7900 C.3       5 GLY6        0.0000 
     56 CA        133.2400  151.4600  145.4400 C.3       5 GLY6        0.0000 
     57 CA        134.5400  152.6300  144.2300 C.3       5 GLY6        0.0000 
     58 CA        134.4700  153.9800  143.6000 C.3       5 GLY6        0.0000 
     59 DU        134.0300  151.9700  139.3300 H         6 CUB7        0.0000 
     60 DU        129.1500  153.3700  142.8700 H         6 CUB7        0.0000 
     61 DU        131.8900  152.9700  141.7100 H         6 CUB7        0.0000 
     62 DU        133.2600  152.7800  141.1400 H         6 CUB7        0.0000 
     63 DU        131.8200  154.3300  141.0800 H         6 CUB7        0.0000 
     64 DU        133.1900  154.1300  140.5000 H         6 CUB7        0.0000 
     65 DU        131.2700  151.0600  144.7800 H         6 CUB7        0.0000 
     66 DU        132.6400  150.8600  144.2100 H         6 CUB7        0.0000 
     67 DU        128.4600  152.8100  145.3100 H         6 CUB7        0.0000 
     68 DU        131.2000  152.4200  144.1500 H         6 CUB7        0.0000 
     69 DU        132.5700  152.2200  143.5800 H         6 CUB7        0.0000 
     70 DU        133.8700  153.3800  142.3700 H         6 CUB7        0.0000 
     71 DU        133.1700  152.8200  144.8100 H         6 CUB7        0.0000 
@<TRIPOS>BOND
@<TRIPOS>SUBSTRUCTURE
     1 SER1        1 GROUP   
     2 ALA2        8 GROUP   
     3 ASP3       10 GROUP   
     4 PHE5       18 GROUP   
     5 GLY6       34 GROUP   
     6 CUB7       59 GROUP   
@<TRIPOS>SET

