#    Name: 6bwi_16_Y01
#    Modification time : Fri May 22 19:34:50 2020

@<TRIPOS>MOLECULE
6bwi_16_Y01
   35    38     1     0     0
SMALL
NO_CHARGES


@<TRIPOS>ATOM
      1 CAA       133.9300  168.9650  122.1410 C.3       1 Y011201     0.0000 
      2 CBA       135.1080  169.2590  121.2140 C.3       1 Y011201     0.0000 
      3 CAB       135.0530  170.7140  120.7550 C.3       1 Y011201     0.0000 
      4 CAN       135.0200  168.3490  119.9960 C.3       1 Y011201     0.0000 
      5 CAJ       133.6710  168.5560  119.3270 C.3       1 Y011201     0.0000 
      6 CAO       133.7600  169.7630  118.3930 C.3       1 Y011201     0.0000 
      7 CBB       133.9680  169.3280  116.9400 C.3       1 Y011201     0.0000 
      8 CAC       133.0050  168.1950  116.5800 C.3       1 Y011201     0.0000 
      9 CBE       133.6900  170.5330  116.0410 C.3       1 Y011201     0.0000 
     10 CAP       134.8920  171.4890  116.0520 C.3       1 Y011201     0.0000 
     11 CAQ       135.0360  172.0020  114.6050 C.3       1 Y011201     0.0000 
     12 CBG       133.7730  171.4850  113.9410 C.3       1 Y011201     0.0000 
     13 CBI       133.6170  170.1440  114.5900 C.3       1 Y011201     0.0000 
     14 CAE       134.7490  169.1940  114.1980 C.3       1 Y011201     0.0000 
     15 CAU       132.2950  169.5590  114.1750 C.3       1 Y011201     0.0000 
     16 CAS       132.3430  169.3450  112.6680 C.3       1 Y011201     0.0000 
     17 CBF       132.6040  170.6780  111.9650 C.3       1 Y011201     0.0000 
     18 CBD       133.9120  171.2920  112.4560 C.3       1 Y011201     0.0000 
     19 CAK       134.1100  172.6500  111.7770 C.3       1 Y011201     0.0000 
     20 CAI       133.8940  172.6490  110.3870 C.2       1 Y011201     0.0000 
     21 CAZ       133.1660  171.6450  109.7360 C.2       1 Y011201     0.0000 
     22 CAV       133.0180  171.7360  108.3540 C.3       1 Y011201     0.0000 
     23 CBH       132.6110  170.5280  110.4110 C.3       1 Y011201     0.0000 
     24 CAD       133.4350  169.2990  110.0330 C.3       1 Y011201     0.0000 
     25 CAT       131.1570  170.2970  109.9850 C.3       1 Y011201     0.0000 
     26 CAR       130.9840  170.3250  108.4710 C.3       1 Y011201     0.0000 
     27 CBC       131.5500  171.6370  107.9560 C.3       1 Y011201     0.0000 
     28 OAW       131.4080  171.6870  106.5140 O.3       1 Y011201     0.0000 
     29 CAY       131.9670  172.7820  105.9170 C.2       1 Y011201     0.0000 
     30 OAG       132.4100  173.7580  106.5210 O.2       1 Y011201     0.0000 
     31 CAM       132.0170  172.7290  104.3880 C.3       1 Y011201     0.0000 
     32 CAL       131.9880  171.2770  103.9060 C.3       1 Y011201     0.0000 
     33 CAX       130.5370  170.8120  103.7710 C.2       1 Y011201     0.0000 
     34 OAH       130.2630  170.0750  102.8000 O.co2     1 Y011201     0.0000 
     35 OAF       129.7340  171.2050  104.6440 O.co2     1 Y011201     0.0000 
@<TRIPOS>BOND
     1    1    2 1    
     2    2    3 1    
     3    2    4 1    
     4    4    5 1    
     5    5    6 1    
     6    6    7 1    
     7    7    8 1    
     8    7    9 1    
     9    9   10 1    
    10    9   13 1    
    11   10   11 1    
    12   11   12 1    
    13   12   13 1    
    14   12   18 1    
    15   13   14 1    
    16   13   15 1    
    17   15   16 1    
    18   16   17 1    
    19   17   18 1    
    20   17   23 1    
    21   18   19 1    
    22   19   20 1    
    23   20   21 2    
    24   21   22 1    
    25   21   23 1    
    26   22   27 1    
    27   23   24 1    
    28   23   25 1    
    29   25   26 1    
    30   26   27 1    
    31   27   28 1    
    32   28   29 1    
    33   29   30 2    
    34   29   31 1    
    35   31   32 1    
    36   32   33 1    
    37   33   34 ar   
    38   33   35 ar   
@<TRIPOS>SUBSTRUCTURE
     1 Y011201     1 GROUP   
@<TRIPOS>SET

