#    Name: 6bwi_18_Y01
#    Modification time : Fri May 22 19:35:02 2020

@<TRIPOS>MOLECULE
6bwi_18_Y01
   35    38     1     0     0
SMALL
NO_CHARGES


@<TRIPOS>ATOM
      1 CAA       146.4560  134.0910  122.4960 C.3       1 Y011203     0.0000 
      2 CBA       146.2460  134.3020  120.9970 C.3       1 Y011203     0.0000 
      3 CAB       144.8140  134.7720  120.7480 C.3       1 Y011203     0.0000 
      4 CAN       146.4920  132.9870  120.2600 C.3       1 Y011203     0.0000 
      5 CAJ       147.2650  133.2740  118.9710 C.3       1 Y011203     0.0000 
      6 CAO       146.3360  133.1750  117.7600 C.3       1 Y011203     0.0000 
      7 CBB       145.1090  134.0480  118.0040 C.3       1 Y011203     0.0000 
      8 CAC       145.5410  135.5150  118.0690 C.3       1 Y011203     0.0000 
      9 CBE       144.0560  133.7920  116.9140 C.3       1 Y011203     0.0000 
     10 CAP       143.0370  134.9500  116.8270 C.3       1 Y011203     0.0000 
     11 CAQ       142.7900  135.1700  115.3280 C.3       1 Y011203     0.0000 
     12 CBG       143.4020  133.9240  114.7200 C.3       1 Y011203     0.0000 
     13 CBI       144.6560  133.7640  115.5270 C.3       1 Y011203     0.0000 
     14 CAE       145.6300  134.9130  115.2820 C.3       1 Y011203     0.0000 
     15 CAU       145.3070  132.4570  115.1530 C.3       1 Y011203     0.0000 
     16 CAS       145.6540  132.5150  113.6650 C.3       1 Y011203     0.0000 
     17 CBF       144.3940  132.7840  112.8420 C.3       1 Y011203     0.0000 
     18 CBD       143.7640  134.0960  113.2810 C.3       1 Y011203     0.0000 
     19 CAK       142.4820  134.3490  112.4820 C.3       1 Y011203     0.0000 
     20 CAI       142.5710  134.0870  111.1060 C.2       1 Y011203     0.0000 
     21 CAZ       143.6120  133.3390  110.5450 C.2       1 Y011203     0.0000 
     22 CAV       143.5970  133.1490  109.1660 C.3       1 Y011203     0.0000 
     23 CBH       144.6850  132.8090  111.3130 C.3       1 Y011203     0.0000 
     24 CAD       145.9100  133.6840  111.0730 C.3       1 Y011203     0.0000 
     25 CAT       145.0190  131.3650  110.8980 C.3       1 Y011203     0.0000 
     26 CAR       145.0490  131.1750  109.3820 C.3       1 Y011203     0.0000 
     27 CBC       143.7290  131.6790  108.8330 C.3       1 Y011203     0.0000 
     28 OAW       143.6810  131.4990  107.4050 O.3       1 Y011203     0.0000 
     29 CAY       142.4040  131.5970  106.9370 C.2       1 Y011203     0.0000 
     30 OAG       141.4120  131.1810  107.5340 O.2       1 Y011203     0.0000 
     31 CAM       142.2600  132.2770  105.5720 C.3       1 Y011203     0.0000 
     32 CAL       143.5290  132.0640  104.7440 C.3       1 Y011203     0.0000 
     33 CAX       143.6500  130.5930  104.3400 C.2       1 Y011203     0.0000 
     34 OAH       143.1040  129.7530  105.0860 O.co2     1 Y011203     0.0000 
     35 OAF       144.2890  130.3420  103.2950 O.co2     1 Y011203     0.0000 
@<TRIPOS>BOND
     1    1    2 1    
     2    2    3 1    
     3    2    4 1    
     4    4    5 1    
     5    5    6 1    
     6    6    7 1    
     7    7    8 1    
     8    7    9 1    
     9    9   10 1    
    10    9   13 1    
    11   10   11 1    
    12   11   12 1    
    13   12   13 1    
    14   12   18 1    
    15   13   14 1    
    16   13   15 1    
    17   15   16 1    
    18   16   17 1    
    19   17   18 1    
    20   17   23 1    
    21   18   19 1    
    22   19   20 1    
    23   20   21 2    
    24   21   22 1    
    25   21   23 1    
    26   22   27 1    
    27   23   24 1    
    28   23   25 1    
    29   25   26 1    
    30   26   27 1    
    31   27   28 1    
    32   28   29 1    
    33   29   30 2    
    34   29   31 1    
    35   31   32 1    
    36   32   33 1    
    37   33   34 ar   
    38   33   35 ar   
@<TRIPOS>SUBSTRUCTURE
     1 Y011203     1 GROUP   
@<TRIPOS>SET

