#    Name: 6bwi_15_Y01_CAVITY_N1_6
#    Modification time : Fri May 22 19:34:44 2020

@<TRIPOS>MOLECULE
6bwi_15_Y01_CAVITY_N1_6
   37     0     5     0     0
SMALL
NO_CHARGES


@<TRIPOS>ATOM
      1 OG        133.4200  151.3700  138.0900 O.3       1 SER1        0.0000 
      2 OG        131.2900  152.3700  140.4800 O.3       1 SER1        0.0000 
      3 OG        132.6600  152.1700  139.9000 O.3       1 SER1        0.0000 
      4 OG        134.5600  153.9400  139.9300 O.3       1 SER1        0.0000 
      5 OG        133.8000  154.7400  141.7400 O.3       1 SER1        0.0000 
      6 N         135.3300  153.1400  138.1200 N.am      2 ALA2        0.0000 
      7 N         134.6300  152.5800  140.5600 N.am      2 ALA2        0.0000 
      8 CZ        134.7200  152.5300  136.8900 C.ar      3 PHE5        0.0000 
      9 CZ        128.5500  152.7600  141.6300 C.ar      3 PHE5        0.0000 
     10 CZ        129.9200  152.5700  141.0600 C.ar      3 PHE5        0.0000 
     11 CZ        132.5900  153.5300  139.2700 C.ar      3 PHE5        0.0000 
     12 CZ        133.9600  153.3300  138.7000 C.ar      3 PHE5        0.0000 
     13 CZ        131.1500  155.0900  139.2200 C.ar      3 PHE5        0.0000 
     14 CZ        132.5200  154.8900  138.6400 C.ar      3 PHE5        0.0000 
     15 CZ        133.8900  154.6900  138.0600 C.ar      3 PHE5        0.0000 
     16 CZ        130.5900  151.8100  142.9200 C.ar      3 PHE5        0.0000 
     17 CZ        131.9600  151.6100  142.3400 C.ar      3 PHE5        0.0000 
     18 CZ        130.5200  153.1700  142.2900 C.ar      3 PHE5        0.0000 
     19 CA        127.1100  154.3200  141.5800 C.3       4 GLY6        0.0000 
     20 CA        135.2600  154.4900  137.4900 C.3       4 GLY6        0.0000 
     21 CA        135.9300  153.7400  139.3500 C.3       4 GLY6        0.0000 
     22 CA        133.1200  155.4900  139.8700 C.3       4 GLY6        0.0000 
     23 CA        134.4900  155.3000  139.3000 C.3       4 GLY6        0.0000 
     24 CA        133.9400  152.0200  143.0000 C.3       4 GLY6        0.0000 
     25 CA        135.2400  153.1800  141.7900 C.3       4 GLY6        0.0000 
     26 CA        134.5400  152.6300  144.2300 C.3       4 GLY6        0.0000 
     27 CA        134.4700  153.9800  143.6000 C.3       4 GLY6        0.0000 
     28 DU        134.0300  151.9700  139.3300 H         5 CUB7        0.0000 
     29 DU        129.1500  153.3700  142.8700 H         5 CUB7        0.0000 
     30 DU        131.8900  152.9700  141.7100 H         5 CUB7        0.0000 
     31 DU        133.2600  152.7800  141.1400 H         5 CUB7        0.0000 
     32 DU        131.8200  154.3300  141.0800 H         5 CUB7        0.0000 
     33 DU        133.1900  154.1300  140.5000 H         5 CUB7        0.0000 
     34 DU        131.2000  152.4200  144.1500 H         5 CUB7        0.0000 
     35 DU        132.5700  152.2200  143.5800 H         5 CUB7        0.0000 
     36 DU        133.8700  153.3800  142.3700 H         5 CUB7        0.0000 
     37 DU        133.1700  152.8200  144.8100 H         5 CUB7        0.0000 
@<TRIPOS>BOND
@<TRIPOS>SUBSTRUCTURE
     1 SER1        1 GROUP   
     2 ALA2        6 GROUP   
     3 PHE5        8 GROUP   
     4 GLY6       19 GROUP   
     5 CUB7       28 GROUP   
@<TRIPOS>SET

