#    Name: 6bwi_18_Y01_CAVITY_N1_4
#    Modification time : Fri May 22 19:35:02 2020

@<TRIPOS>MOLECULE
6bwi_18_Y01_CAVITY_N1_4
   29     0     4     0     0
SMALL
NO_CHARGES


@<TRIPOS>ATOM
      1 O         149.2200  134.6800  111.1200 O.2       1 ALA2        0.0000 
      2 N         148.9700  136.1300  117.8400 N.am      1 ALA2        0.0000 
      3 N         148.9000  137.4900  117.2100 N.am      1 ALA2        0.0000 
      4 CZ        148.6200  134.0800  109.8900 C.ar      2 PHE5        0.0000 
      5 CA        145.7400  137.1900  109.7800 C.3       3 GLY6        0.0000 
      6 CA        145.0400  136.6300  112.2200 C.3       3 GLY6        0.0000 
      7 CA        148.4600  135.4800  112.9300 C.3       3 GLY6        0.0000 
      8 CA        142.9100  137.6300  114.6100 C.3       3 GLY6        0.0000 
      9 CA        147.6900  136.2900  114.7400 C.3       3 GLY6        0.0000 
     10 CA        143.5100  138.2400  115.8400 C.3       3 GLY6        0.0000 
     11 CA        148.3700  135.5300  116.6100 C.3       3 GLY6        0.0000 
     12 CA        148.3000  136.8900  115.9800 C.3       3 GLY6        0.0000 
     13 CA        144.1200  138.8400  117.0700 C.3       3 GLY6        0.0000 
     14 CA        148.2100  136.9400  119.6500 C.3       3 GLY6        0.0000 
     15 CA        148.1400  138.2900  119.0200 C.3       3 GLY6        0.0000 
     16 DU        148.5500  135.4400  109.2600 H         4 CUB7        0.0000 
     17 DU        147.1100  136.9900  109.2100 H         4 CUB7        0.0000 
     18 DU        146.4100  136.4400  111.6500 H         4 CUB7        0.0000 
     19 DU        147.7800  136.2400  111.0700 H         4 CUB7        0.0000 
     20 DU        144.2800  137.4400  114.0300 H         4 CUB7        0.0000 
     21 DU        145.6500  137.2400  113.4600 H         4 CUB7        0.0000 
     22 DU        147.0200  137.0400  112.8800 H         4 CUB7        0.0000 
     23 DU        146.3200  136.4800  115.3200 H         4 CUB7        0.0000 
     24 DU        144.8800  138.0400  115.2600 H         4 CUB7        0.0000 
     25 DU        147.6200  137.6400  114.1100 H         4 CUB7        0.0000 
     26 DU        146.9300  137.0900  116.5500 H         4 CUB7        0.0000 
     27 DU        145.4900  138.6400  116.5000 H         4 CUB7        0.0000 
     28 DU        146.8600  138.4500  115.9200 H         4 CUB7        0.0000 
     29 DU        147.5300  137.6900  117.7800 H         4 CUB7        0.0000 
@<TRIPOS>BOND
@<TRIPOS>SUBSTRUCTURE
     1 ALA2        1 GROUP   
     2 PHE5        4 GROUP   
     3 GLY6        5 GROUP   
     4 CUB7       16 GROUP   
@<TRIPOS>SET

