#    Name: 6bwi_5_Y01_CAVITY_N1_4
#    Modification time : Fri May 22 19:33:46 2020

@<TRIPOS>MOLECULE
6bwi_5_Y01_CAVITY_N1_4
   33     0     4     0     0
SMALL
NO_CHARGES


@<TRIPOS>ATOM
      1 OG        179.8400  161.1400  139.7200 O.3       1 SER1        0.0000 
      2 OG        180.5800  159.0300  142.2100 O.3       1 SER1        0.0000 
      3 OG        180.5100  160.3900  141.5800 O.3       1 SER1        0.0000 
      4 OG        180.4400  161.7500  140.9500 O.3       1 SER1        0.0000 
      5 CZ        178.2700  157.8800  129.3100 C.ar      2 PHE5        0.0000 
      6 CZ        178.8000  159.8400  129.9100 C.ar      2 PHE5        0.0000 
      7 CZ        179.3900  159.1300  135.4400 C.ar      2 PHE5        0.0000 
      8 CZ        180.7600  158.9400  134.8700 C.ar      2 PHE5        0.0000 
      9 CZ        179.3200  160.4900  134.8100 C.ar      2 PHE5        0.0000 
     10 CZ        180.0000  159.7400  136.6800 C.ar      2 PHE5        0.0000 
     11 CZ        179.9300  161.1000  136.0500 C.ar      2 PHE5        0.0000 
     12 CZ        182.0400  158.7800  137.9600 C.ar      2 PHE5        0.0000 
     13 CZ        180.6000  160.3400  137.9100 C.ar      2 PHE5        0.0000 
     14 CZ        180.5300  161.7000  137.2800 C.ar      2 PHE5        0.0000 
     15 CZ        182.6500  159.3900  139.2000 C.ar      2 PHE5        0.0000 
     16 CZ        181.2100  160.9400  139.1400 C.ar      2 PHE5        0.0000 
     17 CZ        181.1400  162.3000  138.5100 C.ar      2 PHE5        0.0000 
     18 CZ        183.1800  161.3500  139.8000 C.ar      2 PHE5        0.0000 
     19 CA        179.4800  159.0900  131.7700 C.3       3 GLY6        0.0000 
     20 CA        179.4100  160.4400  131.1400 C.3       3 GLY6        0.0000 
     21 CA        180.0900  159.6900  133.0000 C.3       3 GLY6        0.0000 
     22 CA        180.6200  161.6500  133.6000 C.3       3 GLY6        0.0000 
     23 CA        180.6700  158.9800  138.5400 C.3       3 GLY6        0.0000 
     24 CA        179.2300  160.5400  138.4900 C.3       3 GLY6        0.0000 
     25 CA        181.2800  159.5900  139.7700 C.3       3 GLY6        0.0000 
     26 CA        183.2500  159.9900  140.4300 C.3       3 GLY6        0.0000 
     27 DU        178.8700  158.4800  130.5400 H         4 CUB7        0.0000 
     28 DU        179.4600  157.7700  136.0800 H         4 CUB7        0.0000 
     29 DU        181.8800  160.1900  141.0100 H         4 CUB7        0.0000 
     30 DU        181.8100  161.5500  140.3700 H         4 CUB7        0.0000 
     31 DU        181.1200  160.9900  142.8100 H         4 CUB7        0.0000 
     32 DU        182.4900  160.7900  142.2400 H         4 CUB7        0.0000 
     33 DU        182.4200  162.1500  141.6100 H         4 CUB7        0.0000 
@<TRIPOS>BOND
@<TRIPOS>SUBSTRUCTURE
     1 SER1        1 GROUP   
     2 PHE5        5 GROUP   
     3 GLY6       19 GROUP   
     4 CUB7       27 GROUP   
@<TRIPOS>SET

