#    Name: 6bwi_4_Y01
#    Modification time : Fri May 22 19:33:36 2020

@<TRIPOS>MOLECULE
6bwi_4_Y01
   35    38     1     0     0
SMALL
NO_CHARGES


@<TRIPOS>ATOM
      1 CAA       182.2600  185.2460  124.1530 C.3       1 Y011207     0.0000 
      2 CBA       182.2380  183.7690  124.5460 C.3       1 Y011207     0.0000 
      3 CAB       180.9660  183.1190  124.0030 C.3       1 Y011207     0.0000 
      4 CAN       182.2610  183.6530  126.0690 C.3       1 Y011207     0.0000 
      5 CAJ       182.2190  182.1790  126.4790 C.3       1 Y011207     0.0000 
      6 CAO       181.4710  182.0590  127.8060 C.3       1 Y011207     0.0000 
      7 CBB       180.0770  182.6360  127.6010 C.3       1 Y011207     0.0000 
      8 CAC       179.2420  181.6470  126.7850 C.3       1 Y011207     0.0000 
      9 CBE       179.4100  182.9360  128.9480 C.3       1 Y011207     0.0000 
     10 CAP       177.9060  183.2170  128.7580 C.3       1 Y011207     0.0000 
     11 CAQ       177.2590  182.7040  130.0590 C.3       1 Y011207     0.0000 
     12 CBG       178.4830  182.4090  130.9150 C.3       1 Y011207     0.0000 
     13 CBI       179.4210  181.7780  129.9260 C.3       1 Y011207     0.0000 
     14 CAE       178.8690  180.4650  129.3550 C.3       1 Y011207     0.0000 
     15 CAU       180.7480  181.5160  130.6000 C.3       1 Y011207     0.0000 
     16 CAS       180.5020  180.5520  131.7640 C.3       1 Y011207     0.0000 
     17 CBF       179.5040  181.1650  132.7340 C.3       1 Y011207     0.0000 
     18 CBD       178.1950  181.4500  132.0180 C.3       1 Y011207     0.0000 
     19 CAK       177.2230  182.1230  132.9960 C.3       1 Y011207     0.0000 
     20 CAI       177.1690  181.5640  134.2850 C.2       1 Y011207     0.0000 
     21 CAZ       178.1450  180.6740  134.7480 C.2       1 Y011207     0.0000 
     22 CAV       177.9920  180.1890  136.0450 C.3       1 Y011207     0.0000 
     23 CBH       179.2050  180.2120  133.9110 C.3       1 Y011207     0.0000 
     24 CAD       178.7700  178.8870  133.3070 C.3       1 Y011207     0.0000 
     25 CAT       180.4970  179.9930  134.6900 C.3       1 Y011207     0.0000 
     26 CAR       180.2480  179.1840  135.9480 C.3       1 Y011207     0.0000 
     27 CBC       179.2990  180.0060  136.7860 C.3       1 Y011207     0.0000 
     28 OAW       179.0050  179.3380  138.0180 O.3       1 Y011207     0.0000 
     29 CAY       179.9920  179.4870  138.9350 C.2       1 Y011207     0.0000 
     30 OAG       181.1860  179.3460  138.6890 O.2       1 Y011207     0.0000 
     31 CAM       179.5190  179.8380  140.3440 C.3       1 Y011207     0.0000 
     32 CAL       179.3870  178.5580  141.1680 C.3       1 Y011207     0.0000 
     33 CAX       179.1280  178.9180  142.6310 C.2       1 Y011207     0.0000 
     34 OAH       177.9660  179.2560  142.9350 O.co2     1 Y011207     0.0000 
     35 OAF       180.0970  178.8470  143.4150 O.co2     1 Y011207     0.0000 
@<TRIPOS>BOND
     1    1    2 1    
     2    2    3 1    
     3    2    4 1    
     4    4    5 1    
     5    5    6 1    
     6    6    7 1    
     7    7    8 1    
     8    7    9 1    
     9    9   10 1    
    10    9   13 1    
    11   10   11 1    
    12   11   12 1    
    13   12   13 1    
    14   12   18 1    
    15   13   14 1    
    16   13   15 1    
    17   15   16 1    
    18   16   17 1    
    19   17   18 1    
    20   17   23 1    
    21   18   19 1    
    22   19   20 1    
    23   20   21 2    
    24   21   22 1    
    25   21   23 1    
    26   22   27 1    
    27   23   24 1    
    28   23   25 1    
    29   25   26 1    
    30   26   27 1    
    31   27   28 1    
    32   28   29 1    
    33   29   30 2    
    34   29   31 1    
    35   31   32 1    
    36   32   33 1    
    37   33   34 ar   
    38   33   35 ar   
@<TRIPOS>SUBSTRUCTURE
     1 Y011207     1 GROUP   
@<TRIPOS>SET

