#    Name: 6bwi_15_Y01
#    Modification time : Fri May 22 19:34:43 2020

@<TRIPOS>MOLECULE
6bwi_15_Y01
   35    38     1     0     0
SMALL
NO_CHARGES


@<TRIPOS>ATOM
      1 CAA       132.9940  160.0810  123.2950 C.3       1 Y011205     0.0000 
      2 CBA       133.1260  158.9990  124.3650 C.3       1 Y011205     0.0000 
      3 CAB       133.9600  157.8440  123.8200 C.3       1 Y011205     0.0000 
      4 CAN       131.7380  158.4900  124.7400 C.3       1 Y011205     0.0000 
      5 CAJ       131.2980  159.1360  126.0580 C.3       1 Y011205     0.0000 
      6 CAO       132.3940  158.9980  127.1240 C.3       1 Y011205     0.0000 
      7 CBB       132.8260  157.5380  127.1950 C.3       1 Y011205     0.0000 
      8 CAC       134.3500  157.4290  127.2800 C.3       1 Y011205     0.0000 
      9 CBE       132.1310  156.8110  128.3580 C.3       1 Y011205     0.0000 
     10 CAP       132.6430  155.3730  128.4120 C.3       1 Y011205     0.0000 
     11 CAQ       132.4950  154.9730  129.8840 C.3       1 Y011205     0.0000 
     12 CBG       131.7690  156.1700  130.4780 C.3       1 Y011205     0.0000 
     13 CBI       132.4260  157.3160  129.7720 C.3       1 Y011205     0.0000 
     14 CAE       133.9260  157.4240  130.0960 C.3       1 Y011205     0.0000 
     15 CAU       131.7160  158.5830  130.2010 C.3       1 Y011205     0.0000 
     16 CAS       131.9600  158.7760  131.7120 C.3       1 Y011205     0.0000 
     17 CBF       131.5000  157.5550  132.5270 C.3       1 Y011205     0.0000 
     18 CBD       132.0680  156.2770  131.9280 C.3       1 Y011205     0.0000 
     19 CAK       131.4480  155.1020  132.6970 C.3       1 Y011205     0.0000 
     20 CAI       131.6230  155.1900  134.0930 C.2       1 Y011205     0.0000 
     21 CAZ       131.8600  156.4090  134.7450 C.2       1 Y011205     0.0000 
     22 CAV       132.0370  156.3690  136.1230 C.3       1 Y011205     0.0000 
     23 CBH       132.0250  157.6190  134.0080 C.3       1 Y011205     0.0000 
     24 CAD       133.5220  157.8590  133.9160 C.3       1 Y011205     0.0000 
     25 CAT       131.4050  158.7870  134.7390 C.3       1 Y011205     0.0000 
     26 CAR       132.0200  158.8880  136.1250 C.3       1 Y011205     0.0000 
     27 CBC       131.6450  157.6230  136.8780 C.3       1 Y011205     0.0000 
     28 OAW       132.3690  157.5700  138.1110 O.3       1 Y011205     0.0000 
     29 CAY       131.6390  158.0240  139.1560 C.2       1 Y011205     0.0000 
     30 OAG       131.0430  159.0980  139.1680 O.2       1 Y011205     0.0000 
     31 CAM       131.6100  157.0900  140.3630 C.3       1 Y011205     0.0000 
     32 CAL       132.7990  157.3870  141.2730 C.3       1 Y011205     0.0000 
     33 CAX       132.5190  158.6540  142.0790 C.2       1 Y011205     0.0000 
     34 OAH       132.0360  159.6240  141.4590 O.co2     1 Y011205     0.0000 
     35 OAF       132.7930  158.6240  143.2970 O.co2     1 Y011205     0.0000 
@<TRIPOS>BOND
     1    1    2 1    
     2    2    3 1    
     3    2    4 1    
     4    4    5 1    
     5    5    6 1    
     6    6    7 1    
     7    7    8 1    
     8    7    9 1    
     9    9   10 1    
    10    9   13 1    
    11   10   11 1    
    12   11   12 1    
    13   12   13 1    
    14   12   18 1    
    15   13   14 1    
    16   13   15 1    
    17   15   16 1    
    18   16   17 1    
    19   17   18 1    
    20   17   23 1    
    21   18   19 1    
    22   19   20 1    
    23   20   21 2    
    24   21   22 1    
    25   21   23 1    
    26   22   27 1    
    27   23   24 1    
    28   23   25 1    
    29   25   26 1    
    30   26   27 1    
    31   27   28 1    
    32   28   29 1    
    33   29   30 2    
    34   29   31 1    
    35   31   32 1    
    36   32   33 1    
    37   33   34 ar   
    38   33   35 ar   
@<TRIPOS>SUBSTRUCTURE
     1 Y011205     1 GROUP   
@<TRIPOS>SET

