#    Name: 6bwi_6_Y01
#    Modification time : Fri May 22 19:33:53 2020

@<TRIPOS>MOLECULE
6bwi_6_Y01
   35    38     1     0     0
SMALL
NO_CHARGES


@<TRIPOS>ATOM
      1 CAA       175.6730  147.4750  126.0220 C.3       1 Y011209     0.0000 
      2 CBA       174.8610  148.7590  125.8390 C.3       1 Y011209     0.0000 
      3 CAB       175.4840  149.6010  124.7280 C.3       1 Y011209     0.0000 
      4 CAN       174.8500  149.5610  127.1420 C.3       1 Y011209     0.0000 
      5 CAJ       176.2710  149.7120  127.6890 C.3       1 Y011209     0.0000 
      6 CAO       177.0330  150.7290  126.8430 C.3       1 Y011209     0.0000 
      7 CBB       177.8050  151.7020  127.7410 C.3       1 Y011209     0.0000 
      8 CAC       178.3850  152.8290  126.8800 C.3       1 Y011209     0.0000 
      9 CBE       176.8770  152.2520  128.8400 C.3       1 Y011209     0.0000 
     10 CAP       176.8480  151.2670  130.0140 C.3       1 Y011209     0.0000 
     11 CAQ       176.7750  152.1490  131.2740 C.3       1 Y011209     0.0000 
     12 CBG       176.5520  153.5350  130.6960 C.3       1 Y011209     0.0000 
     13 CBI       177.4170  153.4930  129.4780 C.3       1 Y011209     0.0000 
     14 CAE       178.9080  153.3350  129.8080 C.3       1 Y011209     0.0000 
     15 CAU       177.1900  154.7610  128.6910 C.3       1 Y011209     0.0000 
     16 CAS       177.6620  155.9390  129.5330 C.3       1 Y011209     0.0000 
     17 CBF       176.9860  155.9610  130.9090 C.3       1 Y011209     0.0000 
     18 CBD       177.0880  154.6120  131.5960 C.3       1 Y011209     0.0000 
     19 CAK       176.2890  154.7070  132.9110 C.3       1 Y011209     0.0000 
     20 CAI       176.6420  155.8090  133.7200 C.2       1 Y011209     0.0000 
     21 CAZ       177.2830  156.9410  133.1950 C.2       1 Y011209     0.0000 
     22 CAV       177.6140  157.9770  134.0710 C.3       1 Y011209     0.0000 
     23 CBH       177.6890  156.9880  131.8350 C.3       1 Y011209     0.0000 
     24 CAD       179.1740  156.6550  131.8400 C.3       1 Y011209     0.0000 
     25 CAT       177.4990  158.3640  131.2460 C.3       1 Y011209     0.0000 
     26 CAR       178.2640  159.3620  132.0690 C.3       1 Y011209     0.0000 
     27 CBC       177.6600  159.3770  133.4520 C.3       1 Y011209     0.0000 
     28 OAW       178.4960  160.2330  134.2510 O.3       1 Y011209     0.0000 
     29 CAY       178.1560  160.3480  135.5610 C.2       1 Y011209     0.0000 
     30 OAG       178.0300  159.3990  136.3290 O.2       1 Y011209     0.0000 
     31 CAM       177.9520  161.7840  136.0410 C.3       1 Y011209     0.0000 
     32 CAL       179.2530  162.3300  136.6250 C.3       1 Y011209     0.0000 
     33 CAX       179.3860  161.8480  138.0640 C.2       1 Y011209     0.0000 
     34 OAH       179.9220  162.6230  138.8810 O.co2     1 Y011209     0.0000 
     35 OAF       178.9430  160.7110  138.3170 O.co2     1 Y011209     0.0000 
@<TRIPOS>BOND
     1    1    2 1    
     2    2    3 1    
     3    2    4 1    
     4    4    5 1    
     5    5    6 1    
     6    6    7 1    
     7    7    8 1    
     8    7    9 1    
     9    9   10 1    
    10    9   13 1    
    11   10   11 1    
    12   11   12 1    
    13   12   13 1    
    14   12   18 1    
    15   13   14 1    
    16   13   15 1    
    17   15   16 1    
    18   16   17 1    
    19   17   18 1    
    20   17   23 1    
    21   18   19 1    
    22   19   20 1    
    23   20   21 2    
    24   21   22 1    
    25   21   23 1    
    26   22   27 1    
    27   23   24 1    
    28   23   25 1    
    29   25   26 1    
    30   26   27 1    
    31   27   28 1    
    32   28   29 1    
    33   29   30 2    
    34   29   31 1    
    35   31   32 1    
    36   32   33 1    
    37   33   34 ar   
    38   33   35 ar   
@<TRIPOS>SUBSTRUCTURE
     1 Y011209     1 GROUP   
@<TRIPOS>SET

