#    Name: 6bwi_12_Y01
#    Modification time : Fri May 22 19:34:35 2020

@<TRIPOS>MOLECULE
6bwi_12_Y01
   35    38     1     0     0
SMALL
NO_CHARGES


@<TRIPOS>ATOM
      1 CAA       139.8960  169.6990  122.2060 C.3       1 Y011202     0.0000 
      2 CBA       140.9030  168.5730  121.9670 C.3       1 Y011202     0.0000 
      3 CAB       142.3080  169.1600  121.8680 C.3       1 Y011202     0.0000 
      4 CAN       140.5590  167.8440  120.6710 C.3       1 Y011202     0.0000 
      5 CAJ       140.4290  168.8500  119.5340 C.3       1 Y011202     0.0000 
      6 CAO       139.1370  168.5700  118.7900 C.3       1 Y011202     0.0000 
      7 CBB       139.4710  167.8530  117.4970 C.3       1 Y011202     0.0000 
      8 CAC       138.7460  166.5190  117.4650 C.3       1 Y011202     0.0000 
      9 CBE       138.9750  168.7130  116.3530 C.3       1 Y011202     0.0000 
     10 CAP       139.9620  169.8580  116.1470 C.3       1 Y011202     0.0000 
     11 CAQ       140.0810  170.0370  114.6260 C.3       1 Y011202     0.0000 
     12 CBG       138.9630  169.1580  114.1100 C.3       1 Y011202     0.0000 
     13 CBI       139.0430  167.9870  115.0350 C.3       1 Y011202     0.0000 
     14 CAE       140.3500  167.2090  114.8590 C.3       1 Y011202     0.0000 
     15 CAU       137.8740  167.0790  114.7610 C.3       1 Y011202     0.0000 
     16 CAS       137.9650  166.6070  113.3080 C.3       1 Y011202     0.0000 
     17 CBF       137.9990  167.8170  112.3700 C.3       1 Y011202     0.0000 
     18 CBD       139.1890  168.6870  112.7110 C.3       1 Y011202     0.0000 
     19 CAK       139.2090  169.9010  111.7890 C.3       1 Y011202     0.0000 
     20 CAI       139.0090  169.6230  110.4280 C.2       1 Y011202     0.0000 
     21 CAZ       138.4230  168.4360  109.9850 C.2       1 Y011202     0.0000 
     22 CAV       138.2690  168.2510  108.6110 C.3       1 Y011202     0.0000 
     23 CBH       138.0110  167.4050  110.8620 C.3       1 Y011202     0.0000 
     24 CAD       138.9610  166.2280  110.6640 C.3       1 Y011202     0.0000 
     25 CAT       136.5860  166.9690  110.5290 C.3       1 Y011202     0.0000 
     26 CAR       136.4120  166.6580  109.0490 C.3       1 Y011202     0.0000 
     27 CBC       136.8310  167.8840  108.2650 C.3       1 Y011202     0.0000 
     28 OAW       136.7410  167.5850  106.8740 O.3       1 Y011202     0.0000 
     29 CAY       136.4840  168.7140  106.1720 C.2       1 Y011202     0.0000 
     30 OAG       137.0730  169.7770  106.3500 O.2       1 Y011202     0.0000 
     31 CAM       135.3890  168.5730  105.1130 C.3       1 Y011202     0.0000 
     32 CAL       135.6970  167.3700  104.2150 C.3       1 Y011202     0.0000 
     33 CAX       134.4960  167.0610  103.3130 C.2       1 Y011202     0.0000 
     34 OAH       133.4850  166.5680  103.8590 O.co2     1 Y011202     0.0000 
     35 OAF       134.6150  167.3200  102.0960 O.co2     1 Y011202     0.0000 
@<TRIPOS>BOND
     1    1    2 1    
     2    2    3 1    
     3    2    4 1    
     4    4    5 1    
     5    5    6 1    
     6    6    7 1    
     7    7    8 1    
     8    7    9 1    
     9    9   10 1    
    10    9   13 1    
    11   10   11 1    
    12   11   12 1    
    13   12   13 1    
    14   12   18 1    
    15   13   14 1    
    16   13   15 1    
    17   15   16 1    
    18   16   17 1    
    19   17   18 1    
    20   17   23 1    
    21   18   19 1    
    22   19   20 1    
    23   20   21 2    
    24   21   22 1    
    25   21   23 1    
    26   22   27 1    
    27   23   24 1    
    28   23   25 1    
    29   25   26 1    
    30   26   27 1    
    31   27   28 1    
    32   28   29 1    
    33   29   30 2    
    34   29   31 1    
    35   31   32 1    
    36   32   33 1    
    37   33   34 ar   
    38   33   35 ar   
@<TRIPOS>SUBSTRUCTURE
     1 Y011202     1 GROUP   
@<TRIPOS>SET

