#    Name: 6bwi_22_Y01
#    Modification time : Fri May 22 19:35:21 2020

@<TRIPOS>MOLECULE
6bwi_22_Y01
   35    38     1     0     0
SMALL
NO_CHARGES


@<TRIPOS>ATOM
      1 CAA       154.5900  131.4740  123.7790 C.3       1 Y011207     0.0000 
      2 CBA       154.3050  132.7920  123.0570 C.3       1 Y011207     0.0000 
      3 CAB       154.8500  132.7210  121.6320 C.3       1 Y011207     0.0000 
      4 CAN       154.9760  133.9470  123.7990 C.3       1 Y011207     0.0000 
      5 CAJ       156.4940  133.8050  123.7120 C.3       1 Y011207     0.0000 
      6 CAO       156.9800  132.7390  124.6920 C.3       1 Y011207     0.0000 
      7 CBB       156.5440  133.1050  126.1050 C.3       1 Y011207     0.0000 
      8 CAC       155.1090  132.6420  126.3330 C.3       1 Y011207     0.0000 
      9 CBE       157.4500  132.3900  127.0940 C.3       1 Y011207     0.0000 
     10 CAP       158.8940  132.8860  126.9740 C.3       1 Y011207     0.0000 
     11 CAQ       159.4650  132.7470  128.4030 C.3       1 Y011207     0.0000 
     12 CBG       158.3090  132.0720  129.1330 C.3       1 Y011207     0.0000 
     13 CBI       157.1210  132.7430  128.5100 C.3       1 Y011207     0.0000 
     14 CAE       157.0880  134.2660  128.7440 C.3       1 Y011207     0.0000 
     15 CAU       155.8560  132.1030  129.0510 C.3       1 Y011207     0.0000 
     16 CAS       155.8090  132.3400  130.5590 C.3       1 Y011207     0.0000 
     17 CBF       157.0560  131.7660  131.2250 C.3       1 Y011207     0.0000 
     18 CBD       158.3130  132.3510  130.6010 C.3       1 Y011207     0.0000 
     19 CAK       159.5260  131.6740  131.2530 C.3       1 Y011207     0.0000 
     20 CAI       159.4940  131.6130  132.6600 C.2       1 Y011207     0.0000 
     21 CAZ       158.3080  131.7930  133.3820 C.2       1 Y011207     0.0000 
     22 CAV       158.3770  131.7140  134.7740 C.3       1 Y011207     0.0000 
     23 CBH       157.0860  132.1300  132.7330 C.3       1 Y011207     0.0000 
     24 CAD       156.9510  133.6410  132.8280 C.3       1 Y011207     0.0000 
     25 CAT       155.8780  131.4930  133.4060 C.3       1 Y011207     0.0000 
     26 CAR       155.9000  131.7410  134.8950 C.3       1 Y011207     0.0000 
     27 CBC       157.1520  131.0640  135.3880 C.3       1 Y011207     0.0000 
     28 OAW       157.2280  131.1460  136.8230 O.3       1 Y011207     0.0000 
     29 CAY       157.2980  132.4070  137.3220 C.2       1 Y011207     0.0000 
     30 OAG       157.0170  133.4230  136.6940 O.2       1 Y011207     0.0000 
     31 CAM       157.7440  132.4880  138.7800 C.3       1 Y011207     0.0000 
     32 CAL       156.6470  131.8920  139.6620 C.3       1 Y011207     0.0000 
     33 CAX       156.7940  132.3990  141.0940 C.2       1 Y011207     0.0000 
     34 OAH       155.7550  132.4450  141.7860 O.co2     1 Y011207     0.0000 
     35 OAF       157.9400  132.7290  141.4660 O.co2     1 Y011207     0.0000 
@<TRIPOS>BOND
     1    1    2 1    
     2    2    3 1    
     3    2    4 1    
     4    4    5 1    
     5    5    6 1    
     6    6    7 1    
     7    7    8 1    
     8    7    9 1    
     9    9   10 1    
    10    9   13 1    
    11   10   11 1    
    12   11   12 1    
    13   12   13 1    
    14   12   18 1    
    15   13   14 1    
    16   13   15 1    
    17   15   16 1    
    18   16   17 1    
    19   17   18 1    
    20   17   23 1    
    21   18   19 1    
    22   19   20 1    
    23   20   21 2    
    24   21   22 1    
    25   21   23 1    
    26   22   27 1    
    27   23   24 1    
    28   23   25 1    
    29   25   26 1    
    30   26   27 1    
    31   27   28 1    
    32   28   29 1    
    33   29   30 2    
    34   29   31 1    
    35   31   32 1    
    36   32   33 1    
    37   33   34 ar   
    38   33   35 ar   
@<TRIPOS>SUBSTRUCTURE
     1 Y011207     1 GROUP   
@<TRIPOS>SET

