#    Name: 6bwi_22_Y01_CAVITY_N1_4
#    Modification time : Fri May 22 19:35:22 2020

@<TRIPOS>MOLECULE
6bwi_22_Y01_CAVITY_N1_4
   26     0     4     0     0
SMALL
NO_CHARGES


@<TRIPOS>ATOM
      1 OG        159.9900  134.1300  140.8000 O.3       1 SER1        0.0000 
      2 OG        161.3600  133.9300  140.2200 O.3       1 SER1        0.0000 
      3 CZ        158.8100  135.5400  129.7300 C.ar      2 PHE5        0.0000 
      4 CZ        157.3700  137.1000  129.6700 C.ar      2 PHE5        0.0000 
      5 CZ        158.7400  136.9000  129.1000 C.ar      2 PHE5        0.0000 
      6 CZ        160.7700  134.6400  134.6900 C.ar      2 PHE5        0.0000 
      7 CZ        160.0800  134.0800  137.1300 C.ar      2 PHE5        0.0000 
      8 CZ        160.0100  135.4400  136.5000 C.ar      2 PHE5        0.0000 
      9 CZ        160.8200  131.9700  139.6200 C.ar      2 PHE5        0.0000 
     10 CZ        160.7500  133.3300  138.9900 C.ar      2 PHE5        0.0000 
     11 CZ        161.5000  131.2100  141.4900 C.ar      2 PHE5        0.0000 
     12 CA        156.7000  137.8500  127.8100 C.3       3 GLY6        0.0000 
     13 CA        159.4900  134.7900  131.5900 C.3       3 GLY6        0.0000 
     14 CA        159.4200  136.1500  130.9600 C.3       3 GLY6        0.0000 
     15 CA        160.7900  135.9500  130.3800 C.3       3 GLY6        0.0000 
     16 CA        160.1000  135.3900  132.8200 C.3       3 GLY6        0.0000 
     17 CA        158.6300  135.6400  137.0700 C.3       3 GLY6        0.0000 
     18 CA        157.1900  137.1900  137.0200 C.3       3 GLY6        0.0000 
     19 CA        158.5600  137.0000  136.4400 C.3       3 GLY6        0.0000 
     20 CA        159.3800  133.5200  139.5700 C.3       3 GLY6        0.0000 
     21 CA        160.6800  134.6800  138.3600 C.3       3 GLY6        0.0000 
     22 DU        158.0500  136.3400  131.5400 H         4 CUB7        0.0000 
     23 DU        159.3300  136.1900  134.6300 H         4 CUB7        0.0000 
     24 DU        160.0600  132.7700  141.4300 H         4 CUB7        0.0000 
     25 DU        161.4300  132.5700  140.8500 H         4 CUB7        0.0000 
     26 DU        160.6600  133.3700  142.6600 H         4 CUB7        0.0000 
@<TRIPOS>BOND
@<TRIPOS>SUBSTRUCTURE
     1 SER1        1 GROUP   
     2 PHE5        3 GROUP   
     3 GLY6       12 GROUP   
     4 CUB7       22 GROUP   
@<TRIPOS>SET

