#    Name: 6bwi_15_Y01_CAVITY_N1_4
#    Modification time : Fri May 22 19:34:44 2020

@<TRIPOS>MOLECULE
6bwi_15_Y01_CAVITY_N1_4
   10     0     4     0     0
SMALL
NO_CHARGES


@<TRIPOS>ATOM
      1 OG        133.8000  154.7400  141.7400 O.3       1 SER1        0.0000 
      2 CZ        132.5900  153.5300  139.2700 C.ar      2 PHE5        0.0000 
      3 CZ        131.1500  155.0900  139.2200 C.ar      2 PHE5        0.0000 
      4 CZ        132.5200  154.8900  138.6400 C.ar      2 PHE5        0.0000 
      5 CZ        133.8900  154.6900  138.0600 C.ar      2 PHE5        0.0000 
      6 CA        135.2600  154.4900  137.4900 C.3       3 GLY6        0.0000 
      7 CA        133.1200  155.4900  139.8700 C.3       3 GLY6        0.0000 
      8 CA        134.4900  155.3000  139.3000 C.3       3 GLY6        0.0000 
      9 DU        131.8200  154.3300  141.0800 H         4 CUB7        0.0000 
     10 DU        133.1900  154.1300  140.5000 H         4 CUB7        0.0000 
@<TRIPOS>BOND
@<TRIPOS>SUBSTRUCTURE
     1 SER1        1 GROUP   
     2 PHE5        2 GROUP   
     3 GLY6        6 GROUP   
     4 CUB7        9 GROUP   
@<TRIPOS>SET

