#    Name: 6bwi_16_Y01_CAVITY_N1_4
#    Modification time : Fri May 22 19:34:50 2020

@<TRIPOS>MOLECULE
6bwi_16_Y01_CAVITY_N1_4
   17     0     2     0     0
SMALL
NO_CHARGES


@<TRIPOS>ATOM
      1 CA        136.4500  166.2900  112.8600 C.3       1 GLY6        0.0000 
      2 CA        137.0500  166.9000  114.1000 C.3       1 GLY6        0.0000 
      3 CA        136.3600  166.3400  116.5400 C.3       1 GLY6        0.0000 
      4 CA        137.4500  171.5800  113.4300 C.3       1 GLY6        0.0000 
      5 CA        137.0300  165.5900  118.4000 C.3       1 GLY6        0.0000 
      6 CA        136.9600  166.9400  117.7700 C.3       1 GLY6        0.0000 
      7 CA        138.1200  170.8200  115.3000 C.3       1 GLY6        0.0000 
      8 CA        137.5700  167.5500  119.0000 C.3       1 GLY6        0.0000 
      9 CA        138.7300  171.4300  116.5300 C.3       1 GLY6        0.0000 
     10 DU        136.3800  167.6500  112.2300 H         2 CUB7        0.0000 
     11 DU        136.9800  168.2600  113.4600 H         2 CUB7        0.0000 
     12 DU        138.3500  168.0600  112.8900 H         2 CUB7        0.0000 
     13 DU        136.9100  169.6200  112.8300 H         2 CUB7        0.0000 
     14 DU        137.6600  167.5000  115.3300 H         2 CUB7        0.0000 
     15 DU        137.5900  168.8600  114.7000 H         2 CUB7        0.0000 
     16 DU        137.5200  170.2200  114.0600 H         2 CUB7        0.0000 
     17 DU        138.1900  169.4600  115.9300 H         2 CUB7        0.0000 
@<TRIPOS>BOND
@<TRIPOS>SUBSTRUCTURE
     1 GLY6        1 GROUP   
     2 CUB7       10 GROUP   
@<TRIPOS>SET

