#    Name: 6bwi_11_Y01_CAVITY_N1_6
#    Modification time : Fri May 22 19:34:29 2020

@<TRIPOS>MOLECULE
6bwi_11_Y01_CAVITY_N1_6
   62     0     3     0     0
SMALL
NO_CHARGES


@<TRIPOS>ATOM
      1 N         166.7500  176.9300  111.0200 N.am      1 ALA2        0.0000 
      2 N         165.3100  178.4900  110.9600 N.am      1 ALA2        0.0000 
      3 N         170.1700  175.7900  111.7300 N.am      1 ALA2        0.0000 
      4 N         165.9900  177.7400  112.8300 N.am      1 ALA2        0.0000 
      5 O         165.9200  179.0900  112.2000 O.2       1 ALA2        0.0000 
      6 O         165.8500  180.4500  111.5600 O.2       1 ALA2        0.0000 
      7 N         169.4700  175.2300  114.1700 N.am      1 ALA2        0.0000 
      8 N         170.8400  175.0300  113.5900 N.am      1 ALA2        0.0000 
      9 N         170.7700  176.3900  112.9600 N.am      1 ALA2        0.0000 
     10 N         170.1500  174.4700  116.0300 N.am      1 ALA2        0.0000 
     11 N         170.0800  175.8300  115.4000 N.am      1 ALA2        0.0000 
     12 N         171.4500  175.6300  114.8300 N.am      1 ALA2        0.0000 
     13 N         165.9000  177.7800  116.5000 N.am      1 ALA2        0.0000 
     14 N         170.7600  175.0800  117.2700 N.am      1 ALA2        0.0000 
     15 N         166.5000  178.3900  117.7300 N.am      1 ALA2        0.0000 
     16 CA        164.6400  179.2500  109.1000 C.3       2 GLY6        0.0000 
     17 CA        169.4900  176.5400  109.8700 C.3       2 GLY6        0.0000 
     18 CA        165.2400  179.8500  110.3300 C.3       2 GLY6        0.0000 
     19 CA        170.1000  177.1400  111.1000 C.3       2 GLY6        0.0000 
     20 CA        166.7300  175.6200  115.3200 C.3       2 GLY6        0.0000 
     21 CA        165.2900  177.1800  115.2700 C.3       2 GLY6        0.0000 
     22 CA        166.6600  176.9800  114.6900 C.3       2 GLY6        0.0000 
     23 CA        166.5900  178.3400  114.0600 C.3       2 GLY6        0.0000 
     24 CA        167.9600  178.1400  113.4800 C.3       2 GLY6        0.0000 
     25 CA        170.7000  177.7500  112.3300 C.3       2 GLY6        0.0000 
     26 CA        167.4100  174.8700  117.1900 C.3       2 GLY6        0.0000 
     27 CA        165.9700  176.4200  117.1300 C.3       2 GLY6        0.0000 
     28 CA        167.2700  177.5900  115.9200 C.3       2 GLY6        0.0000 
     29 CA        171.3800  176.9900  114.1900 C.3       2 GLY6        0.0000 
     30 CA        172.7500  176.8000  113.6200 C.3       2 GLY6        0.0000 
     31 CA        172.6800  178.1500  112.9900 C.3       2 GLY6        0.0000 
     32 CA        166.6400  175.6700  119.0000 C.3       2 GLY6        0.0000 
     33 CA        170.6800  176.4400  116.6300 C.3       2 GLY6        0.0000 
     34 CA        167.3200  174.9100  120.8600 C.3       2 GLY6        0.0000 
     35 CA        170.0600  174.5200  119.7100 C.3       2 GLY6        0.0000 
     36 DU        167.4500  177.4900  108.5800 H         3 CUB7        0.0000 
     37 DU        168.8200  177.2900  108.0000 H         3 CUB7        0.0000 
     38 DU        166.0100  179.0500  108.5200 H         3 CUB7        0.0000 
     39 DU        168.1200  176.7400  110.4400 H         3 CUB7        0.0000 
     40 DU        166.6800  178.2900  110.3900 H         3 CUB7        0.0000 
     41 DU        168.0500  178.1000  109.8100 H         3 CUB7        0.0000 
     42 DU        166.6100  179.6500  109.7600 H         3 CUB7        0.0000 
     43 DU        167.4300  176.1800  112.8800 H         3 CUB7        0.0000 
     44 DU        168.8000  175.9800  112.3100 H         3 CUB7        0.0000 
     45 DU        167.3600  177.5400  112.2500 H         3 CUB7        0.0000 
     46 DU        168.7300  177.3400  111.6700 H         3 CUB7        0.0000 
     47 DU        167.2900  178.9000  111.6200 H         3 CUB7        0.0000 
     48 DU        168.6600  178.7000  111.0400 H         3 CUB7        0.0000 
     49 DU        168.1000  175.4300  114.7500 H         3 CUB7        0.0000 
     50 DU        168.0300  176.7800  114.1100 H         3 CUB7        0.0000 
     51 DU        169.4000  176.5900  113.5400 H         3 CUB7        0.0000 
     52 DU        169.3300  177.9500  112.9100 H         3 CUB7        0.0000 
     53 DU        168.7800  174.6700  116.6100 H         3 CUB7        0.0000 
     54 DU        167.3400  176.2300  116.5600 H         3 CUB7        0.0000 
     55 DU        168.7100  176.0300  115.9800 H         3 CUB7        0.0000 
     56 DU        168.6400  177.3900  115.3500 H         3 CUB7        0.0000 
     57 DU        170.0100  177.1900  114.7700 H         3 CUB7        0.0000 
     58 DU        168.0100  175.4700  118.4200 H         3 CUB7        0.0000 
     59 DU        169.3800  175.2700  117.8400 H         3 CUB7        0.0000 
     60 DU        167.9400  176.8300  117.7900 H         3 CUB7        0.0000 
     61 DU        168.6900  174.7200  120.2800 H         3 CUB7        0.0000 
     62 DU        168.6200  176.0800  119.6500 H         3 CUB7        0.0000 
@<TRIPOS>BOND
@<TRIPOS>SUBSTRUCTURE
     1 ALA2        1 GROUP   
     2 GLY6       16 GROUP   
     3 CUB7       36 GROUP   
@<TRIPOS>SET

