#    Name: 6bwi_5_Y01
#    Modification time : Fri May 22 19:33:45 2020

@<TRIPOS>MOLECULE
6bwi_5_Y01
   35    38     1     0     0
SMALL
NO_CHARGES


@<TRIPOS>ATOM
      1 CAA       181.9950  155.5250  124.1060 C.3       1 Y011208     0.0000 
      2 CBA       182.1050  156.8310  124.8900 C.3       1 Y011208     0.0000 
      3 CAB       183.3820  156.8170  125.7260 C.3       1 Y011208     0.0000 
      4 CAN       180.8950  156.9740  125.8090 C.3       1 Y011208     0.0000 
      5 CAJ       180.7970  158.4170  126.3040 C.3       1 Y011208     0.0000 
      6 CAO       180.9610  158.4550  127.8200 C.3       1 Y011208     0.0000 
      7 CBB       182.2760  157.7760  128.1760 C.3       1 Y011208     0.0000 
      8 CAC       183.3590  158.8420  128.3660 C.3       1 Y011208     0.0000 
      9 CBE       182.0500  156.8940  129.4130 C.3       1 Y011208     0.0000 
     10 CAP       182.6530  155.5030  129.1940 C.3       1 Y011208     0.0000 
     11 CAQ       182.7510  154.9470  130.6270 C.3       1 Y011208     0.0000 
     12 CBG       182.3170  156.1370  131.4890 C.3       1 Y011208     0.0000 
     13 CBI       182.7710  157.3130  130.6970 C.3       1 Y011208     0.0000 
     14 CAE       184.3040  157.3450  130.6020 C.3       1 Y011208     0.0000 
     15 CAU       182.2710  158.5800  131.3520 C.3       1 Y011208     0.0000 
     16 CAS       182.9010  158.6570  132.7450 C.3       1 Y011208     0.0000 
     17 CBF       182.5290  157.4150  133.5550 C.3       1 Y011208     0.0000 
     18 CBD       182.9720  156.1540  132.8310 C.3       1 Y011208     0.0000 
     19 CAK       182.5000  154.9340  133.6400 C.3       1 Y011208     0.0000 
     20 CAI       182.7420  155.0040  135.0250 C.2       1 Y011208     0.0000 
     21 CAZ       183.0450  156.2130  135.6630 C.2       1 Y011208     0.0000 
     22 CAV       183.2660  156.1680  137.0330 C.3       1 Y011208     0.0000 
     23 CBH       183.2130  157.4250  134.9390 C.3       1 Y011208     0.0000 
     24 CAD       184.7070  157.5870  134.7040 C.3       1 Y011208     0.0000 
     25 CAT       182.6920  158.6330  135.7090 C.3       1 Y011208     0.0000 
     26 CAR       183.2210  158.6480  137.1250 C.3       1 Y011208     0.0000 
     27 CBC       182.7310  157.3720  137.7720 C.3       1 Y011208     0.0000 
     28 OAW       183.2060  157.2890  139.1160 O.3       1 Y011208     0.0000 
     29 CAY       182.2800  157.8170  139.9510 C.2       1 Y011208     0.0000 
     30 OAG       181.7350  158.9010  139.7700 O.2       1 Y011208     0.0000 
     31 CAM       181.9460  156.9570  141.1650 C.3       1 Y011208     0.0000 
     32 CAL       182.5950  157.5480  142.4150 C.3       1 Y011208     0.0000 
     33 CAX       182.6820  156.4600  143.4850 C.2       1 Y011208     0.0000 
     34 OAH       182.8780  155.2920  143.0840 O.co2     1 Y011208     0.0000 
     35 OAF       182.5500  156.8170  144.6760 O.co2     1 Y011208     0.0000 
@<TRIPOS>BOND
     1    1    2 1    
     2    2    3 1    
     3    2    4 1    
     4    4    5 1    
     5    5    6 1    
     6    6    7 1    
     7    7    8 1    
     8    7    9 1    
     9    9   10 1    
    10    9   13 1    
    11   10   11 1    
    12   11   12 1    
    13   12   13 1    
    14   12   18 1    
    15   13   14 1    
    16   13   15 1    
    17   15   16 1    
    18   16   17 1    
    19   17   18 1    
    20   17   23 1    
    21   18   19 1    
    22   19   20 1    
    23   20   21 2    
    24   21   22 1    
    25   21   23 1    
    26   22   27 1    
    27   23   24 1    
    28   23   25 1    
    29   25   26 1    
    30   26   27 1    
    31   27   28 1    
    32   28   29 1    
    33   29   30 2    
    34   29   31 1    
    35   31   32 1    
    36   32   33 1    
    37   33   34 ar   
    38   33   35 ar   
@<TRIPOS>SUBSTRUCTURE
     1 Y011208     1 GROUP   
@<TRIPOS>SET

