#    Name: 6bwi_7_Y01_CAVITY_N1_4
#    Modification time : Fri May 22 19:34:02 2020

@<TRIPOS>MOLECULE
6bwi_7_Y01_CAVITY_N1_4
   25     0     4     0     0
SMALL
NO_CHARGES


@<TRIPOS>ATOM
      1 N         177.9300  148.2900  112.2700 N.am      1 ALA2        0.0000 
      2 O         179.3000  148.0900  111.6900 O.2       1 ALA2        0.0000 
      3 N         178.4400  148.9400  117.1700 N.am      1 ALA2        0.0000 
      4 CZ        180.6700  147.8900  111.1100 C.ar      2 PHE5        0.0000 
      5 CA        177.5300  143.6000  112.9300 C.3       3 GLY6        0.0000 
      6 CA        177.4600  144.9600  112.3000 C.3       3 GLY6        0.0000 
      7 CA        178.8300  144.7700  111.7200 C.3       3 GLY6        0.0000 
      8 CA        176.7700  144.4100  114.7400 C.3       3 GLY6        0.0000 
      9 CA        176.0700  143.8500  117.1800 C.3       3 GLY6        0.0000 
     10 CA        178.6700  146.1700  114.7600 C.3       3 GLY6        0.0000 
     11 CA        177.2300  147.7300  114.7100 C.3       3 GLY6        0.0000 
     12 CA        178.6000  147.5300  114.1300 C.3       3 GLY6        0.0000 
     13 CA        177.8400  148.3300  115.9400 C.3       3 GLY6        0.0000 
     14 CA        177.1400  147.7700  118.3800 C.3       3 GLY6        0.0000 
     15 CA        177.0700  149.1300  117.7500 C.3       3 GLY6        0.0000 
     16 DU        177.3900  146.3200  111.6700 H         4 CUB7        0.0000 
     17 DU        178.7600  146.1200  111.0900 H         4 CUB7        0.0000 
     18 DU        178.1400  144.2100  114.1600 H         4 CUB7        0.0000 
     19 DU        176.7000  145.7600  114.1100 H         4 CUB7        0.0000 
     20 DU        178.0700  145.5700  113.5300 H         4 CUB7        0.0000 
     21 DU        178.0000  146.9300  112.9000 H         4 CUB7        0.0000 
     22 DU        177.3700  145.0100  115.9700 H         4 CUB7        0.0000 
     23 DU        177.3000  146.3700  115.3400 H         4 CUB7        0.0000 
     24 DU        176.5400  147.1700  117.1500 H         4 CUB7        0.0000 
     25 DU        177.9100  146.9700  116.5700 H         4 CUB7        0.0000 
@<TRIPOS>BOND
@<TRIPOS>SUBSTRUCTURE
     1 ALA2        1 GROUP   
     2 PHE5        4 GROUP   
     3 GLY6        5 GROUP   
     4 CUB7       16 GROUP   
@<TRIPOS>SET

