#    Name: 6bwi_10_Y01
#    Modification time : Fri May 22 19:34:21 2020

@<TRIPOS>MOLECULE
6bwi_10_Y01
   35    38     1     0     0
SMALL
NO_CHARGES


@<TRIPOS>ATOM
      1 CAA       164.8650  175.2350  124.5830 C.3       1 Y011208     0.0000 
      2 CBA       165.9330  175.0510  125.6600 C.3       1 Y011208     0.0000 
      3 CAB       165.3720  174.1780  126.7820 C.3       1 Y011208     0.0000 
      4 CAN       166.3530  176.4170  126.2130 C.3       1 Y011208     0.0000 
      5 CAJ       165.1220  177.2420  126.5960 C.3       1 Y011208     0.0000 
      6 CAO       164.5210  176.6720  127.8760 C.3       1 Y011208     0.0000 
      7 CBB       163.4070  177.5750  128.4030 C.3       1 Y011208     0.0000 
      8 CAC       162.4420  177.9500  127.2830 C.3       1 Y011208     0.0000 
      9 CBE       162.6700  176.7990  129.4860 C.3       1 Y011208     0.0000 
     10 CAP       163.4990  176.8130  130.7800 C.3       1 Y011208     0.0000 
     11 CAQ       162.4540  176.8220  131.9100 C.3       1 Y011208     0.0000 
     12 CBG       161.1640  176.6170  131.1320 C.3       1 Y011208     0.0000 
     13 CBI       161.3920  177.4530  129.9040 C.3       1 Y011208     0.0000 
     14 CAE       161.5760  178.9410  130.2260 C.3       1 Y011208     0.0000 
     15 CAU       160.2290  177.2710  128.9540 C.3       1 Y011208     0.0000 
     16 CAS       158.9630  177.7350  129.6680 C.3       1 Y011208     0.0000 
     17 CBF       158.7740  176.9190  130.9380 C.3       1 Y011208     0.0000 
     18 CBD       159.9550  177.1150  131.8650 C.3       1 Y011208     0.0000 
     19 CAK       159.7850  176.2850  133.1530 C.3       1 Y011208     0.0000 
     20 CAI       158.4760  176.1550  133.6460 C.2       1 Y011208     0.0000 
     21 CAZ       157.3660  176.6400  132.9450 C.2       1 Y011208     0.0000 
     22 CAV       156.1130  176.3980  133.5460 C.3       1 Y011208     0.0000 
     23 CBH       157.5320  177.3570  131.7150 C.3       1 Y011208     0.0000 
     24 CAD       157.6790  178.8290  132.0530 C.3       1 Y011208     0.0000 
     25 CAT       156.3110  177.1840  130.8290 C.3       1 Y011208     0.0000 
     26 CAR       155.0060  177.5490  131.5880 C.3       1 Y011208     0.0000 
     27 CBC       155.0810  177.4380  133.1340 C.3       1 Y011208     0.0000 
     28 OAW       155.4650  178.6710  133.7070 O.3       1 Y011208     0.0000 
     29 CAY       155.0510  178.6100  134.9980 C.2       1 Y011208     0.0000 
     30 OAG       155.7550  178.2210  135.9250 O.2       1 Y011208     0.0000 
     31 CAM       153.6050  179.0410  135.2300 C.3       1 Y011208     0.0000 
     32 CAL       153.0190  178.2860  136.4220 C.3       1 Y011208     0.0000 
     33 CAX       153.2010  179.1190  137.6870 C.2       1 Y011208     0.0000 
     34 OAH       154.3260  179.6140  137.8770 O.co2     1 Y011208     0.0000 
     35 OAF       152.2120  179.2450  138.4350 O.co2     1 Y011208     0.0000 
@<TRIPOS>BOND
     1    1    2 1    
     2    2    3 1    
     3    2    4 1    
     4    4    5 1    
     5    5    6 1    
     6    6    7 1    
     7    7    8 1    
     8    7    9 1    
     9    9   10 1    
    10    9   13 1    
    11   10   11 1    
    12   11   12 1    
    13   12   13 1    
    14   12   18 1    
    15   13   14 1    
    16   13   15 1    
    17   15   16 1    
    18   16   17 1    
    19   17   18 1    
    20   17   23 1    
    21   18   19 1    
    22   19   20 1    
    23   20   21 2    
    24   21   22 1    
    25   21   23 1    
    26   22   27 1    
    27   23   24 1    
    28   23   25 1    
    29   25   26 1    
    30   26   27 1    
    31   27   28 1    
    32   28   29 1    
    33   29   30 2    
    34   29   31 1    
    35   31   32 1    
    36   32   33 1    
    37   33   34 ar   
    38   33   35 ar   
@<TRIPOS>SUBSTRUCTURE
     1 Y011208     1 GROUP   
@<TRIPOS>SET

