#    Name: 6bwi_11_Y01
#    Modification time : Fri May 22 19:34:28 2020

@<TRIPOS>MOLECULE
6bwi_11_Y01
   35    38     1     0     0
SMALL
NO_CHARGES


@<TRIPOS>ATOM
      1 CAA       170.1060  179.6000  120.8550 C.3       1 Y011201     0.0000 
      2 CBA       169.2440  180.8510  121.0090 C.3       1 Y011201     0.0000 
      3 CAB       168.5500  180.8220  122.3700 C.3       1 Y011201     0.0000 
      4 CAN       168.1870  180.8830  119.9090 C.3       1 Y011201     0.0000 
      5 CAJ       168.8280  181.3250  118.5990 C.3       1 Y011201     0.0000 
      6 CAO       169.7400  180.2150  118.0930 C.3       1 Y011201     0.0000 
      7 CBB       170.5710  180.7410  116.9300 C.3       1 Y011201     0.0000 
      8 CAC       171.8100  179.8690  116.7370 C.3       1 Y011201     0.0000 
      9 CBE       169.7270  180.7060  115.6580 C.3       1 Y011201     0.0000 
     10 CAP       168.5840  181.7100  115.7800 C.3       1 Y011201     0.0000 
     11 CAQ       168.4410  182.3440  114.3850 C.3       1 Y011201     0.0000 
     12 CBG       169.3650  181.5100  113.5230 C.3       1 Y011201     0.0000 
     13 CBI       170.4900  181.2490  114.4770 C.3       1 Y011201     0.0000 
     14 CAE       171.2520  182.5400  114.8310 C.3       1 Y011201     0.0000 
     15 CAU       171.4200  180.2570  113.8330 C.3       1 Y011201     0.0000 
     16 CAS       172.0350  180.9230  112.6020 C.3       1 Y011201     0.0000 
     17 CBF       170.9490  181.4140  111.6270 C.3       1 Y011201     0.0000 
     18 CBD       169.9050  182.2740  112.3370 C.3       1 Y011201     0.0000 
     19 CAK       168.8030  182.6090  111.3210 C.3       1 Y011201     0.0000 
     20 CAI       169.3020  183.1750  110.1290 C.2       1 Y011201     0.0000 
     21 CAZ       170.6170  182.9760  109.6850 C.2       1 Y011201     0.0000 
     22 CAV       171.0150  183.5920  108.4960 C.3       1 Y011201     0.0000 
     23 CBH       171.5630  182.2170  110.4270 C.3       1 Y011201     0.0000 
     24 CAD       172.6180  183.1830  110.9640 C.3       1 Y011201     0.0000 
     25 CAT       172.2460  181.2190  109.5140 C.3       1 Y011201     0.0000 
     26 CAR       172.9150  181.9430  108.3610 C.3       1 Y011201     0.0000 
     27 CBC       171.8370  182.6760  107.5810 C.3       1 Y011201     0.0000 
     28 OAW       172.4600  183.4740  106.5670 O.3       1 Y011201     0.0000 
     29 CAY       172.6510  182.7360  105.4430 C.2       1 Y011201     0.0000 
     30 OAG       173.5080  181.8630  105.3300 O.2       1 Y011201     0.0000 
     31 CAM       171.7080  183.0720  104.2880 C.3       1 Y011201     0.0000 
     32 CAL       171.3750  184.5650  104.3280 C.3       1 Y011201     0.0000 
     33 CAX       170.3700  184.9120  103.2280 C.2       1 Y011201     0.0000 
     34 OAH       169.6750  185.9350  103.4020 O.co2     1 Y011201     0.0000 
     35 OAF       170.3190  184.1540  102.2370 O.co2     1 Y011201     0.0000 
@<TRIPOS>BOND
     1    1    2 1    
     2    2    3 1    
     3    2    4 1    
     4    4    5 1    
     5    5    6 1    
     6    6    7 1    
     7    7    8 1    
     8    7    9 1    
     9    9   10 1    
    10    9   13 1    
    11   10   11 1    
    12   11   12 1    
    13   12   13 1    
    14   12   18 1    
    15   13   14 1    
    16   13   15 1    
    17   15   16 1    
    18   16   17 1    
    19   17   18 1    
    20   17   23 1    
    21   18   19 1    
    22   19   20 1    
    23   20   21 2    
    24   21   22 1    
    25   21   23 1    
    26   22   27 1    
    27   23   24 1    
    28   23   25 1    
    29   25   26 1    
    30   26   27 1    
    31   27   28 1    
    32   28   29 1    
    33   29   30 2    
    34   29   31 1    
    35   31   32 1    
    36   32   33 1    
    37   33   34 ar   
    38   33   35 ar   
@<TRIPOS>SUBSTRUCTURE
     1 Y011201     1 GROUP   
@<TRIPOS>SET

