#    Name: 6bwi_20_Y01
#    Modification time : Fri May 22 19:35:07 2020

@<TRIPOS>MOLECULE
6bwi_20_Y01
   35    38     1     0     0
SMALL
NO_CHARGES


@<TRIPOS>ATOM
      1 CAA       184.2000  132.7630  124.5080 C.3       1 Y011205     0.0000 
      2 CBA       183.3600  133.2630  125.6830 C.3       1 Y011205     0.0000 
      3 CAB       184.0400  132.8680  126.9930 C.3       1 Y011205     0.0000 
      4 CAN       181.9680  132.6330  125.6210 C.3       1 Y011205     0.0000 
      5 CAJ       180.9530  133.5090  126.3590 C.3       1 Y011205     0.0000 
      6 CAO       181.4810  133.8890  127.7450 C.3       1 Y011205     0.0000 
      7 CBB       182.3940  135.1110  127.6340 C.3       1 Y011205     0.0000 
      8 CAC       181.6720  136.2240  126.8670 C.3       1 Y011205     0.0000 
      9 CBE       182.7980  135.5930  129.0340 C.3       1 Y011205     0.0000 
     10 CAP       183.3890  137.0230  128.9980 C.3       1 Y011205     0.0000 
     11 CAQ       182.9570  137.6530  130.3420 C.3       1 Y011205     0.0000 
     12 CBG       182.3960  136.4410  131.0740 C.3       1 Y011205     0.0000 
     13 CBI       181.6310  135.7360  129.9860 C.3       1 Y011205     0.0000 
     14 CAE       180.4790  136.5900  129.4340 C.3       1 Y011205     0.0000 
     15 CAU       181.0850  134.4320  130.5180 C.3       1 Y011205     0.0000 
     16 CAS       180.1770  134.7450  131.7000 C.3       1 Y011205     0.0000 
     17 CBF       180.9870  135.4710  132.7560 C.3       1 Y011205     0.0000 
     18 CBD       181.4780  136.7930  132.2040 C.3       1 Y011205     0.0000 
     19 CAK       182.2980  137.5480  133.2590 C.3       1 Y011205     0.0000 
     20 CAI       181.8580  137.4420  134.5900 C.2       1 Y011205     0.0000 
     21 CAZ       180.8530  136.5450  134.9670 C.2       1 Y011205     0.0000 
     22 CAV       180.5140  136.5040  136.3230 C.3       1 Y011205     0.0000 
     23 CBH       180.1540  135.7440  134.0110 C.3       1 Y011205     0.0000 
     24 CAD       178.9080  136.5100  133.5960 C.3       1 Y011205     0.0000 
     25 CAT       179.7410  134.3790  134.5640 C.3       1 Y011205     0.0000 
     26 CAR       179.1970  134.4640  135.9740 C.3       1 Y011205     0.0000 
     27 CBC       180.3300  135.0640  136.7740 C.3       1 Y011205     0.0000 
     28 OAW       180.1080  134.9650  138.1940 O.3       1 Y011205     0.0000 
     29 CAY       178.9670  135.5630  138.5980 C.2       1 Y011205     0.0000 
     30 OAG       178.6240  136.6890  138.2480 O.2       1 Y011205     0.0000 
     31 CAM       178.1210  134.7300  139.5590 C.3       1 Y011205     0.0000 
     32 CAL       177.8890  135.5220  140.8470 C.3       1 Y011205     0.0000 
     33 CAX       179.1930  135.6080  141.6350 C.2       1 Y011205     0.0000 
     34 OAH       180.2530  135.5990  140.9760 O.co2     1 Y011205     0.0000 
     35 OAF       179.1010  135.6810  142.8780 O.co2     1 Y011205     0.0000 
@<TRIPOS>BOND
     1    1    2 1    
     2    2    3 1    
     3    2    4 1    
     4    4    5 1    
     5    5    6 1    
     6    6    7 1    
     7    7    8 1    
     8    7    9 1    
     9    9   10 1    
    10    9   13 1    
    11   10   11 1    
    12   11   12 1    
    13   12   13 1    
    14   12   18 1    
    15   13   14 1    
    16   13   15 1    
    17   15   16 1    
    18   16   17 1    
    19   17   18 1    
    20   17   23 1    
    21   18   19 1    
    22   19   20 1    
    23   20   21 2    
    24   21   22 1    
    25   21   23 1    
    26   22   27 1    
    27   23   24 1    
    28   23   25 1    
    29   25   26 1    
    30   26   27 1    
    31   27   28 1    
    32   28   29 1    
    33   29   30 2    
    34   29   31 1    
    35   31   32 1    
    36   32   33 1    
    37   33   34 ar   
    38   33   35 ar   
@<TRIPOS>SUBSTRUCTURE
     1 Y011205     1 GROUP   
@<TRIPOS>SET

