#    Name: 6bwi_1_Y01
#    Modification time : Fri May 22 19:33:22 2020

@<TRIPOS>MOLECULE
6bwi_1_Y01
   35    38     1     0     0
SMALL
NO_CHARGES


@<TRIPOS>ATOM
      1 CAA       173.3640  146.5800  123.2600 C.3       1 Y011204     0.0000 
      2 CBA       173.2340  146.2530  121.7760 C.3       1 Y011204     0.0000 
      3 CAB       172.8270  144.7910  121.6290 C.3       1 Y011204     0.0000 
      4 CAN       174.5760  146.4730  121.0840 C.3       1 Y011204     0.0000 
      5 CAJ       174.4520  146.0630  119.6210 C.3       1 Y011204     0.0000 
      6 CAO       175.7410  146.4040  118.8950 C.3       1 Y011204     0.0000 
      7 CBB       175.3990  147.0870  117.5830 C.3       1 Y011204     0.0000 
      8 CAC       176.1020  148.4330  117.5270 C.3       1 Y011204     0.0000 
      9 CBE       175.9050  146.2150  116.4490 C.3       1 Y011204     0.0000 
     10 CAP       174.9260  145.0610  116.2530 C.3       1 Y011204     0.0000 
     11 CAQ       174.7820  144.8870  114.7330 C.3       1 Y011204     0.0000 
     12 CBG       175.9060  145.7470  114.2040 C.3       1 Y011204     0.0000 
     13 CBI       175.8430  146.9270  115.1160 C.3       1 Y011204     0.0000 
     14 CAE       174.5460  147.7200  114.9350 C.3       1 Y011204     0.0000 
     15 CAU       177.0270  147.8150  114.8260 C.3       1 Y011204     0.0000 
     16 CAS       176.9510  148.2660  113.3630 C.3       1 Y011204     0.0000 
     17 CBF       176.8920  147.0460  112.4390 C.3       1 Y011204     0.0000 
     18 CBD       175.6830  146.2080  112.7980 C.3       1 Y011204     0.0000 
     19 CAK       175.6210  144.9860  111.8910 C.3       1 Y011204     0.0000 
     20 CAI       175.8140  145.2460  110.5270 C.2       1 Y011204     0.0000 
     21 CAZ       176.4330  146.4080  110.0640 C.2       1 Y011204     0.0000 
     22 CAV       176.5820  146.5760  108.6900 C.3       1 Y011204     0.0000 
     23 CBH       176.8960  147.4340  110.9200 C.3       1 Y011204     0.0000 
     24 CAD       175.9990  148.6490  110.7040 C.3       1 Y011204     0.0000 
     25 CAT       178.3460  147.8040  110.5700 C.3       1 Y011204     0.0000 
     26 CAR       178.5730  147.9920  109.0660 C.3       1 Y011204     0.0000 
     27 CBC       178.0580  146.7560  108.3540 C.3       1 Y011204     0.0000 
     28 OAW       178.2520  146.9090  106.9290 O.3       1 Y011204     0.0000 
     29 CAY       177.7190  145.9160  106.1600 C.2       1 Y011204     0.0000 
     30 OAG       177.0990  144.9470  106.5950 O.2       1 Y011204     0.0000 
     31 CAM       177.9390  146.0890  104.6550 C.3       1 Y011204     0.0000 
     32 CAL       177.3930  147.4480  104.2030 C.3       1 Y011204     0.0000 
     33 CAX       176.4770  147.2990  102.9800 C.2       1 Y011204     0.0000 
     34 OAH       176.1280  146.1460  102.6500 O.co2     1 Y011204     0.0000 
     35 OAF       176.1430  148.3520  102.3990 O.co2     1 Y011204     0.0000 
@<TRIPOS>BOND
     1    1    2 1    
     2    2    3 1    
     3    2    4 1    
     4    4    5 1    
     5    5    6 1    
     6    6    7 1    
     7    7    8 1    
     8    7    9 1    
     9    9   10 1    
    10    9   13 1    
    11   10   11 1    
    12   11   12 1    
    13   12   13 1    
    14   12   18 1    
    15   13   14 1    
    16   13   15 1    
    17   15   16 1    
    18   16   17 1    
    19   17   18 1    
    20   17   23 1    
    21   18   19 1    
    22   19   20 1    
    23   20   21 2    
    24   21   22 1    
    25   21   23 1    
    26   22   27 1    
    27   23   24 1    
    28   23   25 1    
    29   25   26 1    
    30   26   27 1    
    31   27   28 1    
    32   28   29 1    
    33   29   30 2    
    34   29   31 1    
    35   31   32 1    
    36   32   33 1    
    37   33   34 ar   
    38   33   35 ar   
@<TRIPOS>SUBSTRUCTURE
     1 Y011204     1 GROUP   
@<TRIPOS>SET

