#    Name: 6bwi_3_Y01
#    Modification time : Fri May 22 19:33:31 2020

@<TRIPOS>MOLECULE
6bwi_3_Y01
   35    38     1     0     0
SMALL
NO_CHARGES


@<TRIPOS>ATOM
      1 CAA       148.7820  140.4050  124.7940 C.3       1 Y011206     0.0000 
      2 CBA       148.7830  140.4220  126.3190 C.3       1 Y011206     0.0000 
      3 CAB       150.0470  141.1230  126.8140 C.3       1 Y011206     0.0000 
      4 CAN       148.7710  138.9870  126.8330 C.3       1 Y011206     0.0000 
      5 CAJ       150.0610  138.2980  126.4020 C.3       1 Y011206     0.0000 
      6 CAO       150.0850  136.8790  126.9620 C.3       1 Y011206     0.0000 
      7 CBB       151.5020  136.5340  127.4240 C.3       1 Y011206     0.0000 
      8 CAC       152.4280  136.4280  126.2110 C.3       1 Y011206     0.0000 
      9 CBE       152.0020  137.6200  128.3830 C.3       1 Y011206     0.0000 
     10 CAP       150.9770  137.8480  129.4960 C.3       1 Y011206     0.0000 
     11 CAQ       151.8350  138.3430  130.6800 C.3       1 Y011206     0.0000 
     12 CBG       153.2610  138.2570  130.1450 C.3       1 Y011206     0.0000 
     13 CBI       153.1830  137.1310  129.1790 C.3       1 Y011206     0.0000 
     14 CAE       152.9040  135.7890  129.8760 C.3       1 Y011206     0.0000 
     15 CAU       154.4900  137.0590  128.4290 C.3       1 Y011206     0.0000 
     16 CAS       155.5870  136.7180  129.4350 C.3       1 Y011206     0.0000 
     17 CBF       155.6350  137.7480  130.5570 C.3       1 Y011206     0.0000 
     18 CBD       154.2700  137.9100  131.2050 C.3       1 Y011206     0.0000 
     19 CAK       154.3710  139.0240  132.2680 C.3       1 Y011206     0.0000 
     20 CAI       155.4830  138.9180  133.1340 C.2       1 Y011206     0.0000 
     21 CAZ       156.5830  138.1040  132.8310 C.2       1 Y011206     0.0000 
     22 CAV       157.6340  138.0620  133.7460 C.3       1 Y011206     0.0000 
     23 CBH       156.5930  137.2780  131.6720 C.3       1 Y011206     0.0000 
     24 CAD       156.1100  135.9100  132.1220 C.3       1 Y011206     0.0000 
     25 CAT       157.9800  137.1260  131.0710 C.3       1 Y011206     0.0000 
     26 CAR       158.9750  136.7280  132.1340 C.3       1 Y011206     0.0000 
     27 CBC       158.9970  137.8920  133.0840 C.3       1 Y011206     0.0000 
     28 OAW       160.0210  137.7060  134.0750 O.3       1 Y011206     0.0000 
     29 CAY       159.8290  136.6210  134.8650 C.2       1 Y011206     0.0000 
     30 OAG       158.8210  136.4270  135.5370 O.2       1 Y011206     0.0000 
     31 CAM       160.9920  135.6340  134.8870 C.3       1 Y011206     0.0000 
     32 CAL       162.0700  136.1120  135.8630 C.3       1 Y011206     0.0000 
     33 CAX       161.5640  135.9820  137.2970 C.2       1 Y011206     0.0000 
     34 OAH       162.3350  135.4590  138.1280 O.co2     1 Y011206     0.0000 
     35 OAF       160.4170  136.4100  137.5290 O.co2     1 Y011206     0.0000 
@<TRIPOS>BOND
     1    1    2 1    
     2    2    3 1    
     3    2    4 1    
     4    4    5 1    
     5    5    6 1    
     6    6    7 1    
     7    7    8 1    
     8    7    9 1    
     9    9   10 1    
    10    9   13 1    
    11   10   11 1    
    12   11   12 1    
    13   12   13 1    
    14   12   18 1    
    15   13   14 1    
    16   13   15 1    
    17   15   16 1    
    18   16   17 1    
    19   17   18 1    
    20   17   23 1    
    21   18   19 1    
    22   19   20 1    
    23   20   21 2    
    24   21   22 1    
    25   21   23 1    
    26   22   27 1    
    27   23   24 1    
    28   23   25 1    
    29   25   26 1    
    30   26   27 1    
    31   27   28 1    
    32   28   29 1    
    33   29   30 2    
    34   29   31 1    
    35   31   32 1    
    36   32   33 1    
    37   33   34 ar   
    38   33   35 ar   
@<TRIPOS>SUBSTRUCTURE
     1 Y011206     1 GROUP   
@<TRIPOS>SET

