#    Name: 6bwi_21_Y01
#    Modification time : Fri May 22 19:35:14 2020

@<TRIPOS>MOLECULE
6bwi_21_Y01
   35    38     1     0     0
SMALL
NO_CHARGES


@<TRIPOS>ATOM
      1 CAA       138.9160  166.0340  124.7740 C.3       1 Y011206     0.0000 
      2 CBA       139.9170  166.3010  125.8970 C.3       1 Y011206     0.0000 
      3 CAB       141.3410  166.1840  125.3570 C.3       1 Y011206     0.0000 
      4 CAN       139.7080  165.2740  127.0020 C.3       1 Y011206     0.0000 
      5 CAJ       138.2570  165.3450  127.4660 C.3       1 Y011206     0.0000 
      6 CAO       137.4430  164.2790  126.7370 C.3       1 Y011206     0.0000 
      7 CBB       136.7580  163.3660  127.7590 C.3       1 Y011206     0.0000 
      8 CAC       135.9760  162.2760  127.0200 C.3       1 Y011206     0.0000 
      9 CBE       137.8140  162.7480  128.6880 C.3       1 Y011206     0.0000 
     10 CAP       138.1720  163.7300  129.8150 C.3       1 Y011206     0.0000 
     11 CAQ       138.4600  162.8470  131.0410 C.3       1 Y011206     0.0000 
     12 CBG       138.3960  161.4500  130.4480 C.3       1 Y011206     0.0000 
     13 CBI       137.2840  161.5810  129.4580 C.3       1 Y011206     0.0000 
     14 CAE       135.9380  161.9050  130.1210 C.3       1 Y011206     0.0000 
     15 CAU       137.1800  160.2890  128.6800 C.3       1 Y011206     0.0000 
     16 CAS       136.7920  159.1820  129.6540 C.3       1 Y011206     0.0000 
     17 CBF       137.8000  159.0860  130.7910 C.3       1 Y011206     0.0000 
     18 CBD       137.9830  160.4350  131.4650 C.3       1 Y011206     0.0000 
     19 CAK       139.0690  160.2910  132.5510 C.3       1 Y011206     0.0000 
     20 CAI       138.9270  159.1660  133.3900 C.2       1 Y011206     0.0000 
     21 CAZ       138.0980  158.0890  133.0510 C.2       1 Y011206     0.0000 
     22 CAV       138.0250  157.0260  133.9460 C.3       1 Y011206     0.0000 
     23 CBH       137.2890  158.1190  131.8790 C.3       1 Y011206     0.0000 
     24 CAD       135.9270  158.6280  132.3170 C.3       1 Y011206     0.0000 
     25 CAT       137.1120  156.7440  131.2550 C.3       1 Y011206     0.0000 
     26 CAR       136.6720  155.7450  132.2980 C.3       1 Y011206     0.0000 
     27 CBC       137.8240  155.6780  133.2650 C.3       1 Y011206     0.0000 
     28 OAW       137.5980  154.6510  134.2450 O.3       1 Y011206     0.0000 
     29 CAY       136.5230  154.8630  135.0460 C.2       1 Y011206     0.0000 
     30 OAG       136.3490  155.8750  135.7190 O.2       1 Y011206     0.0000 
     31 CAM       135.5180  153.7140  135.0810 C.3       1 Y011206     0.0000 
     32 CAL       135.9780  152.6390  136.0690 C.3       1 Y011206     0.0000 
     33 CAX       135.8770  153.1700  137.4960 C.2       1 Y011206     0.0000 
     34 OAH       136.3780  154.2890  137.7170 O.co2     1 Y011206     0.0000 
     35 OAF       135.3030  152.4450  138.3350 O.co2     1 Y011206     0.0000 
@<TRIPOS>BOND
     1    1    2 1    
     2    2    3 1    
     3    2    4 1    
     4    4    5 1    
     5    5    6 1    
     6    6    7 1    
     7    7    8 1    
     8    7    9 1    
     9    9   10 1    
    10    9   13 1    
    11   10   11 1    
    12   11   12 1    
    13   12   13 1    
    14   12   18 1    
    15   13   14 1    
    16   13   15 1    
    17   15   16 1    
    18   16   17 1    
    19   17   18 1    
    20   17   23 1    
    21   18   19 1    
    22   19   20 1    
    23   20   21 2    
    24   21   22 1    
    25   21   23 1    
    26   22   27 1    
    27   23   24 1    
    28   23   25 1    
    29   25   26 1    
    30   26   27 1    
    31   27   28 1    
    32   28   29 1    
    33   29   30 2    
    34   29   31 1    
    35   31   32 1    
    36   32   33 1    
    37   33   34 ar   
    38   33   35 ar   
@<TRIPOS>SUBSTRUCTURE
     1 Y011206     1 GROUP   
@<TRIPOS>SET

