#    Name: 6bwi_7_Y01
#    Modification time : Fri May 22 19:34:01 2020

@<TRIPOS>MOLECULE
6bwi_7_Y01
   35    38     1     0     0
SMALL
NO_CHARGES


@<TRIPOS>ATOM
      1 CAA       181.7670  147.3970  125.8420 C.3       1 Y011203     0.0000 
      2 CBA       182.6110  147.0950  124.6020 C.3       1 Y011203     0.0000 
      3 CAB       184.0690  147.4800  124.8670 C.3       1 Y011203     0.0000 
      4 CAN       182.0780  147.8980  123.4140 C.3       1 Y011203     0.0000 
      5 CAJ       180.6560  147.4410  123.0820 C.3       1 Y011203     0.0000 
      6 CAO       180.7130  146.1850  122.2150 C.3       1 Y011203     0.0000 
      7 CBB       180.9280  146.5730  120.7530 C.3       1 Y011203     0.0000 
      8 CAC       182.2320  147.3550  120.6140 C.3       1 Y011203     0.0000 
      9 CBE       181.0270  145.3020  119.9240 C.3       1 Y011203     0.0000 
     10 CAP       179.7700  144.4550  120.1330 C.3       1 Y011203     0.0000 
     11 CAQ       179.4920  143.8030  118.7670 C.3       1 Y011203     0.0000 
     12 CBG       180.6890  144.2310  117.9300 C.3       1 Y011203     0.0000 
     13 CBI       180.9480  145.6080  118.4560 C.3       1 Y011203     0.0000 
     14 CAE       179.7960  146.5670  118.1340 C.3       1 Y011203     0.0000 
     15 CAU       182.2300  146.1190  117.8460 C.3       1 Y011203     0.0000 
     16 CAS       182.0220  146.2240  116.3330 C.3       1 Y011203     0.0000 
     17 CBF       181.6070  144.8670  115.7510 C.3       1 Y011203     0.0000 
     18 CBD       180.3740  144.3260  116.4660 C.3       1 Y011203     0.0000 
     19 CAK       180.0630  142.9310  115.9060 C.3       1 Y011203     0.0000 
     20 CAI       180.0200  142.8740  114.5020 C.2       1 Y011203     0.0000 
     21 CAZ       180.6500  143.8220  113.6880 C.2       1 Y011203     0.0000 
     22 CAV       180.5310  143.6740  112.3070 C.3       1 Y011203     0.0000 
     23 CBH       181.3460  144.9400  114.2130 C.3       1 Y011203     0.0000 
     24 CAD       180.5190  146.1800  113.9110 C.3       1 Y011203     0.0000 
     25 CAT       182.6900  145.0870  113.5300 C.3       1 Y011203     0.0000 
     26 CAR       182.5130  145.1820  112.0240 C.3       1 Y011203     0.0000 
     27 CBC       181.8380  143.9050  111.5550 C.3       1 Y011203     0.0000 
     28 OAW       181.5300  144.0200  110.1600 O.3       1 Y011203     0.0000 
     29 CAY       182.6350  143.8470  109.3900 C.2       1 Y011203     0.0000 
     30 OAG       183.6310  144.5650  109.4470 O.2       1 Y011203     0.0000 
     31 CAM       182.5600  142.6720  108.4110 C.3       1 Y011203     0.0000 
     32 CAL       183.6500  142.8170  107.3480 C.3       1 Y011203     0.0000 
     33 CAX       183.1130  142.3600  105.9890 C.2       1 Y011203     0.0000 
     34 OAH       182.1960  141.5110  105.9960 O.co2     1 Y011203     0.0000 
     35 OAF       183.6340  142.8680  104.9740 O.co2     1 Y011203     0.0000 
@<TRIPOS>BOND
     1    1    2 1    
     2    2    3 1    
     3    2    4 1    
     4    4    5 1    
     5    5    6 1    
     6    6    7 1    
     7    7    8 1    
     8    7    9 1    
     9    9   10 1    
    10    9   13 1    
    11   10   11 1    
    12   11   12 1    
    13   12   13 1    
    14   12   18 1    
    15   13   14 1    
    16   13   15 1    
    17   15   16 1    
    18   16   17 1    
    19   17   18 1    
    20   17   23 1    
    21   18   19 1    
    22   19   20 1    
    23   20   21 2    
    24   21   22 1    
    25   21   23 1    
    26   22   27 1    
    27   23   24 1    
    28   23   25 1    
    29   25   26 1    
    30   26   27 1    
    31   27   28 1    
    32   28   29 1    
    33   29   30 2    
    34   29   31 1    
    35   31   32 1    
    36   32   33 1    
    37   33   34 ar   
    38   33   35 ar   
@<TRIPOS>SUBSTRUCTURE
     1 Y011203     1 GROUP   
@<TRIPOS>SET

