#    Name: 6men_1_ADQ
#    Modification time : Fri May 22 19:37:50 2020

@<TRIPOS>MOLECULE
6men_1_ADQ
   38    41     1     0     0
SMALL
NO_CHARGES


@<TRIPOS>ATOM
      1 PB         36.2110   24.0890   49.7640 P.3       1 ADQ500      0.0000 
      2 O1B        37.1940   24.3060   50.7060 O.co2     1 ADQ500      0.0000 
      3 O2B        36.6870   24.4150   48.4860 O.co2     1 ADQ500      0.0000 
      4 O3B        34.9780   24.9820   49.8930 O.3       1 ADQ500      0.0000 
      5 PA         37.0910   21.6020   49.6220 P.3       1 ADQ500      0.0000 
      6 O1A        37.8860   21.8520   50.7250 O.co2     1 ADQ500      0.0000 
      7 O2A        37.7160   21.7020   48.5160 O.co2     1 ADQ500      0.0000 
      8 O3A        35.8450   22.5630   49.6090 O.3       1 ADQ500      0.0000 
      9 O5D        36.3710   20.1560   49.5890 O.3       1 ADQ500      0.0000 
     10 C5D        35.1320   19.5830   50.1520 C.3       1 ADQ500      0.0000 
     11 C4D        34.5740   18.3190   49.5020 C.3       1 ADQ500      0.0000 
     12 O4D        33.6190   17.6330   50.3500 O.3       1 ADQ500      0.0000 
     13 C3D        33.8640   18.4130   48.1330 C.3       1 ADQ500      0.0000 
     14 O3D        34.3620   17.4200   47.2360 O.3       1 ADQ500      0.0000 
     15 C2D        32.4280   18.0030   48.4650 C.3       1 ADQ500      0.0000 
     16 O2D        31.7250   17.4340   47.3700 O.3       1 ADQ500      0.0000 
     17 C1D        32.7790   16.9340   49.4540 C.3       1 ADQ500      0.0000 
     18 N9         31.6970   16.2040   50.1290 N.pl3     1 ADQ500      0.0000 
     19 C8         31.8820   15.1450   50.9820 C.2       1 ADQ500      0.0000 
     20 N7         30.7750   14.6370   51.4630 N.2       1 ADQ500      0.0000 
     21 C5         29.7850   15.4200   50.8890 C.ar      1 ADQ500      0.0000 
     22 C6         28.4050   15.4580   51.0670 C.ar      1 ADQ500      0.0000 
     23 N6         27.7720   14.6840   51.9160 N.pl3     1 ADQ500      0.0000 
     24 N1         27.7030   16.3970   50.3910 N.ar      1 ADQ500      0.0000 
     25 C2         28.3590   17.2590   49.6140 C.ar      1 ADQ500      0.0000 
     26 N3         29.6680   17.3320   49.3700 N.ar      1 ADQ500      0.0000 
     27 C4         30.3390   16.3830   50.0530 C.ar      1 ADQ500      0.0000 
     28 C1'        35.1100   26.2250   50.0150 C.3       1 ADQ500      0.0000 
     29 C2'        33.9370   27.0260   50.5670 C.3       1 ADQ500      0.0000 
     30 C3'        33.0980   27.6520   49.4740 C.3       1 ADQ500      0.0000 
     31 C4'        33.9270   28.5630   48.6590 C.3       1 ADQ500      0.0000 
     32 C5'        35.2130   27.8640   48.2360 C.3       1 ADQ500      0.0000 
     33 C6'        36.3570   28.5580   48.9020 C.3       1 ADQ500      0.0000 
     34 O2'        33.0820   26.1590   51.2770 O.3       1 ADQ500      0.0000 
     35 O3'        32.1400   28.5300   50.0180 O.3       1 ADQ500      0.0000 
     36 O4'        33.1330   29.1870   47.6430 O.3       1 ADQ500      0.0000 
     37 O5'        35.2640   26.4630   48.6200 O.3       1 ADQ500      0.0000 
     38 O6'        36.7030   29.7260   48.2770 O.3       1 ADQ500      0.0000 
@<TRIPOS>BOND
     1    1    2 ar   
     2    1    3 ar   
     3    1    4 1    
     4    1    8 1    
     5    4   28 1    
     6    5    6 ar   
     7    5    7 ar   
     8    5    8 1    
     9    5    9 1    
    10    9   10 1    
    11   10   11 1    
    12   11   12 1    
    13   11   13 1    
    14   12   17 1    
    15   13   14 1    
    16   13   15 1    
    17   15   16 1    
    18   15   17 1    
    19   17   18 1    
    20   18   19 1    
    21   18   27 1    
    22   19   20 2    
    23   20   21 1    
    24   21   22 ar   
    25   21   27 ar   
    26   22   23 1    
    27   22   24 ar   
    28   24   25 ar   
    29   25   26 ar   
    30   26   27 ar   
    31   28   29 1    
    32   28   37 1    
    33   29   30 1    
    34   29   34 1    
    35   30   31 1    
    36   30   35 1    
    37   31   32 1    
    38   31   36 1    
    39   32   33 1    
    40   32   37 1    
    41   33   38 1    
@<TRIPOS>SUBSTRUCTURE
     1 ADQ500      1 GROUP   
@<TRIPOS>SET

