#    Name: 6s6x_7_FAD
#    Modification time : Fri May 22 19:38:06 2020

@<TRIPOS>MOLECULE
6s6x_7_FAD
   53    58     1     0     1
SMALL
NO_CHARGES


@<TRIPOS>ATOM
      1 PA        136.7240  209.9850  165.4620 P.3       1 FAD503      0.0000 
      2 O1A       135.9120  211.1310  164.9670 O.co2     1 FAD503      0.0000 
      3 O2A       136.5960  209.5800  166.8890 O.co2     1 FAD503      0.0000 
      4 O5B       136.4510  208.7230  164.5240 O.3       1 FAD503      0.0000 
      5 C5B       135.0630  208.3610  164.3880 C.3       1 FAD503      0.0000 
      6 C4B       134.7920  207.9350  162.9680 C.3       1 FAD503      0.0000 
      7 O4B       134.9430  206.4970  162.8710 O.3       1 FAD503      0.0000 
      8 C3B       133.3880  208.2390  162.4300 C.3       1 FAD503      0.0000 
      9 O3B       133.4790  208.6180  161.0660 O.3       1 FAD503      0.0000 
     10 C2B       132.7200  206.8670  162.4840 C.3       1 FAD503      0.0000 
     11 O2B       131.6310  206.7470  161.5990 O.3       1 FAD503      0.0000 
     12 C1B       133.8980  205.9980  162.0770 C.3       1 FAD503      0.0000 
     13 N9A       133.6930  204.6110  162.4300 N.pl3     1 FAD503      0.0000 
     14 C8A       133.4150  204.1110  163.6690 C.2       1 FAD503      0.0000 
     15 N7A       133.3020  202.8030  163.6700 N.2       1 FAD503      0.0000 
     16 C5A       133.5200  202.4300  162.3510 C.ar      1 FAD503      0.0000 
     17 C6A       133.5390  201.1830  161.7060 C.ar      1 FAD503      0.0000 
     18 N6A       133.3290  200.0280  162.3290 N.pl3     1 FAD503      0.0000 
     19 N1A       133.7960  201.1720  160.3780 N.ar      1 FAD503      0.0000 
     20 C2A       134.0070  202.3400  159.7590 C.ar      1 FAD503      0.0000 
     21 N3A       134.0160  203.5690  160.2630 N.ar      1 FAD503      0.0000 
     22 C4A       133.7650  203.5420  161.5800 C.ar      1 FAD503      0.0000 
     23 N1        134.5240  213.5350  172.1250 N.2       1 FAD503      0.0000 
     24 C2        133.2520  213.1340  172.2990 C.2       1 FAD503      0.0000 
     25 O2        132.9600  211.9430  172.2620 O.2       1 FAD503      0.0000 
     26 N3        132.2450  214.0040  172.5190 N.am      1 FAD503      0.0000 
     27 C4        132.4580  215.3540  172.5780 C.2       1 FAD503      0.0000 
     28 O4        131.5160  216.1000  172.7770 O.2       1 FAD503      0.0000 
     29 C4X       133.7680  215.8200  172.4030 C.2       1 FAD503      0.0000 
     30 N5        133.9900  217.1040  172.4590 N.2       1 FAD503      0.0000 
     31 C5X       135.2790  217.5230  172.2840 C.ar      1 FAD503      0.0000 
     32 C6        135.5340  218.9010  172.3410 C.ar      1 FAD503      0.0000 
     33 C7        136.8000  219.4000  172.1720 C.ar      1 FAD503      0.0000 
     34 C7M       137.0320  220.8850  172.2390 C.3       1 FAD503      0.0000 
     35 C8        137.8710  218.5140  171.9300 C.ar      1 FAD503      0.0000 
     36 C8M       139.2660  219.0420  171.7370 C.3       1 FAD503      0.0000 
     37 C9        137.6380  217.1590  171.8750 C.ar      1 FAD503      0.0000 
     38 C9A       136.3480  216.6370  172.0500 C.ar      1 FAD503      0.0000 
     39 N10       136.0680  215.2750  171.9920 N.pl3     1 FAD503      0.0000 
     40 C10       134.7780  214.8220  172.1730 C.2       1 FAD503      0.0000 
     41 C1'       137.1500  214.2980  171.7700 C.3       1 FAD503      0.0000 
     42 C2'       137.7050  214.3190  170.3630 C.3       1 FAD503      0.0000 
     43 O2'       136.7720  214.9270  169.5000 O.3       1 FAD503      0.0000 
     44 C3'       137.9130  212.8840  169.8780 C.3       1 FAD503      0.0000 
     45 O3'       138.5970  212.1480  170.8740 O.3       1 FAD503      0.0000 
     46 C4'       138.6890  212.7660  168.5680 C.3       1 FAD503      0.0000 
     47 O4'       138.1510  213.7200  167.6540 O.3       1 FAD503      0.0000 
     48 C5'       138.5650  211.3900  167.9560 C.3       1 FAD503      0.0000 
     49 O5'       139.6170  211.1620  166.9810 O.3       1 FAD503      0.0000 
     50 P         139.5290  209.8870  166.0180 P.3       1 FAD503      0.0000 
     51 O1P       140.7350  209.8190  165.1500 O.co2     1 FAD503      0.0000 
     52 O2P       139.1630  208.6930  166.8220 O.co2     1 FAD503      0.0000 
     53 O3P       138.2580  210.2710  165.1390 O.3       1 FAD503      0.0000 
@<TRIPOS>BOND
     1    1    2 ar   
     2    1    3 ar   
     3    1    4 1    
     4    1   53 1    
     5    4    5 1    
     6    5    6 1    
     7    6    7 1    
     8    6    8 1    
     9    7   12 1    
    10    8    9 1    
    11    8   10 1    
    12   10   11 1    
    13   10   12 1    
    14   12   13 1    
    15   13   14 1    
    16   13   22 1    
    17   14   15 2    
    18   15   16 1    
    19   16   17 ar   
    20   16   22 ar   
    21   17   18 1    
    22   17   19 ar   
    23   19   20 ar   
    24   20   21 ar   
    25   21   22 ar   
    26   23   24 1    
    27   23   40 2    
    28   24   25 2    
    29   24   26 am   
    30   26   27 am   
    31   27   28 2    
    32   27   29 1    
    33   29   30 2    
    34   29   40 1    
    35   30   31 1    
    36   31   32 ar   
    37   31   38 ar   
    38   32   33 ar   
    39   33   34 1    
    40   33   35 ar   
    41   35   36 1    
    42   35   37 ar   
    43   37   38 ar   
    44   38   39 1    
    45   39   40 1    
    46   39   41 1    
    47   41   42 1    
    48   42   43 1    
    49   42   44 1    
    50   44   45 1    
    51   44   46 1    
    52   46   47 1    
    53   46   48 1    
    54   48   49 1    
    55   49   50 1    
    56   50   51 ar   
    57   50   52 ar   
    58   50   53 1    
@<TRIPOS>SUBSTRUCTURE
     1 FAD503      1 GROUP   
@<TRIPOS>SET
ATOM$ORANGE STATIC     ATOMS   COLORGROUP SYSTEM 
54 5 5 6 6 8 8 10 10 12 12 14 14 16 16 17 17 20 \
20 22 22 24 24 27 27 29 29 31 31 32 32 33 33 34 34 35 \
35 36 36 37 37 38 38 40 40 41 41 42 42 44 44 46 46 48 \
48 

