#    Name: 6s6x_2_FMN
#    Modification time : Fri May 22 19:36:50 2020

@<TRIPOS>MOLECULE
6s6x_2_FMN
   31    33     1     0     1
SMALL
NO_CHARGES


@<TRIPOS>ATOM
      1 N1        167.7350  220.3730  251.9790 N.2       1 FMN1501     0.0000 
      2 C2        167.5940  220.2910  250.6100 C.2       1 FMN1501     0.0000 
      3 O2        168.2880  219.5070  249.9680 O.2       1 FMN1501     0.0000 
      4 N3        166.6770  221.0850  249.9570 N.am      1 FMN1501     0.0000 
      5 C4        165.8960  221.9640  250.6720 C.2       1 FMN1501     0.0000 
      6 O4        165.0780  222.6720  250.0930 O.2       1 FMN1501     0.0000 
      7 C4A       166.0330  222.0490  252.0480 C.2       1 FMN1501     0.0000 
      8 N5        165.2520  222.9290  252.7610 N.2       1 FMN1501     0.0000 
      9 C5A       165.3910  223.0130  254.1280 C.ar      1 FMN1501     0.0000 
     10 C6        164.6050  223.8990  254.8500 C.ar      1 FMN1501     0.0000 
     11 C7        164.7450  223.9840  256.2270 C.ar      1 FMN1501     0.0000 
     12 C7M       163.8960  224.9400  257.0050 C.3       1 FMN1501     0.0000 
     13 C8        165.6690  223.1850  256.8820 C.ar      1 FMN1501     0.0000 
     14 C8M       165.8220  223.2730  258.3690 C.3       1 FMN1501     0.0000 
     15 C9        166.4530  222.2990  256.1590 C.ar      1 FMN1501     0.0000 
     16 C9A       166.3150  222.2140  254.7810 C.ar      1 FMN1501     0.0000 
     17 N10       167.0990  221.3370  254.0660 N.pl3     1 FMN1501     0.0000 
     18 C10       166.9530  221.2450  252.7010 C.2       1 FMN1501     0.0000 
     19 C1'       168.0890  220.4770  254.7890 C.3       1 FMN1501     0.0000 
     20 C2'       169.4460  221.1620  254.7460 C.3       1 FMN1501     0.0000 
     21 O2'       169.8670  221.2550  253.4060 O.3       1 FMN1501     0.0000 
     22 C3'       170.4910  220.3920  255.5350 C.3       1 FMN1501     0.0000 
     23 O3'       170.5220  219.0540  255.0990 O.3       1 FMN1501     0.0000 
     24 C4'       170.1400  220.4360  257.0120 C.3       1 FMN1501     0.0000 
     25 O4'       169.7240  221.7390  257.3430 O.3       1 FMN1501     0.0000 
     26 C5'       171.3290  220.0560  257.8810 C.3       1 FMN1501     0.0000 
     27 O5'       170.8890  219.9630  259.2150 O.3       1 FMN1501     0.0000 
     28 P         171.7090  220.7090  260.3770 P.3       1 FMN1501     0.0000 
     29 O1P       171.4060  222.1810  260.2780 O.co2     1 FMN1501     0.0000 
     30 O2P       171.2730  220.1910  261.7240 O.co2     1 FMN1501     0.0000 
     31 O3P       173.1880  220.4880  260.1990 O.co2     1 FMN1501     0.0000 
@<TRIPOS>BOND
     1    1    2 1    
     2    1   18 2    
     3    2    3 2    
     4    2    4 am   
     5    4    5 am   
     6    5    6 2    
     7    5    7 1    
     8    7    8 2    
     9    7   18 1    
    10    8    9 1    
    11    9   10 ar   
    12    9   16 ar   
    13   10   11 ar   
    14   11   12 1    
    15   11   13 ar   
    16   13   14 1    
    17   13   15 ar   
    18   15   16 ar   
    19   16   17 1    
    20   17   18 1    
    21   17   19 1    
    22   19   20 1    
    23   20   21 1    
    24   20   22 1    
    25   22   23 1    
    26   22   24 1    
    27   24   25 1    
    28   24   26 1    
    29   26   27 1    
    30   27   28 1    
    31   28   29 ar   
    32   28   30 ar   
    33   28   31 ar   
@<TRIPOS>SUBSTRUCTURE
     1 FMN1501     1 GROUP   
@<TRIPOS>SET
ATOM$ORANGE STATIC     ATOMS   COLORGROUP SYSTEM 
34 2 2 5 5 7 7 9 9 10 10 11 11 12 12 13 13 14 \
14 15 15 16 16 18 18 19 19 20 20 22 22 24 24 26 26 

