#    Name: 6s6x_12_FAD
#    Modification time : Fri May 22 19:38:50 2020

@<TRIPOS>MOLECULE
6s6x_12_FAD
   53    58     1     0     1
SMALL
NO_CHARGES


@<TRIPOS>ATOM
      1 PA        282.3020  207.5890  306.7590 P.3       1 FAD503      0.0000 
      2 O1A       283.4320  207.1810  305.8770 O.co2     1 FAD503      0.0000 
      3 O2A       281.3760  206.5420  307.2800 O.co2     1 FAD503      0.0000 
      4 O5B       282.8710  208.4330  307.9900 O.3       1 FAD503      0.0000 
      5 C5B       282.0020  208.6420  309.1230 C.3       1 FAD503      0.0000 
      6 C4B       282.8150  209.2270  310.2490 C.3       1 FAD503      0.0000 
      7 O4B       281.9000  209.7020  311.2660 O.3       1 FAD503      0.0000 
      8 C3B       283.7770  208.2720  310.9720 C.3       1 FAD503      0.0000 
      9 O3B       285.0120  208.9390  311.1930 O.3       1 FAD503      0.0000 
     10 C2B       283.0800  208.0370  312.3160 C.3       1 FAD503      0.0000 
     11 O2B       283.9520  207.6830  313.3670 O.3       1 FAD503      0.0000 
     12 C1B       282.4260  209.3940  312.5320 C.3       1 FAD503      0.0000 
     13 N9A       281.3010  209.3660  313.4380 N.pl3     1 FAD503      0.0000 
     14 C8A       280.1570  208.6250  313.3080 C.2       1 FAD503      0.0000 
     15 N7A       279.2970  208.8530  314.2720 N.2       1 FAD503      0.0000 
     16 C5A       279.9090  209.8160  315.0650 C.ar      1 FAD503      0.0000 
     17 C6A       279.5030  210.4800  316.2360 C.ar      1 FAD503      0.0000 
     18 N6A       278.3290  210.2770  316.8250 N.pl3     1 FAD503      0.0000 
     19 N1A       280.3560  211.3910  316.7630 N.ar      1 FAD503      0.0000 
     20 C2A       281.5310  211.5980  316.1530 C.ar      1 FAD503      0.0000 
     21 N3A       282.0170  211.0330  315.0510 N.ar      1 FAD503      0.0000 
     22 C4A       281.1440  210.1430  314.5520 C.ar      1 FAD503      0.0000 
     23 N1        280.7710  200.7160  302.6920 N.2       1 FAD503      0.0000 
     24 C2        280.7440  199.7090  303.5890 C.2       1 FAD503      0.0000 
     25 O2        279.9890  199.7490  304.5580 O.2       1 FAD503      0.0000 
     26 N3        281.5400  198.6160  303.4710 N.am      1 FAD503      0.0000 
     27 C4        282.4200  198.4680  302.4290 C.2       1 FAD503      0.0000 
     28 O4        283.1160  197.4660  302.3600 O.2       1 FAD503      0.0000 
     29 C4X       282.4770  199.4970  301.4710 C.2       1 FAD503      0.0000 
     30 N5        283.3080  199.3740  300.4730 N.2       1 FAD503      0.0000 
     31 C5X       283.3410  200.3900  299.5560 C.ar      1 FAD503      0.0000 
     32 C6        284.2270  200.2620  298.4750 C.ar      1 FAD503      0.0000 
     33 C7        284.3210  201.2320  297.5090 C.ar      1 FAD503      0.0000 
     34 C7M       285.2900  201.0570  296.3710 C.3       1 FAD503      0.0000 
     35 C8        283.5070  202.3870  297.5990 C.ar      1 FAD503      0.0000 
     36 C8M       283.6000  203.4650  296.5490 C.3       1 FAD503      0.0000 
     37 C9        282.6280  202.5240  298.6580 C.ar      1 FAD503      0.0000 
     38 C9A       282.5240  201.5370  299.6520 C.ar      1 FAD503      0.0000 
     39 N10       281.6510  201.6300  300.7360 N.pl3     1 FAD503      0.0000 
     40 C10       281.5980  200.6190  301.6750 C.2       1 FAD503      0.0000 
     41 C1'       280.7720  202.8020  300.9030 C.3       1 FAD503      0.0000 
     42 C2'       281.4380  204.1060  300.5150 C.3       1 FAD503      0.0000 
     43 O2'       282.7550  204.1410  301.0450 O.3       1 FAD503      0.0000 
     44 C3'       280.6660  205.3180  301.0470 C.3       1 FAD503      0.0000 
     45 O3'       279.3050  204.9700  301.2700 O.3       1 FAD503      0.0000 
     46 C4'       281.2470  205.9900  302.2930 C.3       1 FAD503      0.0000 
     47 O4'       282.6690  205.8730  302.2480 O.3       1 FAD503      0.0000 
     48 C5'       280.9170  207.4640  302.3370 C.3       1 FAD503      0.0000 
     49 O5'       281.4270  208.0960  303.5450 O.3       1 FAD503      0.0000 
     50 P         280.4190  208.4150  304.7510 P.3       1 FAD503      0.0000 
     51 O1P       279.6570  207.1750  305.0650 O.co2     1 FAD503      0.0000 
     52 O2P       279.6810  209.6730  304.4430 O.co2     1 FAD503      0.0000 
     53 O3P       281.4210  208.6710  305.9750 O.3       1 FAD503      0.0000 
@<TRIPOS>BOND
     1    1    2 ar   
     2    1    3 ar   
     3    1    4 1    
     4    1   53 1    
     5    4    5 1    
     6    5    6 1    
     7    6    7 1    
     8    6    8 1    
     9    7   12 1    
    10    8    9 1    
    11    8   10 1    
    12   10   11 1    
    13   10   12 1    
    14   12   13 1    
    15   13   14 1    
    16   13   22 1    
    17   14   15 2    
    18   15   16 1    
    19   16   17 ar   
    20   16   22 ar   
    21   17   18 1    
    22   17   19 ar   
    23   19   20 ar   
    24   20   21 ar   
    25   21   22 ar   
    26   23   24 1    
    27   23   40 2    
    28   24   25 2    
    29   24   26 am   
    30   26   27 am   
    31   27   28 2    
    32   27   29 1    
    33   29   30 2    
    34   29   40 1    
    35   30   31 1    
    36   31   32 ar   
    37   31   38 ar   
    38   32   33 ar   
    39   33   34 1    
    40   33   35 ar   
    41   35   36 1    
    42   35   37 ar   
    43   37   38 ar   
    44   38   39 1    
    45   39   40 1    
    46   39   41 1    
    47   41   42 1    
    48   42   43 1    
    49   42   44 1    
    50   44   45 1    
    51   44   46 1    
    52   46   47 1    
    53   46   48 1    
    54   48   49 1    
    55   49   50 1    
    56   50   51 ar   
    57   50   52 ar   
    58   50   53 1    
@<TRIPOS>SUBSTRUCTURE
     1 FAD503      1 GROUP   
@<TRIPOS>SET
ATOM$ORANGE STATIC     ATOMS   COLORGROUP SYSTEM 
54 5 5 6 6 8 8 10 10 12 12 14 14 16 16 17 17 20 \
20 22 22 24 24 27 27 29 29 31 31 32 32 33 33 34 34 35 \
35 36 36 37 37 38 38 40 40 41 41 42 42 44 44 46 46 48 \
48 

