#    Name: 6s6x_9_FAD
#    Modification time : Fri May 22 19:38:24 2020

@<TRIPOS>MOLECULE
6s6x_9_FAD
   53    58     1     0     1
SMALL
NO_CHARGES


@<TRIPOS>ATOM
      1 PA        227.4370  318.0650  192.9430 P.3       1 FAD503      0.0000 
      2 O1A       226.1340  318.4780  193.5300 O.co2     1 FAD503      0.0000 
      3 O2A       227.4490  317.2280  191.7110 O.co2     1 FAD503      0.0000 
      4 O5B       228.3520  319.3550  192.7220 O.3       1 FAD503      0.0000 
      5 C5B       229.5940  319.2110  192.0030 C.3       1 FAD503      0.0000 
      6 C4B       230.1540  320.5850  191.7410 C.3       1 FAD503      0.0000 
      7 O4B       231.2620  320.4600  190.8140 O.3       1 FAD503      0.0000 
      8 C3B       229.1970  321.5980  191.0990 C.3       1 FAD503      0.0000 
      9 O3B       229.4810  322.8950  191.6010 O.3       1 FAD503      0.0000 
     10 C2B       229.6320  321.5590  189.6340 C.3       1 FAD503      0.0000 
     11 O2B       229.2510  322.7040  188.9070 O.3       1 FAD503      0.0000 
     12 C1B       231.1350  321.4530  189.8300 C.3       1 FAD503      0.0000 
     13 N9A       231.8480  320.9950  188.6650 N.pl3     1 FAD503      0.0000 
     14 C8A       231.3860  320.1870  187.6630 C.2       1 FAD503      0.0000 
     15 N7A       232.2980  319.9490  186.7490 N.2       1 FAD503      0.0000 
     16 C5A       233.4190  320.6440  187.1820 C.ar      1 FAD503      0.0000 
     17 C6A       234.7130  320.7920  186.6540 C.ar      1 FAD503      0.0000 
     18 N6A       235.1190  320.2220  185.5240 N.pl3     1 FAD503      0.0000 
     19 N1A       235.5860  321.5550  187.3510 N.ar      1 FAD503      0.0000 
     20 C2A       235.1720  322.1270  188.4890 C.ar      1 FAD503      0.0000 
     21 N3A       233.9840  322.0580  189.0800 N.ar      1 FAD503      0.0000 
     22 C4A       233.1480  321.2890  188.3660 C.ar      1 FAD503      0.0000 
     23 N1        220.0580  315.3590  191.7110 N.2       1 FAD503      0.0000 
     24 C2        219.7050  316.0130  190.5900 C.2       1 FAD503      0.0000 
     25 O2        220.4190  315.9810  189.5880 O.2       1 FAD503      0.0000 
     26 N3        218.5620  316.7300  190.5060 N.am      1 FAD503      0.0000 
     27 C4        217.6930  316.8340  191.5560 C.2       1 FAD503      0.0000 
     28 O4        216.6760  317.4940  191.4340 O.2       1 FAD503      0.0000 
     29 C4X       218.0170  316.1680  192.7370 C.2       1 FAD503      0.0000 
     30 N5        217.1940  316.2520  193.7400 N.2       1 FAD503      0.0000 
     31 C5X       217.5320  315.5810  194.8820 C.ar      1 FAD503      0.0000 
     32 C6        216.6460  315.6610  195.9650 C.ar      1 FAD503      0.0000 
     33 C7        216.9050  315.0190  197.1450 C.ar      1 FAD503      0.0000 
     34 C7M       215.9230  315.1340  198.2770 C.3       1 FAD503      0.0000 
     35 C8        218.0890  314.2610  197.2800 C.ar      1 FAD503      0.0000 
     36 C8M       218.3930  313.5520  198.5730 C.3       1 FAD503      0.0000 
     37 C9        218.9720  314.1750  196.2240 C.ar      1 FAD503      0.0000 
     38 C9A       218.7160  314.8290  195.0090 C.ar      1 FAD503      0.0000 
     39 N10       219.5710  314.7670  193.9110 N.pl3     1 FAD503      0.0000 
     40 C10       219.2500  315.4280  192.7440 C.2       1 FAD503      0.0000 
     41 C1'       220.8290  313.9980  193.9680 C.3       1 FAD503      0.0000 
     42 C2'       221.6000  314.2200  195.2530 C.3       1 FAD503      0.0000 
     43 O2'       221.5040  315.5900  195.5900 O.3       1 FAD503      0.0000 
     44 C3'       223.0860  313.8740  195.1020 C.3       1 FAD503      0.0000 
     45 O3'       223.2590  312.9240  194.0640 O.3       1 FAD503      0.0000 
     46 C4'       223.9980  315.0740  194.8480 C.3       1 FAD503      0.0000 
     47 O4'       223.6330  316.1190  195.7470 O.3       1 FAD503      0.0000 
     48 C5'       225.4610  314.7510  195.0450 C.3       1 FAD503      0.0000 
     49 O5'       226.2540  315.9350  194.7530 O.3       1 FAD503      0.0000 
     50 P         227.8440  315.8120  194.6050 P.3       1 FAD503      0.0000 
     51 O1P       228.4610  315.5570  195.9350 O.co2     1 FAD503      0.0000 
     52 O2P       228.1440  314.8810  193.4890 O.co2     1 FAD503      0.0000 
     53 O3P       228.2130  317.2760  194.0920 O.3       1 FAD503      0.0000 
@<TRIPOS>BOND
     1    1    2 ar   
     2    1    3 ar   
     3    1    4 1    
     4    1   53 1    
     5    4    5 1    
     6    5    6 1    
     7    6    7 1    
     8    6    8 1    
     9    7   12 1    
    10    8    9 1    
    11    8   10 1    
    12   10   11 1    
    13   10   12 1    
    14   12   13 1    
    15   13   14 1    
    16   13   22 1    
    17   14   15 2    
    18   15   16 1    
    19   16   17 ar   
    20   16   22 ar   
    21   17   18 1    
    22   17   19 ar   
    23   19   20 ar   
    24   20   21 ar   
    25   21   22 ar   
    26   23   24 1    
    27   23   40 2    
    28   24   25 2    
    29   24   26 am   
    30   26   27 am   
    31   27   28 2    
    32   27   29 1    
    33   29   30 2    
    34   29   40 1    
    35   30   31 1    
    36   31   32 ar   
    37   31   38 ar   
    38   32   33 ar   
    39   33   34 1    
    40   33   35 ar   
    41   35   36 1    
    42   35   37 ar   
    43   37   38 ar   
    44   38   39 1    
    45   39   40 1    
    46   39   41 1    
    47   41   42 1    
    48   42   43 1    
    49   42   44 1    
    50   44   45 1    
    51   44   46 1    
    52   46   47 1    
    53   46   48 1    
    54   48   49 1    
    55   49   50 1    
    56   50   51 ar   
    57   50   52 ar   
    58   50   53 1    
@<TRIPOS>SUBSTRUCTURE
     1 FAD503      1 GROUP   
@<TRIPOS>SET
ATOM$ORANGE STATIC     ATOMS   COLORGROUP SYSTEM 
54 5 5 6 6 8 8 10 10 12 12 14 14 16 16 17 17 20 \
20 22 22 24 24 27 27 29 29 31 31 32 32 33 33 34 34 35 \
35 36 36 37 37 38 38 40 40 41 41 42 42 44 44 46 46 48 \
48 

