#    Name: 6s6x_10_FAD
#    Modification time : Fri May 22 19:38:33 2020

@<TRIPOS>MOLECULE
6s6x_10_FAD
   53    58     1     0     1
SMALL
NO_CHARGES


@<TRIPOS>ATOM
      1 PA        302.7260  229.2200  165.3360 P.3       1 FAD503      0.0000 
      2 O1A       303.0960  230.0340  166.5270 O.co2     1 FAD503      0.0000 
      3 O2A       302.9750  227.7540  165.3880 O.co2     1 FAD503      0.0000 
      4 O5B       303.4400  229.8290  164.0450 O.3       1 FAD503      0.0000 
      5 C5B       303.3530  231.2480  163.7930 C.3       1 FAD503      0.0000 
      6 C4B       304.1560  231.5640  162.5580 C.3       1 FAD503      0.0000 
      7 O4B       304.1710  233.0010  162.3750 O.3       1 FAD503      0.0000 
      8 C3B       305.6330  231.1440  162.5790 C.3       1 FAD503      0.0000 
      9 O3B       306.0400  230.7600  161.2740 O.3       1 FAD503      0.0000 
     10 C2B       306.3300  232.4650  162.8990 C.3       1 FAD503      0.0000 
     11 O2B       307.6900  232.4870  162.5340 O.3       1 FAD503      0.0000 
     12 C1B       305.4790  233.3950  162.0520 C.3       1 FAD503      0.0000 
     13 N9A       305.6160  234.7910  162.4020 N.pl3     1 FAD503      0.0000 
     14 C8A       305.8930  235.3120  163.6340 C.2       1 FAD503      0.0000 
     15 N7A       305.9410  236.6240  163.6250 N.2       1 FAD503      0.0000 
     16 C5A       305.6900  236.9770  162.3070 C.ar      1 FAD503      0.0000 
     17 C6A       305.6080  238.2170  161.6520 C.ar      1 FAD503      0.0000 
     18 N6A       305.7740  239.3850  162.2630 N.pl3     1 FAD503      0.0000 
     19 N1A       305.3380  238.2050  160.3270 N.ar      1 FAD503      0.0000 
     20 C2A       305.1720  237.0240  159.7200 C.ar      1 FAD503      0.0000 
     21 N3A       305.2240  235.7990  160.2330 N.ar      1 FAD503      0.0000 
     22 C4A       305.4890  235.8490  161.5460 C.ar      1 FAD503      0.0000 
     23 N1        304.8360  225.8140  172.1060 N.2       1 FAD503      0.0000 
     24 C2        306.1100  226.1950  172.2950 C.2       1 FAD503      0.0000 
     25 O2        306.4230  227.3800  172.2500 O.2       1 FAD503      0.0000 
     26 N3        307.0970  225.3090  172.5390 N.am      1 FAD503      0.0000 
     27 C4        306.8600  223.9640  172.6120 C.2       1 FAD503      0.0000 
     28 O4        307.7870  223.2060  172.8280 O.2       1 FAD503      0.0000 
     29 C4X       305.5450  223.5180  172.4180 C.2       1 FAD503      0.0000 
     30 N5        305.2980  222.2390  172.4830 N.2       1 FAD503      0.0000 
     31 C5X       304.0040  221.8420  172.2850 C.ar      1 FAD503      0.0000 
     32 C6        303.7210  220.4700  172.3470 C.ar      1 FAD503      0.0000 
     33 C7        302.4480  219.9950  172.1540 C.ar      1 FAD503      0.0000 
     34 C7M       302.1840  218.5160  172.2250 C.3       1 FAD503      0.0000 
     35 C8        301.4000  220.9000  171.8860 C.ar      1 FAD503      0.0000 
     36 C8M       299.9980  220.3970  171.6680 C.3       1 FAD503      0.0000 
     37 C9        301.6610  222.2500  171.8270 C.ar      1 FAD503      0.0000 
     38 C9A       302.9580  222.7480  172.0190 C.ar      1 FAD503      0.0000 
     39 N10       303.2640  224.1040  171.9680 N.pl3     1 FAD503      0.0000 
     40 C10       304.5590  224.5320  172.1620 C.2       1 FAD503      0.0000 
     41 C1'       302.2150  225.1040  171.6990 C.3       1 FAD503      0.0000 
     42 C2'       301.4770  224.8690  170.4030 C.3       1 FAD503      0.0000 
     43 O2'       302.3580  224.2980  169.4630 O.3       1 FAD503      0.0000 
     44 C3'       301.0240  226.2240  169.8590 C.3       1 FAD503      0.0000 
     45 O3'       300.0660  226.8080  170.7170 O.3       1 FAD503      0.0000 
     46 C4'       300.5020  226.2210  168.4240 C.3       1 FAD503      0.0000 
     47 O4'       301.5620  225.8300  167.5540 O.3       1 FAD503      0.0000 
     48 C5'       299.9570  227.5710  168.0160 C.3       1 FAD503      0.0000 
     49 O5'       300.2130  227.8460  166.6130 O.3       1 FAD503      0.0000 
     50 P         300.0010  229.3330  166.0600 P.3       1 FAD503      0.0000 
     51 O1P       298.6710  229.4770  165.4090 O.co2     1 FAD503      0.0000 
     52 O2P       300.3620  230.2530  167.1660 O.co2     1 FAD503      0.0000 
     53 O3P       301.1830  229.4420  164.9990 O.3       1 FAD503      0.0000 
@<TRIPOS>BOND
     1    1    2 ar   
     2    1    3 ar   
     3    1    4 1    
     4    1   53 1    
     5    4    5 1    
     6    5    6 1    
     7    6    7 1    
     8    6    8 1    
     9    7   12 1    
    10    8    9 1    
    11    8   10 1    
    12   10   11 1    
    13   10   12 1    
    14   12   13 1    
    15   13   14 1    
    16   13   22 1    
    17   14   15 2    
    18   15   16 1    
    19   16   17 ar   
    20   16   22 ar   
    21   17   18 1    
    22   17   19 ar   
    23   19   20 ar   
    24   20   21 ar   
    25   21   22 ar   
    26   23   24 1    
    27   23   40 2    
    28   24   25 2    
    29   24   26 am   
    30   26   27 am   
    31   27   28 2    
    32   27   29 1    
    33   29   30 2    
    34   29   40 1    
    35   30   31 1    
    36   31   32 ar   
    37   31   38 ar   
    38   32   33 ar   
    39   33   34 1    
    40   33   35 ar   
    41   35   36 1    
    42   35   37 ar   
    43   37   38 ar   
    44   38   39 1    
    45   39   40 1    
    46   39   41 1    
    47   41   42 1    
    48   42   43 1    
    49   42   44 1    
    50   44   45 1    
    51   44   46 1    
    52   46   47 1    
    53   46   48 1    
    54   48   49 1    
    55   49   50 1    
    56   50   51 ar   
    57   50   52 ar   
    58   50   53 1    
@<TRIPOS>SUBSTRUCTURE
     1 FAD503      1 GROUP   
@<TRIPOS>SET
ATOM$ORANGE STATIC     ATOMS   COLORGROUP SYSTEM 
54 5 5 6 6 8 8 10 10 12 12 14 14 16 16 17 17 20 \
20 22 22 24 24 27 27 29 29 31 31 32 32 33 33 34 34 35 \
35 36 36 37 37 38 38 40 40 41 41 42 42 44 44 46 46 48 \
48 

