#    Name: 6s6x_3_FMN
#    Modification time : Fri May 22 19:37:07 2020

@<TRIPOS>MOLECULE
6s6x_3_FMN
   31    33     1     0     1
SMALL
NO_CHARGES


@<TRIPOS>ATOM
      1 N1        214.4950  279.0070  232.0090 N.2       1 FMN1501     0.0000 
      2 C2        213.8860  278.3690  233.0670 C.2       1 FMN1501     0.0000 
      3 O2        214.4370  277.4110  233.6050 O.2       1 FMN1501     0.0000 
      4 N3        212.6610  278.7990  233.5270 N.am      1 FMN1501     0.0000 
      5 C4        212.0400  279.8710  232.9290 C.2       1 FMN1501     0.0000 
      6 O4        210.9480  280.2570  233.3370 O.2       1 FMN1501     0.0000 
      7 C4A       212.6480  280.5160  231.8650 C.2       1 FMN1501     0.0000 
      8 N5        212.0250  281.5880  231.2680 N.2       1 FMN1501     0.0000 
      9 C5A       212.6300  282.2280  230.2100 C.ar      1 FMN1501     0.0000 
     10 C6        212.0050  283.3080  229.6060 C.ar      1 FMN1501     0.0000 
     11 C7        212.6150  283.9530  228.5400 C.ar      1 FMN1501     0.0000 
     12 C7M       211.9390  285.1190  227.8890 C.3       1 FMN1501     0.0000 
     13 C8        213.8470  283.5180  228.0780 C.ar      1 FMN1501     0.0000 
     14 C8M       214.5090  284.2120  226.9270 C.3       1 FMN1501     0.0000 
     15 C9        214.4720  282.4380  228.6830 C.ar      1 FMN1501     0.0000 
     16 C9A       213.8630  281.7920  229.7490 C.ar      1 FMN1501     0.0000 
     17 N10       214.4820  280.7170  230.3450 N.pl3     1 FMN1501     0.0000 
     18 C10       213.8820  280.0840  231.4100 C.2       1 FMN1501     0.0000 
     19 C1'       215.8160  280.2620  229.8380 C.3       1 FMN1501     0.0000 
     20 C2'       215.6000  279.1260  228.8490 C.3       1 FMN1501     0.0000 
     21 O2'       215.0130  278.0370  229.5220 O.3       1 FMN1501     0.0000 
     22 C3'       216.9100  278.6720  228.2280 C.3       1 FMN1501     0.0000 
     23 O3'       217.8350  278.3690  229.2450 O.3       1 FMN1501     0.0000 
     24 C4'       217.4640  279.7830  227.3530 C.3       1 FMN1501     0.0000 
     25 O4'       216.4100  280.3480  226.6110 O.3       1 FMN1501     0.0000 
     26 C5'       218.5270  279.2650  226.3970 C.3       1 FMN1501     0.0000 
     27 O5'       219.1030  280.3650  225.7360 O.3       1 FMN1501     0.0000 
     28 P         219.2560  280.3390  224.1370 P.3       1 FMN1501     0.0000 
     29 O1P       217.8920  280.5700  223.5440 O.co2     1 FMN1501     0.0000 
     30 O2P       220.1900  281.4360  223.6950 O.co2     1 FMN1501     0.0000 
     31 O3P       219.7840  279.0040  223.6810 O.co2     1 FMN1501     0.0000 
@<TRIPOS>BOND
     1    1    2 1    
     2    1   18 2    
     3    2    3 2    
     4    2    4 am   
     5    4    5 am   
     6    5    6 2    
     7    5    7 1    
     8    7    8 2    
     9    7   18 1    
    10    8    9 1    
    11    9   10 ar   
    12    9   16 ar   
    13   10   11 ar   
    14   11   12 1    
    15   11   13 ar   
    16   13   14 1    
    17   13   15 ar   
    18   15   16 ar   
    19   16   17 1    
    20   17   18 1    
    21   17   19 1    
    22   19   20 1    
    23   20   21 1    
    24   20   22 1    
    25   22   23 1    
    26   22   24 1    
    27   24   25 1    
    28   24   26 1    
    29   26   27 1    
    30   27   28 1    
    31   28   29 ar   
    32   28   30 ar   
    33   28   31 ar   
@<TRIPOS>SUBSTRUCTURE
     1 FMN1501     1 GROUP   
@<TRIPOS>SET
ATOM$ORANGE STATIC     ATOMS   COLORGROUP SYSTEM 
34 2 2 5 5 7 7 9 9 10 10 11 11 12 12 13 13 14 \
14 15 15 16 16 18 18 19 19 20 20 22 22 24 24 26 26 

