#    Name: 6s6x_11_FAD
#    Modification time : Fri May 22 19:38:41 2020

@<TRIPOS>MOLECULE
6s6x_11_FAD
   53    58     1     0     1
SMALL
NO_CHARGES


@<TRIPOS>ATOM
      1 PA        211.8270  121.4310  193.1580 P.3       1 FAD503      0.0000 
      2 O1A       212.0850  122.4760  192.1290 O.co2     1 FAD503      0.0000 
      3 O2A       212.9670  120.6320  193.6880 O.co2     1 FAD503      0.0000 
      4 O5B       210.6900  120.4510  192.6260 O.3       1 FAD503      0.0000 
      5 C5B       210.9080  119.8850  191.3250 C.3       1 FAD503      0.0000 
      6 C4B       210.1110  118.6140  191.2180 C.3       1 FAD503      0.0000 
      7 O4B       208.7180  118.9070  190.9670 O.3       1 FAD503      0.0000 
      8 C3B       210.4530  117.6790  190.0610 C.3       1 FAD503      0.0000 
      9 O3B       211.6800  116.9990  190.2860 O.3       1 FAD503      0.0000 
     10 C2B       209.2510  116.7510  190.1800 C.3       1 FAD503      0.0000 
     11 O2B       209.4470  116.0730  191.4000 O.3       1 FAD503      0.0000 
     12 C1B       208.1250  117.7610  190.4010 C.3       1 FAD503      0.0000 
     13 N9A       207.4750  118.1680  189.1740 N.pl3     1 FAD503      0.0000 
     14 C8A       207.9700  118.9930  188.2040 C.2       1 FAD503      0.0000 
     15 N7A       207.1220  119.1810  187.2190 N.2       1 FAD503      0.0000 
     16 C5A       206.0050  118.4360  187.5720 C.ar      1 FAD503      0.0000 
     17 C6A       204.7640  118.2240  186.9450 C.ar      1 FAD503      0.0000 
     18 N6A       204.4200  118.7680  185.7830 N.pl3     1 FAD503      0.0000 
     19 N1A       203.8760  117.4240  187.5800 N.ar      1 FAD503      0.0000 
     20 C2A       204.2280  116.8780  188.7500 C.ar      1 FAD503      0.0000 
     21 N3A       205.3620  117.0060  189.4310 N.ar      1 FAD503      0.0000 
     22 C4A       206.2160  117.8100  188.7790 C.ar      1 FAD503      0.0000 
     23 N1        219.2660  123.9720  191.8620 N.2       1 FAD503      0.0000 
     24 C2        219.5560  123.3000  190.7340 C.2       1 FAD503      0.0000 
     25 O2        218.8250  123.3780  189.7480 O.2       1 FAD503      0.0000 
     26 N3        220.6530  122.5160  190.6240 N.am      1 FAD503      0.0000 
     27 C4        221.5350  122.3560  191.6570 C.2       1 FAD503      0.0000 
     28 O4        222.5110  121.6390  191.5140 O.2       1 FAD503      0.0000 
     29 C4X       221.2750  123.0390  192.8440 C.2       1 FAD503      0.0000 
     30 N5        222.1120  122.9030  193.8310 N.2       1 FAD503      0.0000 
     31 C5X       221.8390  123.5910  194.9800 C.ar      1 FAD503      0.0000 
     32 C6        222.7370  123.4600  196.0460 C.ar      1 FAD503      0.0000 
     33 C7        222.5370  124.1200  197.2280 C.ar      1 FAD503      0.0000 
     34 C7M       223.5350  123.9490  198.3390 C.3       1 FAD503      0.0000 
     35 C8        221.3990  124.9450  197.3850 C.ar      1 FAD503      0.0000 
     36 C8M       221.1530  125.6730  198.6790 C.3       1 FAD503      0.0000 
     37 C9        220.5080  125.0820  196.3460 C.ar      1 FAD503      0.0000 
     38 C9A       220.7080  124.4160  195.1290 C.ar      1 FAD503      0.0000 
     39 N10       219.8330  124.5240  194.0530 N.pl3     1 FAD503      0.0000 
     40 C10       220.0890  123.8520  192.8780 C.2       1 FAD503      0.0000 
     41 C1'       218.6400  125.3850  194.1480 C.3       1 FAD503      0.0000 
     42 C2'       217.6070  124.8410  195.1090 C.3       1 FAD503      0.0000 
     43 O2'       217.8360  123.4610  195.3090 O.3       1 FAD503      0.0000 
     44 C3'       216.2010  125.0010  194.5280 C.3       1 FAD503      0.0000 
     45 O3'       215.9010  126.3680  194.3260 O.3       1 FAD503      0.0000 
     46 C4'       215.1130  124.3570  195.3860 C.3       1 FAD503      0.0000 
     47 O4'       215.3350  122.9480  195.4310 O.3       1 FAD503      0.0000 
     48 C5'       213.7200  124.6370  194.8730 C.3       1 FAD503      0.0000 
     49 O5'       212.8540  123.5340  195.2440 O.3       1 FAD503      0.0000 
     50 P         211.2960  123.5950  194.8860 P.3       1 FAD503      0.0000 
     51 O1P       211.0990  124.4390  193.6810 O.co2     1 FAD503      0.0000 
     52 O2P       210.4850  123.8430  196.1080 O.co2     1 FAD503      0.0000 
     53 O3P       211.0630  122.1060  194.3830 O.3       1 FAD503      0.0000 
@<TRIPOS>BOND
     1    1    2 ar   
     2    1    3 ar   
     3    1    4 1    
     4    1   53 1    
     5    4    5 1    
     6    5    6 1    
     7    6    7 1    
     8    6    8 1    
     9    7   12 1    
    10    8    9 1    
    11    8   10 1    
    12   10   11 1    
    13   10   12 1    
    14   12   13 1    
    15   13   14 1    
    16   13   22 1    
    17   14   15 2    
    18   15   16 1    
    19   16   17 ar   
    20   16   22 ar   
    21   17   18 1    
    22   17   19 ar   
    23   19   20 ar   
    24   20   21 ar   
    25   21   22 ar   
    26   23   24 1    
    27   23   40 2    
    28   24   25 2    
    29   24   26 am   
    30   26   27 am   
    31   27   28 2    
    32   27   29 1    
    33   29   30 2    
    34   29   40 1    
    35   30   31 1    
    36   31   32 ar   
    37   31   38 ar   
    38   32   33 ar   
    39   33   34 1    
    40   33   35 ar   
    41   35   36 1    
    42   35   37 ar   
    43   37   38 ar   
    44   38   39 1    
    45   39   40 1    
    46   39   41 1    
    47   41   42 1    
    48   42   43 1    
    49   42   44 1    
    50   44   45 1    
    51   44   46 1    
    52   46   47 1    
    53   46   48 1    
    54   48   49 1    
    55   49   50 1    
    56   50   51 ar   
    57   50   52 ar   
    58   50   53 1    
@<TRIPOS>SUBSTRUCTURE
     1 FAD503      1 GROUP   
@<TRIPOS>SET
ATOM$ORANGE STATIC     ATOMS   COLORGROUP SYSTEM 
54 5 5 6 6 8 8 10 10 12 12 14 14 16 16 17 17 20 \
20 22 22 24 24 27 27 29 29 31 31 32 32 33 33 34 34 35 \
35 36 36 37 37 38 38 40 40 41 41 42 42 44 44 46 46 48 \
48 

