#    Name: 6s6x_6_FMN
#    Modification time : Fri May 22 19:37:57 2020

@<TRIPOS>MOLECULE
6s6x_6_FMN
   31    33     1     0     1
SMALL
NO_CHARGES


@<TRIPOS>ATOM
      1 N1        271.4880  218.9160  252.0490 N.2       1 FMN1501     0.0000 
      2 C2        271.6250  218.9970  250.6800 C.2       1 FMN1501     0.0000 
      3 O2        270.9260  219.7790  250.0390 O.2       1 FMN1501     0.0000 
      4 N3        272.5440  218.2080  250.0250 N.am      1 FMN1501     0.0000 
      5 C4        273.3300  217.3320  250.7380 C.2       1 FMN1501     0.0000 
      6 O4        274.1510  216.6270  250.1580 O.2       1 FMN1501     0.0000 
      7 C4A       273.1960  217.2470  252.1150 C.2       1 FMN1501     0.0000 
      8 N5        273.9820  216.3690  252.8260 N.2       1 FMN1501     0.0000 
      9 C5A       273.8470  216.2860  254.1930 C.ar      1 FMN1501     0.0000 
     10 C6        274.6380  215.4030  254.9150 C.ar      1 FMN1501     0.0000 
     11 C7        274.5010  215.3180  256.2920 C.ar      1 FMN1501     0.0000 
     12 C7M       275.3570  214.3650  257.0670 C.3       1 FMN1501     0.0000 
     13 C8        273.5750  216.1130  256.9470 C.ar      1 FMN1501     0.0000 
     14 C8M       273.4270  216.0240  258.4360 C.3       1 FMN1501     0.0000 
     15 C9        272.7860  216.9950  256.2270 C.ar      1 FMN1501     0.0000 
     16 C9A       272.9210  217.0820  254.8490 C.ar      1 FMN1501     0.0000 
     17 N10       272.1320  217.9550  254.1350 N.pl3     1 FMN1501     0.0000 
     18 C10       272.2740  218.0470  252.7690 C.2       1 FMN1501     0.0000 
     19 C1'       271.1390  218.8110  254.8590 C.3       1 FMN1501     0.0000 
     20 C2'       269.7820  218.1240  254.8200 C.3       1 FMN1501     0.0000 
     21 O2'       269.3550  218.0270  253.4820 O.3       1 FMN1501     0.0000 
     22 C3'       268.7430  218.8980  255.6140 C.3       1 FMN1501     0.0000 
     23 O3'       268.7140  220.2340  255.1750 O.3       1 FMN1501     0.0000 
     24 C4'       269.1030  218.8560  257.0890 C.3       1 FMN1501     0.0000 
     25 O4'       269.5180  217.5530  257.4210 O.3       1 FMN1501     0.0000 
     26 C5'       267.9200  219.2440  257.9630 C.3       1 FMN1501     0.0000 
     27 O5'       268.3660  219.3380  259.2950 O.3       1 FMN1501     0.0000 
     28 P         267.5450  218.5980  260.4610 P.3       1 FMN1501     0.0000 
     29 O1P       267.8380  217.1250  260.3620 O.co2     1 FMN1501     0.0000 
     30 O2P       267.9900  219.1110  261.8050 O.co2     1 FMN1501     0.0000 
     31 O3P       266.0660  218.8300  260.2900 O.co2     1 FMN1501     0.0000 
@<TRIPOS>BOND
     1    1    2 1    
     2    1   18 2    
     3    2    3 2    
     4    2    4 am   
     5    4    5 am   
     6    5    6 2    
     7    5    7 1    
     8    7    8 2    
     9    7   18 1    
    10    8    9 1    
    11    9   10 ar   
    12    9   16 ar   
    13   10   11 ar   
    14   11   12 1    
    15   11   13 ar   
    16   13   14 1    
    17   13   15 ar   
    18   15   16 ar   
    19   16   17 1    
    20   17   18 1    
    21   17   19 1    
    22   19   20 1    
    23   20   21 1    
    24   20   22 1    
    25   22   23 1    
    26   22   24 1    
    27   24   25 1    
    28   24   26 1    
    29   26   27 1    
    30   27   28 1    
    31   28   29 ar   
    32   28   30 ar   
    33   28   31 ar   
@<TRIPOS>SUBSTRUCTURE
     1 FMN1501     1 GROUP   
@<TRIPOS>SET
ATOM$ORANGE STATIC     ATOMS   COLORGROUP SYSTEM 
34 2 2 5 5 7 7 9 9 10 10 11 11 12 12 13 13 14 \
14 15 15 16 16 18 18 19 19 20 20 22 22 24 24 26 26 

