#    Name: 6s6x_4_FMN
#    Modification time : Fri May 22 19:37:23 2020

@<TRIPOS>MOLECULE
6s6x_4_FMN
   31    33     1     0     1
SMALL
NO_CHARGES


@<TRIPOS>ATOM
      1 N1        257.9420  201.0330  185.1390 N.2       1 FMN1501     0.0000 
      2 C2        257.0880  200.0150  185.4990 C.2       1 FMN1501     0.0000 
      3 O2        255.9000  200.2570  185.6940 O.2       1 FMN1501     0.0000 
      4 N3        257.5590  198.7300  185.6410 N.am      1 FMN1501     0.0000 
      5 C4        258.8900  198.4590  185.4210 C.2       1 FMN1501     0.0000 
      6 O4        259.3130  197.3150  185.5470 O.2       1 FMN1501     0.0000 
      7 C4A       259.7530  199.4780  185.0590 C.2       1 FMN1501     0.0000 
      8 N5        261.0830  199.2090  184.8390 N.2       1 FMN1501     0.0000 
      9 C5A       261.9350  200.2280  184.4800 C.ar      1 FMN1501     0.0000 
     10 C6        263.2760  199.9560  184.2610 C.ar      1 FMN1501     0.0000 
     11 C7        264.1360  200.9810  183.8980 C.ar      1 FMN1501     0.0000 
     12 C7M       265.5840  200.6840  183.6600 C.3       1 FMN1501     0.0000 
     13 C8        263.6570  202.2740  183.7560 C.ar      1 FMN1501     0.0000 
     14 C8M       264.5840  203.3830  183.3640 C.3       1 FMN1501     0.0000 
     15 C9        262.3150  202.5440  183.9760 C.ar      1 FMN1501     0.0000 
     16 C9A       261.4540  201.5200  184.3390 C.ar      1 FMN1501     0.0000 
     17 N10       260.1240  201.7850  184.5650 N.pl3     1 FMN1501     0.0000 
     18 C10       259.2730  200.7670  184.9160 C.2       1 FMN1501     0.0000 
     19 C1'       259.5830  203.1710  184.4050 C.3       1 FMN1501     0.0000 
     20 C2'       259.5470  203.8940  185.7370 C.3       1 FMN1501     0.0000 
     21 O2'       258.6630  203.2220  186.6000 O.3       1 FMN1501     0.0000 
     22 C3'       259.0630  205.3160  185.5210 C.3       1 FMN1501     0.0000 
     23 O3'       257.8460  205.2850  184.8160 O.3       1 FMN1501     0.0000 
     24 C4'       260.0850  206.0880  184.7090 C.3       1 FMN1501     0.0000 
     25 O4'       261.3710  205.7890  185.1940 O.3       1 FMN1501     0.0000 
     26 C5'       259.8600  207.5860  184.8060 C.3       1 FMN1501     0.0000 
     27 O5'       260.7350  208.2170  183.9040 O.3       1 FMN1501     0.0000 
     28 P         261.6270  209.4460  184.4130 P.3       1 FMN1501     0.0000 
     29 O1P       262.7390  208.8790  185.2540 O.co2     1 FMN1501     0.0000 
     30 O2P       262.2020  210.1930  183.2370 O.co2     1 FMN1501     0.0000 
     31 O3P       260.7800  210.3650  185.2530 O.co2     1 FMN1501     0.0000 
@<TRIPOS>BOND
     1    1    2 1    
     2    1   18 2    
     3    2    3 2    
     4    2    4 am   
     5    4    5 am   
     6    5    6 2    
     7    5    7 1    
     8    7    8 2    
     9    7   18 1    
    10    8    9 1    
    11    9   10 ar   
    12    9   16 ar   
    13   10   11 ar   
    14   11   12 1    
    15   11   13 ar   
    16   13   14 1    
    17   13   15 ar   
    18   15   16 ar   
    19   16   17 1    
    20   17   18 1    
    21   17   19 1    
    22   19   20 1    
    23   20   21 1    
    24   20   22 1    
    25   22   23 1    
    26   22   24 1    
    27   24   25 1    
    28   24   26 1    
    29   26   27 1    
    30   27   28 1    
    31   28   29 ar   
    32   28   30 ar   
    33   28   31 ar   
@<TRIPOS>SUBSTRUCTURE
     1 FMN1501     1 GROUP   
@<TRIPOS>SET
ATOM$ORANGE STATIC     ATOMS   COLORGROUP SYSTEM 
34 2 2 5 5 7 7 9 9 10 10 11 11 12 12 13 13 14 \
14 15 15 16 16 18 18 19 19 20 20 22 22 24 24 26 26 

