#    Name: 6s6x_1_FMN
#    Modification time : Fri May 22 19:36:32 2020

@<TRIPOS>MOLECULE
6s6x_1_FMN
   31    33     1     0     1
SMALL
NO_CHARGES


@<TRIPOS>ATOM
      1 N1        181.3200  238.1530  185.2130 N.2       1 FMN1501     0.0000 
      2 C2        182.1750  239.1700  185.5740 C.2       1 FMN1501     0.0000 
      3 O2        183.3620  238.9280  185.7710 O.2       1 FMN1501     0.0000 
      4 N3        181.7040  240.4560  185.7130 N.am      1 FMN1501     0.0000 
      5 C4        180.3740  240.7280  185.4920 C.2       1 FMN1501     0.0000 
      6 O4        179.9510  241.8720  185.6160 O.2       1 FMN1501     0.0000 
      7 C4A       179.5110  239.7090  185.1290 C.2       1 FMN1501     0.0000 
      8 N5        178.1810  239.9780  184.9070 N.2       1 FMN1501     0.0000 
      9 C5A       177.3290  238.9600  184.5480 C.ar      1 FMN1501     0.0000 
     10 C6        175.9880  239.2330  184.3260 C.ar      1 FMN1501     0.0000 
     11 C7        175.1280  238.2090  183.9630 C.ar      1 FMN1501     0.0000 
     12 C7M       173.6810  238.5060  183.7230 C.3       1 FMN1501     0.0000 
     13 C8        175.6070  236.9140  183.8230 C.ar      1 FMN1501     0.0000 
     14 C8M       174.6790  235.8050  183.4310 C.3       1 FMN1501     0.0000 
     15 C9        176.9480  236.6440  184.0450 C.ar      1 FMN1501     0.0000 
     16 C9A       177.8090  237.6680  184.4090 C.ar      1 FMN1501     0.0000 
     17 N10       179.1390  237.4020  184.6360 N.pl3     1 FMN1501     0.0000 
     18 C10       179.9900  238.4200  184.9890 C.2       1 FMN1501     0.0000 
     19 C1'       179.6780  236.0160  184.4790 C.3       1 FMN1501     0.0000 
     20 C2'       179.7120  235.2930  185.8120 C.3       1 FMN1501     0.0000 
     21 O2'       180.5950  235.9660  186.6760 O.3       1 FMN1501     0.0000 
     22 C3'       180.1960  233.8710  185.5980 C.3       1 FMN1501     0.0000 
     23 O3'       181.4140  233.9000  184.8950 O.3       1 FMN1501     0.0000 
     24 C4'       179.1740  233.0990  184.7850 C.3       1 FMN1501     0.0000 
     25 O4'       177.8880  233.4000  185.2680 O.3       1 FMN1501     0.0000 
     26 C5'       179.3980  231.6010  184.8840 C.3       1 FMN1501     0.0000 
     27 O5'       178.5230  230.9700  183.9810 O.3       1 FMN1501     0.0000 
     28 P         177.6300  229.7410  184.4910 P.3       1 FMN1501     0.0000 
     29 O1P       176.5170  230.3110  185.3290 O.co2     1 FMN1501     0.0000 
     30 O2P       177.0570  228.9940  183.3140 O.co2     1 FMN1501     0.0000 
     31 O3P       178.4750  228.8230  185.3330 O.co2     1 FMN1501     0.0000 
@<TRIPOS>BOND
     1    1    2 1    
     2    1   18 2    
     3    2    3 2    
     4    2    4 am   
     5    4    5 am   
     6    5    6 2    
     7    5    7 1    
     8    7    8 2    
     9    7   18 1    
    10    8    9 1    
    11    9   10 ar   
    12    9   16 ar   
    13   10   11 ar   
    14   11   12 1    
    15   11   13 ar   
    16   13   14 1    
    17   13   15 ar   
    18   15   16 ar   
    19   16   17 1    
    20   17   18 1    
    21   17   19 1    
    22   19   20 1    
    23   20   21 1    
    24   20   22 1    
    25   22   23 1    
    26   22   24 1    
    27   24   25 1    
    28   24   26 1    
    29   26   27 1    
    30   27   28 1    
    31   28   29 ar   
    32   28   30 ar   
    33   28   31 ar   
@<TRIPOS>SUBSTRUCTURE
     1 FMN1501     1 GROUP   
@<TRIPOS>SET
ATOM$ORANGE STATIC     ATOMS   COLORGROUP SYSTEM 
34 2 2 5 5 7 7 9 9 10 10 11 11 12 12 13 13 14 \
14 15 15 16 16 18 18 19 19 20 20 22 22 24 24 26 26 

