#    Name: 6s6x_5_FMN
#    Modification time : Fri May 22 19:37:40 2020

@<TRIPOS>MOLECULE
6s6x_5_FMN
   31    33     1     0     1
SMALL
NO_CHARGES


@<TRIPOS>ATOM
      1 N1        224.6210  160.0410  231.9580 N.2       1 FMN1501     0.0000 
      2 C2        225.2340  160.6710  233.0190 C.2       1 FMN1501     0.0000 
      3 O2        224.6850  161.6260  233.5650 O.2       1 FMN1501     0.0000 
      4 N3        226.4590  160.2360  233.4740 N.am      1 FMN1501     0.0000 
      5 C4        227.0770  159.1670  232.8660 C.2       1 FMN1501     0.0000 
      6 O4        228.1690  158.7760  233.2680 O.2       1 FMN1501     0.0000 
      7 C4A       226.4650  158.5300  231.7990 C.2       1 FMN1501     0.0000 
      8 N5        227.0850  157.4620  231.1920 N.2       1 FMN1501     0.0000 
      9 C5A       226.4760  156.8310  230.1310 C.ar      1 FMN1501     0.0000 
     10 C6        227.0980  155.7540  229.5170 C.ar      1 FMN1501     0.0000 
     11 C7        226.4850  155.1180  228.4480 C.ar      1 FMN1501     0.0000 
     12 C7M       227.1570  153.9560  227.7870 C.3       1 FMN1501     0.0000 
     13 C8        225.2520  155.5590  227.9920 C.ar      1 FMN1501     0.0000 
     14 C8M       224.5870  154.8750  226.8380 C.3       1 FMN1501     0.0000 
     15 C9        224.6310  156.6350  228.6070 C.ar      1 FMN1501     0.0000 
     16 C9A       225.2440  157.2720  229.6760 C.ar      1 FMN1501     0.0000 
     17 N10       224.6270  158.3440  230.2820 N.pl3     1 FMN1501     0.0000 
     18 C10       225.2310  158.9680  231.3490 C.2       1 FMN1501     0.0000 
     19 C1'       223.2930  158.8040  229.7810 C.3       1 FMN1501     0.0000 
     20 C2'       223.5130  159.9460  228.8000 C.3       1 FMN1501     0.0000 
     21 O2'       224.1030  161.0260  229.4820 O.3       1 FMN1501     0.0000 
     22 C3'       222.2080  160.4140  228.1770 C.3       1 FMN1501     0.0000 
     23 O3'       221.2820  160.7150  229.1940 O.3       1 FMN1501     0.0000 
     24 C4'       221.6500  159.3130  227.2920 C.3       1 FMN1501     0.0000 
     25 O4'       222.7030  158.7470  226.5500 O.3       1 FMN1501     0.0000 
     26 C5'       220.5950  159.8470  226.3350 C.3       1 FMN1501     0.0000 
     27 O5'       220.0140  158.7540  225.6650 O.3       1 FMN1501     0.0000 
     28 P         219.8680  158.7870  224.0660 P.3       1 FMN1501     0.0000 
     29 O1P       221.2320  158.5450  223.4780 O.co2     1 FMN1501     0.0000 
     30 O2P       218.9220  157.7030  223.6170 O.co2     1 FMN1501     0.0000 
     31 O3P       219.3570  160.1300  223.6140 O.co2     1 FMN1501     0.0000 
@<TRIPOS>BOND
     1    1    2 1    
     2    1   18 2    
     3    2    3 2    
     4    2    4 am   
     5    4    5 am   
     6    5    6 2    
     7    5    7 1    
     8    7    8 2    
     9    7   18 1    
    10    8    9 1    
    11    9   10 ar   
    12    9   16 ar   
    13   10   11 ar   
    14   11   12 1    
    15   11   13 ar   
    16   13   14 1    
    17   13   15 ar   
    18   15   16 ar   
    19   16   17 1    
    20   17   18 1    
    21   17   19 1    
    22   19   20 1    
    23   20   21 1    
    24   20   22 1    
    25   22   23 1    
    26   22   24 1    
    27   24   25 1    
    28   24   26 1    
    29   26   27 1    
    30   27   28 1    
    31   28   29 ar   
    32   28   30 ar   
    33   28   31 ar   
@<TRIPOS>SUBSTRUCTURE
     1 FMN1501     1 GROUP   
@<TRIPOS>SET
ATOM$ORANGE STATIC     ATOMS   COLORGROUP SYSTEM 
34 2 2 5 5 7 7 9 9 10 10 11 11 12 12 13 13 14 \
14 15 15 16 16 18 18 19 19 20 20 22 22 24 24 26 26 

