#    Name: 6s6x_8_FAD
#    Modification time : Fri May 22 19:38:14 2020

@<TRIPOS>MOLECULE
6s6x_8_FAD
   53    58     1     0     1
SMALL
NO_CHARGES


@<TRIPOS>ATOM
      1 PA        157.1720  231.5890  306.6340 P.3       1 FAD503      0.0000 
      2 O1A       156.0440  232.0390  305.7670 O.co2     1 FAD503      0.0000 
      3 O2A       158.0960  232.6160  307.1940 O.co2     1 FAD503      0.0000 
      4 O5B       156.5880  230.7020  307.8300 O.3       1 FAD503      0.0000 
      5 C5B       157.4150  230.4350  308.9870 C.3       1 FAD503      0.0000 
      6 C4B       156.5240  229.9860  310.1180 C.3       1 FAD503      0.0000 
      7 O4B       157.3570  229.4980  311.2000 O.3       1 FAD503      0.0000 
      8 C3B       155.6230  231.0610  310.7470 C.3       1 FAD503      0.0000 
      9 O3B       154.3600  230.4890  311.0590 O.3       1 FAD503      0.0000 
     10 C2B       156.3600  231.3900  312.0480 C.3       1 FAD503      0.0000 
     11 O2B       155.5320  231.9400  313.0480 O.3       1 FAD503      0.0000 
     12 C1B       156.8710  230.0060  312.4180 C.3       1 FAD503      0.0000 
     13 N9A       157.9830  230.0030  313.3460 N.pl3     1 FAD503      0.0000 
     14 C8A       159.0910  230.8100  313.3200 C.2       1 FAD503      0.0000 
     15 N7A       159.9360  230.5360  314.2860 N.2       1 FAD503      0.0000 
     16 C5A       159.3400  229.4960  314.9880 C.ar      1 FAD503      0.0000 
     17 C6A       159.7360  228.7630  316.1220 C.ar      1 FAD503      0.0000 
     18 N6A       160.8800  228.9680  316.7670 N.pl3     1 FAD503      0.0000 
     19 N1A       158.9010  227.7890  316.5580 N.ar      1 FAD503      0.0000 
     20 C2A       157.7560  227.5820  315.8940 C.ar      1 FAD503      0.0000 
     21 N3A       157.2830  228.2040  314.8170 N.ar      1 FAD503      0.0000 
     22 C4A       158.1350  229.1600  314.4120 C.ar      1 FAD503      0.0000 
     23 N1        158.7720  238.1400  302.1650 N.2       1 FAD503      0.0000 
     24 C2        158.8750  239.0700  303.1410 C.2       1 FAD503      0.0000 
     25 O2        159.7270  238.9680  304.0230 O.2       1 FAD503      0.0000 
     26 N3        158.0520  240.1500  303.2010 N.am      1 FAD503      0.0000 
     27 C4        157.0650  240.3620  302.2710 C.2       1 FAD503      0.0000 
     28 O4        156.3480  241.3500  302.3570 O.2       1 FAD503      0.0000 
     29 C4X       156.9270  239.4190  301.2400 C.2       1 FAD503      0.0000 
     30 N5        155.9930  239.6110  300.3470 N.2       1 FAD503      0.0000 
     31 C5X       155.8790  238.6810  299.3510 C.ar      1 FAD503      0.0000 
     32 C6        154.8830  238.8750  298.3810 C.ar      1 FAD503      0.0000 
     33 C7        154.7080  237.9870  297.3490 C.ar      1 FAD503      0.0000 
     34 C7M       153.6260  238.2340  296.3330 C.3       1 FAD503      0.0000 
     35 C8        155.5460  236.8480  297.2580 C.ar      1 FAD503      0.0000 
     36 C8M       155.3720  235.8550  296.1390 C.3       1 FAD503      0.0000 
     37 C9        156.5300  236.6470  298.2040 C.ar      1 FAD503      0.0000 
     38 C9A       156.7180  237.5510  299.2620 C.ar      1 FAD503      0.0000 
     39 N10       157.6970  237.3780  300.2360 N.pl3     1 FAD503      0.0000 
     40 C10       157.8410  238.3040  301.2520 C.2       1 FAD503      0.0000 
     41 C1'       158.5970  236.2130  300.1620 C.3       1 FAD503      0.0000 
     42 C2'       157.9650  234.9370  300.6950 C.3       1 FAD503      0.0000 
     43 O2'       156.5460  235.0400  300.6760 O.3       1 FAD503      0.0000 
     44 C3'       158.4420  234.5820  302.1040 C.3       1 FAD503      0.0000 
     45 O3'       159.8390  234.3200  302.0780 O.3       1 FAD503      0.0000 
     46 C4'       157.7140  233.3850  302.7200 C.3       1 FAD503      0.0000 
     47 O4'       156.3340  233.4310  302.3540 O.3       1 FAD503      0.0000 
     48 C5'       158.2800  232.0470  302.3070 C.3       1 FAD503      0.0000 
     49 O5'       157.9270  231.0920  303.3470 O.3       1 FAD503      0.0000 
     50 P         158.9810  230.7970  304.5180 P.3       1 FAD503      0.0000 
     51 O1P       159.7340  229.5560  304.1720 O.co2     1 FAD503      0.0000 
     52 O2P       159.7480  232.0540  304.7480 O.co2     1 FAD503      0.0000 
     53 O3P       158.0460  230.5390  305.7970 O.3       1 FAD503      0.0000 
@<TRIPOS>BOND
     1    1    2 ar   
     2    1    3 ar   
     3    1    4 1    
     4    1   53 1    
     5    4    5 1    
     6    5    6 1    
     7    6    7 1    
     8    6    8 1    
     9    7   12 1    
    10    8    9 1    
    11    8   10 1    
    12   10   11 1    
    13   10   12 1    
    14   12   13 1    
    15   13   14 1    
    16   13   22 1    
    17   14   15 2    
    18   15   16 1    
    19   16   17 ar   
    20   16   22 ar   
    21   17   18 1    
    22   17   19 ar   
    23   19   20 ar   
    24   20   21 ar   
    25   21   22 ar   
    26   23   24 1    
    27   23   40 2    
    28   24   25 2    
    29   24   26 am   
    30   26   27 am   
    31   27   28 2    
    32   27   29 1    
    33   29   30 2    
    34   29   40 1    
    35   30   31 1    
    36   31   32 ar   
    37   31   38 ar   
    38   32   33 ar   
    39   33   34 1    
    40   33   35 ar   
    41   35   36 1    
    42   35   37 ar   
    43   37   38 ar   
    44   38   39 1    
    45   39   40 1    
    46   39   41 1    
    47   41   42 1    
    48   42   43 1    
    49   42   44 1    
    50   44   45 1    
    51   44   46 1    
    52   46   47 1    
    53   46   48 1    
    54   48   49 1    
    55   49   50 1    
    56   50   51 ar   
    57   50   52 ar   
    58   50   53 1    
@<TRIPOS>SUBSTRUCTURE
     1 FAD503      1 GROUP   
@<TRIPOS>SET
ATOM$ORANGE STATIC     ATOMS   COLORGROUP SYSTEM 
54 5 5 6 6 8 8 10 10 12 12 14 14 16 16 17 17 20 \
20 22 22 24 24 27 27 29 29 31 31 32 32 33 33 34 34 35 \
35 36 36 37 37 38 38 40 40 41 41 42 42 44 44 46 46 48 \
48 

